MODEL 1
REMARK VINA RESULT:      -9.1      0.000      0.000
REMARK  Name = 
REMARK  8 active torsions:
REMARK  status: ('A' for Active; 'I' for Inactive)
REMARK    1  A    between atoms: C_2  and  C_3
REMARK    2  A    between atoms: C_3  and  O_4
REMARK    3  A    between atoms: O_4  and  C_5
REMARK    4  A    between atoms: C_5  and  C_7
REMARK    5  A    between atoms: C_11  and  S_12
REMARK    6  A    between atoms: S_12  and  N_15
REMARK    7  A    between atoms: N_26  and  C_27
REMARK    8  A    between atoms: C_27  and  C_28
REMARK                            x       y       z     vdW  Elec       q    Type
REMARK                         _______ _______ _______ _____ _____    ______ ____
ROOT
ATOM      1  C   UNL     1       7.951   7.842  18.097  0.00  0.00    +0.000 A 
ATOM      2  C   UNL     1       8.410   7.020  19.131  0.00  0.00    +0.000 A 
ATOM      3  C   UNL     1       8.013   5.688  19.216  0.00  0.00    +0.000 A 
ATOM      4  C   UNL     1       7.163   5.151  18.256  0.00  0.00    +0.000 A 
ATOM      5  C   UNL     1       6.734   5.937  17.191  0.00  0.00    +0.000 A 
ATOM      6  C   UNL     1       7.095   7.298  17.110  0.00  0.00    +0.000 A 
ENDROOT
BRANCH   5   7
ATOM      7  S   UNL     1       5.647   5.171  15.993  0.00  0.00    +0.000 S 
ATOM      8  O   UNL     1       5.318   6.188  15.017  0.00  0.00    +0.000 OA
ATOM      9  O   UNL     1       6.270   3.922  15.601  0.00  0.00    +0.000 OA
BRANCH   7  10
ATOM     10  N   UNL     1       4.251   4.785  16.852  0.00  0.00    +0.000 NA
ATOM     11  C   UNL     1       3.552   5.740  17.756  0.00  0.00    +0.000 C 
ATOM     12  C   UNL     1       2.063   5.263  18.000  0.00  0.00    +0.000 C 
ATOM     13  C   UNL     1       2.034   3.807  18.504  0.00  0.00    +0.000 A 
ATOM     14  C   UNL     1       1.089   3.354  19.415  0.00  0.00    +0.000 A 
ATOM     15  C   UNL     1       1.565   2.885  20.634  0.00  0.00    +0.000 A 
ATOM     16  C   UNL     1       2.941   2.905  20.873  0.00  0.00    +0.000 A 
ATOM     17  C   UNL     1       3.828   3.049  19.798  0.00  0.00    +0.000 A 
ATOM     18  C   UNL     1       3.309   3.261  18.531  0.00  0.00    +0.000 A 
ATOM     19  C   UNL     1       4.054   3.380  17.228  0.00  0.00    +0.000 C 
ENDBRANCH   7  10
ENDBRANCH   5   7
BRANCH   1  20
ATOM     20  C   UNL     1       8.348   9.283  18.194  0.00  0.00    +0.000 C 
ATOM     21  O   UNL     1       7.915  10.153  17.472  0.00  0.00    +0.000 OA
BRANCH  20  22
ATOM     22  O   UNL     1       9.324   9.433  19.118  0.00  0.00    +0.000 OA
BRANCH  22  23
ATOM     23  C   UNL     1       9.381  10.736  19.726  0.00  0.00    +0.000 C 
BRANCH  23  25
ATOM     24  O   UNL     1      11.700  11.302  19.302  0.00  0.00    +0.000 OA
ATOM     25  C   UNL     1      10.520  11.500  19.023  0.00  0.00    +0.000 C 
ATOM     26  N   UNL     1      10.119  12.359  18.029  0.00  0.00    +0.000 N 
ATOM     27  H   UNL     1       9.129  12.535  17.876  0.00  0.00    +0.000 HD
BRANCH  26  28
ATOM     28  C   UNL     1      11.065  13.120  17.249  0.00  0.00    +0.000 C 
BRANCH  28  29
ATOM     29  C   UNL     1      10.737  14.562  17.366  0.00  0.00    +0.000 A 
ATOM     30  C   UNL     1       9.677  15.251  17.919  0.00  0.00    +0.000 A 
ATOM     31  C   UNL     1       9.947  16.627  17.724  0.00  0.00    +0.000 A 
ATOM     32  C   UNL     1      11.151  16.690  17.062  0.00  0.00    +0.000 A 
ATOM     33  O   UNL     1      11.638  15.444  16.838  0.00  0.00    +0.000 OA
ENDBRANCH  28  29
ENDBRANCH  26  28
ENDBRANCH  23  25
ENDBRANCH  22  23
ENDBRANCH  20  22
ENDBRANCH   1  20
TORSDOF 8
ENDMDL
MODEL 2
REMARK VINA RESULT:      -8.5      0.942      1.073
REMARK  Name = 
REMARK  8 active torsions:
REMARK  status: ('A' for Active; 'I' for Inactive)
REMARK    1  A    between atoms: C_2  and  C_3
REMARK    2  A    between atoms: C_3  and  O_4
REMARK    3  A    between atoms: O_4  and  C_5
REMARK    4  A    between atoms: C_5  and  C_7
REMARK    5  A    between atoms: C_11  and  S_12
REMARK    6  A    between atoms: S_12  and  N_15
REMARK    7  A    between atoms: N_26  and  C_27
REMARK    8  A    between atoms: C_27  and  C_28
REMARK                            x       y       z     vdW  Elec       q    Type
REMARK                         _______ _______ _______ _____ _____    ______ ____
ROOT
ATOM      1  C   UNL     1       7.948   7.953  18.091  0.00  0.00    +0.000 A 
ATOM      2  C   UNL     1       8.435   7.146  19.124  0.00  0.00    +0.000 A 
ATOM      3  C   UNL     1       8.067   5.806  19.218  0.00  0.00    +0.000 A 
ATOM      4  C   UNL     1       7.218   5.247  18.270  0.00  0.00    +0.000 A 
ATOM      5  C   UNL     1       6.761   6.019  17.206  0.00  0.00    +0.000 A 
ATOM      6  C   UNL     1       7.092   7.387  17.116  0.00  0.00    +0.000 A 
ENDROOT
BRANCH   5   7
ATOM      7  S   UNL     1       5.678   5.224  16.023  0.00  0.00    +0.000 S 
ATOM      8  O   UNL     1       5.356   6.216  15.020  0.00  0.00    +0.000 OA
ATOM      9  O   UNL     1       6.300   3.964  15.667  0.00  0.00    +0.000 OA
BRANCH   7  10
ATOM     10  N   UNL     1       4.277   4.864  16.886  0.00  0.00    +0.000 NA
ATOM     11  C   UNL     1       3.635   5.808  17.843  0.00  0.00    +0.000 C 
ATOM     12  C   UNL     1       2.129   5.388  18.088  0.00  0.00    +0.000 C 
ATOM     13  C   UNL     1       2.039   3.914  18.526  0.00  0.00    +0.000 A 
ATOM     14  C   UNL     1       1.086   3.463  19.430  0.00  0.00    +0.000 A 
ATOM     15  C   UNL     1       1.555   2.918  20.618  0.00  0.00    +0.000 A 
ATOM     16  C   UNL     1       2.934   2.862  20.837  0.00  0.00    +0.000 A 
ATOM     17  C   UNL     1       3.812   3.015  19.756  0.00  0.00    +0.000 A 
ATOM     18  C   UNL     1       3.287   3.309  18.508  0.00  0.00    +0.000 A 
ATOM     19  C   UNL     1       4.019   3.453  17.200  0.00  0.00    +0.000 C 
ENDBRANCH   7  10
ENDBRANCH   5   7
BRANCH   1  20
ATOM     20  C   UNL     1       8.314   9.403  18.178  0.00  0.00    +0.000 C 
ATOM     21  O   UNL     1       8.012  10.227  17.344  0.00  0.00    +0.000 OA
BRANCH  20  22
ATOM     22  O   UNL     1       9.111   9.615  19.250  0.00  0.00    +0.000 OA
BRANCH  22  23
ATOM     23  C   UNL     1      10.082  10.663  19.078  0.00  0.00    +0.000 C 
BRANCH  23  25
ATOM     24  O   UNL     1       9.493  12.110  20.933  0.00  0.00    +0.000 OA
ATOM     25  C   UNL     1       9.480  11.929  19.718  0.00  0.00    +0.000 C 
ATOM     26  N   UNL     1       8.994  12.857  18.828  0.00  0.00    +0.000 N 
ATOM     27  H   UNL     1       8.950  12.637  17.836  0.00  0.00    +0.000 HD
BRANCH  26  28
ATOM     28  C   UNL     1       8.434  14.114  19.264  0.00  0.00    +0.000 C 
BRANCH  28  29
ATOM     29  C   UNL     1       9.120  15.219  18.552  0.00  0.00    +0.000 A 
ATOM     30  C   UNL     1       8.994  16.593  18.587  0.00  0.00    +0.000 A 
ATOM     31  C   UNL     1       9.948  17.106  17.676  0.00  0.00    +0.000 A 
ATOM     32  C   UNL     1      10.592  16.016  17.140  0.00  0.00    +0.000 A 
ATOM     33  O   UNL     1      10.096  14.866  17.662  0.00  0.00    +0.000 OA
ENDBRANCH  28  29
ENDBRANCH  26  28
ENDBRANCH  23  25
ENDBRANCH  22  23
ENDBRANCH  20  22
ENDBRANCH   1  20
TORSDOF 8
ENDMDL
MODEL 3
REMARK VINA RESULT:      -8.3      2.334      3.485
REMARK  Name = 
REMARK  8 active torsions:
REMARK  status: ('A' for Active; 'I' for Inactive)
REMARK    1  A    between atoms: C_2  and  C_3
REMARK    2  A    between atoms: C_3  and  O_4
REMARK    3  A    between atoms: O_4  and  C_5
REMARK    4  A    between atoms: C_5  and  C_7
REMARK    5  A    between atoms: C_11  and  S_12
REMARK    6  A    between atoms: S_12  and  N_15
REMARK    7  A    between atoms: N_26  and  C_27
REMARK    8  A    between atoms: C_27  and  C_28
REMARK                            x       y       z     vdW  Elec       q    Type
REMARK                         _______ _______ _______ _____ _____    ______ ____
ROOT
ATOM      1  C   UNL     1       7.947   7.961  18.096  0.00  0.00    +0.000 A 
ATOM      2  C   UNL     1       8.441   7.155  19.127  0.00  0.00    +0.000 A 
ATOM      3  C   UNL     1       8.077   5.814  19.222  0.00  0.00    +0.000 A 
ATOM      4  C   UNL     1       7.226   5.252  18.277  0.00  0.00    +0.000 A 
ATOM      5  C   UNL     1       6.763   6.023  17.215  0.00  0.00    +0.000 A 
ATOM      6  C   UNL     1       7.089   7.392  17.124  0.00  0.00    +0.000 A 
ENDROOT
BRANCH   5   7
ATOM      7  S   UNL     1       5.678   5.226  16.036  0.00  0.00    +0.000 S 
ATOM      8  O   UNL     1       5.360   6.213  15.027  0.00  0.00    +0.000 OA
ATOM      9  O   UNL     1       6.294   3.961  15.688  0.00  0.00    +0.000 OA
BRANCH   7  10
ATOM     10  N   UNL     1       4.274   4.877  16.900  0.00  0.00    +0.000 NA
ATOM     11  C   UNL     1       3.648   5.821  17.867  0.00  0.00    +0.000 C 
ATOM     12  C   UNL     1       2.137   5.420  18.112  0.00  0.00    +0.000 C 
ATOM     13  C   UNL     1       2.028   3.943  18.538  0.00  0.00    +0.000 A 
ATOM     14  C   UNL     1       1.072   3.497  19.441  0.00  0.00    +0.000 A 
ATOM     15  C   UNL     1       1.537   2.935  20.623  0.00  0.00    +0.000 A 
ATOM     16  C   UNL     1       2.915   2.860  20.837  0.00  0.00    +0.000 A 
ATOM     17  C   UNL     1       3.792   3.010  19.755  0.00  0.00    +0.000 A 
ATOM     18  C   UNL     1       3.267   3.321  18.511  0.00  0.00    +0.000 A 
ATOM     19  C   UNL     1       3.998   3.467  17.202  0.00  0.00    +0.000 C 
ENDBRANCH   7  10
ENDBRANCH   5   7
BRANCH   1  20
ATOM     20  C   UNL     1       8.309   9.412  18.182  0.00  0.00    +0.000 C 
ATOM     21  O   UNL     1       8.043  10.226  17.327  0.00  0.00    +0.000 OA
BRANCH  20  22
ATOM     22  O   UNL     1       9.059   9.636  19.285  0.00  0.00    +0.000 OA
BRANCH  22  23
ATOM     23  C   UNL     1      10.040  10.680  19.141  0.00  0.00    +0.000 C 
BRANCH  23  25
ATOM     24  O   UNL     1       9.162  12.936  18.999  0.00  0.00    +0.000 OA
ATOM     25  C   UNL     1       9.404  11.963  19.709  0.00  0.00    +0.000 C 
ATOM     26  N   UNL     1       9.072  11.908  21.042  0.00  0.00    +0.000 N 
ATOM     27  H   UNL     1       9.346  11.105  21.602  0.00  0.00    +0.000 HD
BRANCH  26  28
ATOM     28  C   UNL     1       8.433  13.012  21.716  0.00  0.00    +0.000 C 
BRANCH  28  29
ATOM     29  C   UNL     1       8.035  12.579  23.078  0.00  0.00    +0.000 A 
ATOM     30  C   UNL     1       7.142  11.640  23.551  0.00  0.00    +0.000 A 
ATOM     31  C   UNL     1       7.222  11.686  24.964  0.00  0.00    +0.000 A 
ATOM     32  C   UNL     1       8.155  12.651  25.263  0.00  0.00    +0.000 A 
ATOM     33  O   UNL     1       8.653  13.201  24.127  0.00  0.00    +0.000 OA
ENDBRANCH  28  29
ENDBRANCH  26  28
ENDBRANCH  23  25
ENDBRANCH  22  23
ENDBRANCH  20  22
ENDBRANCH   1  20
TORSDOF 8
ENDMDL
MODEL 4
REMARK VINA RESULT:      -8.0      5.877      9.444
REMARK  Name = 
REMARK  8 active torsions:
REMARK  status: ('A' for Active; 'I' for Inactive)
REMARK    1  A    between atoms: C_2  and  C_3
REMARK    2  A    between atoms: C_3  and  O_4
REMARK    3  A    between atoms: O_4  and  C_5
REMARK    4  A    between atoms: C_5  and  C_7
REMARK    5  A    between atoms: C_11  and  S_12
REMARK    6  A    between atoms: S_12  and  N_15
REMARK    7  A    between atoms: N_26  and  C_27
REMARK    8  A    between atoms: C_27  and  C_28
REMARK                            x       y       z     vdW  Elec       q    Type
REMARK                         _______ _______ _______ _____ _____    ______ ____
ROOT
ATOM      1  C   UNL     1       2.084   7.066  19.627  0.00  0.00    +0.000 A 
ATOM      2  C   UNL     1       2.536   7.292  18.322  0.00  0.00    +0.000 A 
ATOM      3  C   UNL     1       2.335   8.520  17.699  0.00  0.00    +0.000 A 
ATOM      4  C   UNL     1       1.693   9.551  18.377  0.00  0.00    +0.000 A 
ATOM      5  C   UNL     1       1.279   9.364  19.692  0.00  0.00    +0.000 A 
ATOM      6  C   UNL     1       1.439   8.114  20.326  0.00  0.00    +0.000 A 
ENDROOT
BRANCH   5   7
ATOM      7  S   UNL     1       0.467  10.740  20.498  0.00  0.00    +0.000 S 
ATOM      8  O   UNL     1      -0.912  10.728  20.057  0.00  0.00    +0.000 OA
ATOM      9  O   UNL     1       0.811  10.665  21.904  0.00  0.00    +0.000 OA
BRANCH   7  10
ATOM     10  N   UNL     1       1.212  12.115  19.873  0.00  0.00    +0.000 NA
ATOM     11  C   UNL     1       2.004  13.068  20.699  0.00  0.00    +0.000 C 
ATOM     12  C   UNL     1       2.952  13.931  19.769  0.00  0.00    +0.000 C 
ATOM     13  C   UNL     1       2.141  14.614  18.651  0.00  0.00    +0.000 A 
ATOM     14  C   UNL     1       2.463  15.873  18.162  0.00  0.00    +0.000 A 
ATOM     15  C   UNL     1       1.509  16.871  18.316  0.00  0.00    +0.000 A 
ATOM     16  C   UNL     1       0.304  16.559  18.951  0.00  0.00    +0.000 A 
ATOM     17  C   UNL     1      -0.072  15.218  19.100  0.00  0.00    +0.000 A 
ATOM     18  C   UNL     1       0.809  14.230  18.691  0.00  0.00    +0.000 A 
ATOM     19  C   UNL     1       0.601  12.738  18.692  0.00  0.00    +0.000 C 
ENDBRANCH   7  10
ENDBRANCH   5   7
BRANCH   1  20
ATOM     20  C   UNL     1       2.246   5.666  20.132  0.00  0.00    +0.000 C 
ATOM     21  O   UNL     1       1.352   5.021  20.634  0.00  0.00    +0.000 OA
BRANCH  20  22
ATOM     22  O   UNL     1       3.542   5.289  20.043  0.00  0.00    +0.000 OA
BRANCH  22  23
ATOM     23  C   UNL     1       3.758   4.034  19.374  0.00  0.00    +0.000 C 
BRANCH  23  25
ATOM     24  O   UNL     1       4.470   4.548  17.114  0.00  0.00    +0.000 OA
ATOM     25  C   UNL     1       4.800   4.297  18.270  0.00  0.00    +0.000 C 
ATOM     26  N   UNL     1       6.108   4.293  18.692  0.00  0.00    +0.000 N 
ATOM     27  H   UNL     1       6.335   4.021  19.645  0.00  0.00    +0.000 HD
BRANCH  26  28
ATOM     28  C   UNL     1       7.203   4.562  17.790  0.00  0.00    +0.000 C 
BRANCH  28  29
ATOM     29  C   UNL     1       7.485   6.018  17.798  0.00  0.00    +0.000 A 
ATOM     30  C   UNL     1       7.147   7.054  16.952  0.00  0.00    +0.000 A 
ATOM     31  C   UNL     1       7.709   8.228  17.510  0.00  0.00    +0.000 A 
ATOM     32  C   UNL     1       8.358   7.834  18.656  0.00  0.00    +0.000 A 
ATOM     33  O   UNL     1       8.230   6.495  18.840  0.00  0.00    +0.000 OA
ENDBRANCH  28  29
ENDBRANCH  26  28
ENDBRANCH  23  25
ENDBRANCH  22  23
ENDBRANCH  20  22
ENDBRANCH   1  20
TORSDOF 8
ENDMDL
MODEL 5
REMARK VINA RESULT:      -8.0      5.939      9.839
REMARK  Name = 
REMARK  8 active torsions:
REMARK  status: ('A' for Active; 'I' for Inactive)
REMARK    1  A    between atoms: C_2  and  C_3
REMARK    2  A    between atoms: C_3  and  O_4
REMARK    3  A    between atoms: O_4  and  C_5
REMARK    4  A    between atoms: C_5  and  C_7
REMARK    5  A    between atoms: C_11  and  S_12
REMARK    6  A    between atoms: S_12  and  N_15
REMARK    7  A    between atoms: N_26  and  C_27
REMARK    8  A    between atoms: C_27  and  C_28
REMARK                            x       y       z     vdW  Elec       q    Type
REMARK                         _______ _______ _______ _____ _____    ______ ____
ROOT
ATOM      1  C   UNL     1       1.952   7.827  19.488  0.00  0.00    +0.000 A 
ATOM      2  C   UNL     1       2.317   8.264  18.209  0.00  0.00    +0.000 A 
ATOM      3  C   UNL     1       1.941   9.524  17.750  0.00  0.00    +0.000 A 
ATOM      4  C   UNL     1       1.210  10.376  18.570  0.00  0.00    +0.000 A 
ATOM      5  C   UNL     1       0.879   9.982  19.862  0.00  0.00    +0.000 A 
ATOM      6  C   UNL     1       1.217   8.695  20.330  0.00  0.00    +0.000 A 
ENDROOT
BRANCH   5   7
ATOM      7  S   UNL     1      -0.057  11.138  20.857  0.00  0.00    +0.000 S 
ATOM      8  O   UNL     1      -1.448  10.968  20.496  0.00  0.00    +0.000 OA
ATOM      9  O   UNL     1       0.393  10.975  22.225  0.00  0.00    +0.000 OA
BRANCH   7  10
ATOM     10  N   UNL     1       0.443  12.662  20.344  0.00  0.00    +0.000 NA
ATOM     11  C   UNL     1      -0.155  13.376  19.182  0.00  0.00    +0.000 C 
ATOM     12  C   UNL     1       0.169  14.923  19.273  0.00  0.00    +0.000 C 
ATOM     13  C   UNL     1       1.686  15.153  19.420  0.00  0.00    +0.000 A 
ATOM     14  C   UNL     1       2.331  16.244  18.853  0.00  0.00    +0.000 A 
ATOM     15  C   UNL     1       3.310  15.973  17.906  0.00  0.00    +0.000 A 
ATOM     16  C   UNL     1       3.580  14.643  17.576  0.00  0.00    +0.000 A 
ATOM     17  C   UNL     1       3.140  13.618  18.423  0.00  0.00    +0.000 A 
ATOM     18  C   UNL     1       2.367  13.950  19.525  0.00  0.00    +0.000 A 
ATOM     19  C   UNL     1       1.840  13.038  20.600  0.00  0.00    +0.000 C 
ENDBRANCH   7  10
ENDBRANCH   5   7
BRANCH   1  20
ATOM     20  C   UNL     1       2.304   6.408  19.809  0.00  0.00    +0.000 C 
ATOM     21  O   UNL     1       1.921   5.824  20.798  0.00  0.00    +0.000 OA
BRANCH  20  22
ATOM     22  O   UNL     1       3.187   5.934  18.901  0.00  0.00    +0.000 OA
BRANCH  22  23
ATOM     23  C   UNL     1       4.355   5.312  19.467  0.00  0.00    +0.000 C 
BRANCH  23  25
ATOM     24  O   UNL     1       5.682   6.624  17.918  0.00  0.00    +0.000 OA
ATOM     25  C   UNL     1       5.504   5.539  18.465  0.00  0.00    +0.000 C 
ATOM     26  N   UNL     1       6.341   4.464  18.286  0.00  0.00    +0.000 N 
ATOM     27  H   UNL     1       6.119   3.568  18.714  0.00  0.00    +0.000 HD
BRANCH  26  28
ATOM     28  C   UNL     1       7.488   4.526  17.413  0.00  0.00    +0.000 C 
BRANCH  28  29
ATOM     29  C   UNL     1       7.029   4.413  16.007  0.00  0.00    +0.000 A 
ATOM     30  C   UNL     1       6.047   3.667  15.387  0.00  0.00    +0.000 A 
ATOM     31  C   UNL     1       6.088   4.011  14.015  0.00  0.00    +0.000 A 
ATOM     32  C   UNL     1       7.092   4.941  13.882  0.00  0.00    +0.000 A 
ATOM     33  O   UNL     1       7.671   5.190  15.084  0.00  0.00    +0.000 OA
ENDBRANCH  28  29
ENDBRANCH  26  28
ENDBRANCH  23  25
ENDBRANCH  22  23
ENDBRANCH  20  22
ENDBRANCH   1  20
TORSDOF 8
ENDMDL
MODEL 6
REMARK VINA RESULT:      -7.9      5.911      9.876
REMARK  Name = 
REMARK  8 active torsions:
REMARK  status: ('A' for Active; 'I' for Inactive)
REMARK    1  A    between atoms: C_2  and  C_3
REMARK    2  A    between atoms: C_3  and  O_4
REMARK    3  A    between atoms: O_4  and  C_5
REMARK    4  A    between atoms: C_5  and  C_7
REMARK    5  A    between atoms: C_11  and  S_12
REMARK    6  A    between atoms: S_12  and  N_15
REMARK    7  A    between atoms: N_26  and  C_27
REMARK    8  A    between atoms: C_27  and  C_28
REMARK                            x       y       z     vdW  Elec       q    Type
REMARK                         _______ _______ _______ _____ _____    ______ ____
ROOT
ATOM      1  C   UNL     1       3.836   6.936  17.866  0.00  0.00    +0.000 A 
ATOM      2  C   UNL     1       3.528   6.151  18.982  0.00  0.00    +0.000 A 
ATOM      3  C   UNL     1       2.548   6.548  19.888  0.00  0.00    +0.000 A 
ATOM      4  C   UNL     1       1.846   7.730  19.682  0.00  0.00    +0.000 A 
ATOM      5  C   UNL     1       2.100   8.501  18.553  0.00  0.00    +0.000 A 
ATOM      6  C   UNL     1       3.116   8.134  17.645  0.00  0.00    +0.000 A 
ENDROOT
BRANCH   5   7
ATOM      7  S   UNL     1       1.149  10.004  18.356  0.00  0.00    +0.000 S 
ATOM      8  O   UNL     1       2.091  11.056  18.036  0.00  0.00    +0.000 OA
ATOM      9  O   UNL     1       0.042   9.688  17.475  0.00  0.00    +0.000 OA
BRANCH   7  10
ATOM     10  N   UNL     1       0.502  10.316  19.880  0.00  0.00    +0.000 NA
ATOM     11  C   UNL     1      -0.483   9.425  20.552  0.00  0.00    +0.000 C 
ATOM     12  C   UNL     1      -0.501   9.716  22.108  0.00  0.00    +0.000 C 
ATOM     13  C   UNL     1      -0.744  11.214  22.378  0.00  0.00    +0.000 A 
ATOM     14  C   UNL     1      -1.472  11.664  23.471  0.00  0.00    +0.000 A 
ATOM     15  C   UNL     1      -2.631  12.382  23.203  0.00  0.00    +0.000 A 
ATOM     16  C   UNL     1      -2.996  12.598  21.872  0.00  0.00    +0.000 A 
ATOM     17  C   UNL     1      -2.050  12.415  20.856  0.00  0.00    +0.000 A 
ATOM     18  C   UNL     1      -0.795  11.934  21.194  0.00  0.00    +0.000 A 
ATOM     19  C   UNL     1       0.393  11.720  20.294  0.00  0.00    +0.000 C 
ENDBRANCH   7  10
ENDBRANCH   5   7
BRANCH   1  20
ATOM     20  C   UNL     1       4.996   6.464  17.045  0.00  0.00    +0.000 C 
ATOM     21  O   UNL     1       5.173   6.770  15.887  0.00  0.00    +0.000 OA
BRANCH  20  22
ATOM     22  O   UNL     1       5.731   5.575  17.751  0.00  0.00    +0.000 OA
BRANCH  22  23
ATOM     23  C   UNL     1       5.992   4.335  17.068  0.00  0.00    +0.000 C 
BRANCH  23  25
ATOM     24  O   UNL     1       3.834   3.574  16.265  0.00  0.00    +0.000 OA
ATOM     25  C   UNL     1       4.693   3.510  17.142  0.00  0.00    +0.000 C 
ATOM     26  N   UNL     1       4.603   2.659  18.217  0.00  0.00    +0.000 N 
ATOM     27  H   UNL     1       5.310   2.685  18.947  0.00  0.00    +0.000 HD
BRANCH  26  28
ATOM     28  C   UNL     1       3.468   1.788  18.410  0.00  0.00    +0.000 C 
BRANCH  28  29
ATOM     29  C   UNL     1       2.620   2.337  19.497  0.00  0.00    +0.000 A 
ATOM     30  C   UNL     1       1.279   2.651  19.587  0.00  0.00    +0.000 A 
ATOM     31  C   UNL     1       1.067   3.129  20.902  0.00  0.00    +0.000 A 
ATOM     32  C   UNL     1       2.290   3.081  21.529  0.00  0.00    +0.000 A 
ATOM     33  O   UNL     1       3.240   2.604  20.686  0.00  0.00    +0.000 OA
ENDBRANCH  28  29
ENDBRANCH  26  28
ENDBRANCH  23  25
ENDBRANCH  22  23
ENDBRANCH  20  22
ENDBRANCH   1  20
TORSDOF 8
ENDMDL
MODEL 7
REMARK VINA RESULT:      -7.9      6.192      9.660
REMARK  Name = 
REMARK  8 active torsions:
REMARK  status: ('A' for Active; 'I' for Inactive)
REMARK    1  A    between atoms: C_2  and  C_3
REMARK    2  A    between atoms: C_3  and  O_4
REMARK    3  A    between atoms: O_4  and  C_5
REMARK    4  A    between atoms: C_5  and  C_7
REMARK    5  A    between atoms: C_11  and  S_12
REMARK    6  A    between atoms: S_12  and  N_15
REMARK    7  A    between atoms: N_26  and  C_27
REMARK    8  A    between atoms: C_27  and  C_28
REMARK                            x       y       z     vdW  Elec       q    Type
REMARK                         _______ _______ _______ _____ _____    ______ ____
ROOT
ATOM      1  C   UNL     1       2.371   6.210  19.608  0.00  0.00    +0.000 A 
ATOM      2  C   UNL     1       2.630   6.706  18.326  0.00  0.00    +0.000 A 
ATOM      3  C   UNL     1       2.272   8.006  17.976  0.00  0.00    +0.000 A 
ATOM      4  C   UNL     1       1.664   8.838  18.910  0.00  0.00    +0.000 A 
ATOM      5  C   UNL     1       1.443   8.382  20.206  0.00  0.00    +0.000 A 
ATOM      6  C   UNL     1       1.764   7.056  20.566  0.00  0.00    +0.000 A 
ENDROOT
BRANCH   5   7
ATOM      7  S   UNL     1       0.663   9.515  21.351  0.00  0.00    +0.000 S 
ATOM      8  O   UNL     1      -0.683   9.029  21.568  0.00  0.00    +0.000 OA
ATOM      9  O   UNL     1       1.587   9.699  22.453  0.00  0.00    +0.000 OA
BRANCH   7  10
ATOM     10  N   UNL     1       0.573  10.979  20.524  0.00  0.00    +0.000 NA
ATOM     11  C   UNL     1       1.572  12.073  20.677  0.00  0.00    +0.000 C 
ATOM     12  C   UNL     1       1.488  13.059  19.442  0.00  0.00    +0.000 C 
ATOM     13  C   UNL     1       0.046  13.567  19.248  0.00  0.00    +0.000 A 
ATOM     14  C   UNL     1      -0.236  14.850  18.797  0.00  0.00    +0.000 A 
ATOM     15  C   UNL     1      -0.950  15.675  19.656  0.00  0.00    +0.000 A 
ATOM     16  C   UNL     1      -1.329  15.181  20.906  0.00  0.00    +0.000 A 
ATOM     17  C   UNL     1      -1.308  13.800  21.139  0.00  0.00    +0.000 A 
ATOM     18  C   UNL     1      -0.822  12.965  20.146  0.00  0.00    +0.000 A 
ATOM     19  C   UNL     1      -0.761  11.460  20.143  0.00  0.00    +0.000 C 
ENDBRANCH   7  10
ENDBRANCH   5   7
BRANCH   1  20
ATOM     20  C   UNL     1       2.686   4.761  19.814  0.00  0.00    +0.000 C 
ATOM     21  O   UNL     1       2.834   4.250  20.902  0.00  0.00    +0.000 OA
BRANCH  20  22
ATOM     22  O   UNL     1       2.884   4.156  18.621  0.00  0.00    +0.000 OA
BRANCH  22  23
ATOM     23  C   UNL     1       3.985   3.230  18.593  0.00  0.00    +0.000 C 
BRANCH  23  25
ATOM     24  O   UNL     1       6.139   4.258  19.023  0.00  0.00    +0.000 OA
ATOM     25  C   UNL     1       5.237   4.045  18.216  0.00  0.00    +0.000 C 
ATOM     26  N   UNL     1       5.294   4.453  16.905  0.00  0.00    +0.000 N 
ATOM     27  H   UNL     1       4.497   4.305  16.291  0.00  0.00    +0.000 HD
BRANCH  26  28
ATOM     28  C   UNL     1       6.418   5.191  16.382  0.00  0.00    +0.000 C 
BRANCH  28  29
ATOM     29  C   UNL     1       6.625   4.812  14.963  0.00  0.00    +0.000 A 
ATOM     30  C   UNL     1       5.986   3.931  14.114  0.00  0.00    +0.000 A 
ATOM     31  C   UNL     1       6.648   4.026  12.867  0.00  0.00    +0.000 A 
ATOM     32  C   UNL     1       7.650   4.952  13.033  0.00  0.00    +0.000 A 
ATOM     33  O   UNL     1       7.647   5.434  14.302  0.00  0.00    +0.000 OA
ENDBRANCH  28  29
ENDBRANCH  26  28
ENDBRANCH  23  25
ENDBRANCH  22  23
ENDBRANCH  20  22
ENDBRANCH   1  20
TORSDOF 8
ENDMDL
MODEL 8
REMARK VINA RESULT:      -7.8      1.060      1.285
REMARK  Name = 
REMARK  8 active torsions:
REMARK  status: ('A' for Active; 'I' for Inactive)
REMARK    1  A    between atoms: C_2  and  C_3
REMARK    2  A    between atoms: C_3  and  O_4
REMARK    3  A    between atoms: O_4  and  C_5
REMARK    4  A    between atoms: C_5  and  C_7
REMARK    5  A    between atoms: C_11  and  S_12
REMARK    6  A    between atoms: S_12  and  N_15
REMARK    7  A    between atoms: N_26  and  C_27
REMARK    8  A    between atoms: C_27  and  C_28
REMARK                            x       y       z     vdW  Elec       q    Type
REMARK                         _______ _______ _______ _____ _____    ______ ____
ROOT
ATOM      1  C   UNL     1       8.134   8.001  18.314  0.00  0.00    +0.000 A 
ATOM      2  C   UNL     1       8.508   7.033  19.253  0.00  0.00    +0.000 A 
ATOM      3  C   UNL     1       7.982   5.745  19.199  0.00  0.00    +0.000 A 
ATOM      4  C   UNL     1       7.086   5.397  18.195  0.00  0.00    +0.000 A 
ATOM      5  C   UNL     1       6.738   6.329  17.222  0.00  0.00    +0.000 A 
ATOM      6  C   UNL     1       7.231   7.650  17.283  0.00  0.00    +0.000 A 
ENDROOT
BRANCH   5   7
ATOM      7  S   UNL     1       5.585   5.803  15.959  0.00  0.00    +0.000 S 
ATOM      8  O   UNL     1       5.212   6.987  15.214  0.00  0.00    +0.000 OA
ATOM      9  O   UNL     1       6.177   4.654  15.303  0.00  0.00    +0.000 OA
BRANCH   7  10
ATOM     10  N   UNL     1       4.232   5.257  16.801  0.00  0.00    +0.000 NA
ATOM     11  C   UNL     1       3.571   6.032  17.887  0.00  0.00    +0.000 C 
ATOM     12  C   UNL     1       2.098   5.499  18.112  0.00  0.00    +0.000 C 
ATOM     13  C   UNL     1       2.101   3.978  18.358  0.00  0.00    +0.000 A 
ATOM     14  C   UNL     1       1.203   3.362  19.219  0.00  0.00    +0.000 A 
ATOM     15  C   UNL     1       1.738   2.696  20.315  0.00  0.00    +0.000 A 
ATOM     16  C   UNL     1       3.123   2.693  20.491  0.00  0.00    +0.000 A 
ATOM     17  C   UNL     1       3.958   3.033  19.418  0.00  0.00    +0.000 A 
ATOM     18  C   UNL     1       3.379   3.453  18.231  0.00  0.00    +0.000 A 
ATOM     19  C   UNL     1       4.061   3.805  16.936  0.00  0.00    +0.000 C 
ENDBRANCH   7  10
ENDBRANCH   5   7
BRANCH   1  20
ATOM     20  C   UNL     1       8.668   9.378  18.560  0.00  0.00    +0.000 C 
ATOM     21  O   UNL     1       9.113   9.750  19.623  0.00  0.00    +0.000 OA
BRANCH  20  22
ATOM     22  O   UNL     1       8.475  10.151  17.468  0.00  0.00    +0.000 OA
BRANCH  22  23
ATOM     23  C   UNL     1       8.341  11.557  17.743  0.00  0.00    +0.000 C 
BRANCH  23  25
ATOM     24  O   UNL     1      10.691  11.844  17.217  0.00  0.00    +0.000 OA
ATOM     25  C   UNL     1       9.765  12.096  17.984  0.00  0.00    +0.000 C 
ATOM     26  N   UNL     1       9.898  12.923  19.073  0.00  0.00    +0.000 N 
ATOM     27  H   UNL     1       9.117  13.054  19.712  0.00  0.00    +0.000 HD
BRANCH  26  28
ATOM     28  C   UNL     1      11.157  13.542  19.413  0.00  0.00    +0.000 C 
BRANCH  28  29
ATOM     29  C   UNL     1      11.289  14.810  18.655  0.00  0.00    +0.000 A 
ATOM     30  C   UNL     1      12.005  15.172  17.532  0.00  0.00    +0.000 A 
ATOM     31  C   UNL     1      11.705  16.534  17.288  0.00  0.00    +0.000 A 
ATOM     32  C   UNL     1      10.830  16.917  18.277  0.00  0.00    +0.000 A 
ATOM     33  O   UNL     1      10.573  15.880  19.114  0.00  0.00    +0.000 OA
ENDBRANCH  28  29
ENDBRANCH  26  28
ENDBRANCH  23  25
ENDBRANCH  22  23
ENDBRANCH  20  22
ENDBRANCH   1  20
TORSDOF 8
ENDMDL
MODEL 9
REMARK VINA RESULT:      -7.8      1.740      2.038
REMARK  Name = 
REMARK  8 active torsions:
REMARK  status: ('A' for Active; 'I' for Inactive)
REMARK    1  A    between atoms: C_2  and  C_3
REMARK    2  A    between atoms: C_3  and  O_4
REMARK    3  A    between atoms: O_4  and  C_5
REMARK    4  A    between atoms: C_5  and  C_7
REMARK    5  A    between atoms: C_11  and  S_12
REMARK    6  A    between atoms: S_12  and  N_15
REMARK    7  A    between atoms: N_26  and  C_27
REMARK    8  A    between atoms: C_27  and  C_28
REMARK                            x       y       z     vdW  Elec       q    Type
REMARK                         _______ _______ _______ _____ _____    ______ ____
ROOT
ATOM      1  C   UNL     1       8.066   8.262  18.150  0.00  0.00    +0.000 A 
ATOM      2  C   UNL     1       8.504   7.379  19.142  0.00  0.00    +0.000 A 
ATOM      3  C   UNL     1       8.056   6.061  19.173  0.00  0.00    +0.000 A 
ATOM      4  C   UNL     1       7.176   5.599  18.201  0.00  0.00    +0.000 A 
ATOM      5  C   UNL     1       6.767   6.446  17.176  0.00  0.00    +0.000 A 
ATOM      6  C   UNL     1       7.179   7.795  17.151  0.00  0.00    +0.000 A 
ENDROOT
BRANCH   5   7
ATOM      7  S   UNL     1       5.639   5.775  15.959  0.00  0.00    +0.000 S 
ATOM      8  O   UNL     1       5.246   6.873  15.103  0.00  0.00    +0.000 OA
ATOM      9  O   UNL     1       6.265   4.584  15.420  0.00  0.00    +0.000 OA
BRANCH   7  10
ATOM     10  N   UNL     1       4.292   5.277  16.839  0.00  0.00    +0.000 NA
ATOM     11  C   UNL     1       3.670   6.089  17.922  0.00  0.00    +0.000 C 
ATOM     12  C   UNL     1       2.190   5.595  18.186  0.00  0.00    +0.000 C 
ATOM     13  C   UNL     1       2.163   4.079  18.463  0.00  0.00    +0.000 A 
ATOM     14  C   UNL     1       1.268   3.502  19.354  0.00  0.00    +0.000 A 
ATOM     15  C   UNL     1       1.810   2.847  20.453  0.00  0.00    +0.000 A 
ATOM     16  C   UNL     1       3.198   2.815  20.602  0.00  0.00    +0.000 A 
ATOM     17  C   UNL     1       4.019   3.113  19.507  0.00  0.00    +0.000 A 
ATOM     18  C   UNL     1       3.426   3.522  18.323  0.00  0.00    +0.000 A 
ATOM     19  C   UNL     1       4.090   3.832  17.007  0.00  0.00    +0.000 C 
ENDBRANCH   7  10
ENDBRANCH   5   7
BRANCH   1  20
ATOM     20  C   UNL     1       8.518   9.681  18.305  0.00  0.00    +0.000 C 
ATOM     21  O   UNL     1       8.625  10.461  17.384  0.00  0.00    +0.000 OA
BRANCH  20  22
ATOM     22  O   UNL     1       8.887   9.912  19.585  0.00  0.00    +0.000 OA
BRANCH  22  23
ATOM     23  C   UNL     1      10.116  10.645  19.733  0.00  0.00    +0.000 C 
BRANCH  23  25
ATOM     24  O   UNL     1       9.758  12.208  21.553  0.00  0.00    +0.000 OA
ATOM     25  C   UNL     1       9.743  12.012  20.340  0.00  0.00    +0.000 C 
ATOM     26  N   UNL     1       9.460  12.997  19.425  0.00  0.00    +0.000 N 
ATOM     27  H   UNL     1       9.401  12.772  18.435  0.00  0.00    +0.000 HD
BRANCH  26  28
ATOM     28  C   UNL     1       9.132  14.344  19.830  0.00  0.00    +0.000 C 
BRANCH  28  29
ATOM     29  C   UNL     1       7.736  14.641  19.423  0.00  0.00    +0.000 A 
ATOM     30  C   UNL     1       6.606  15.020  20.118  0.00  0.00    +0.000 A 
ATOM     31  C   UNL     1       5.575  15.164  19.158  0.00  0.00    +0.000 A 
ATOM     32  C   UNL     1       6.139  14.861  17.941  0.00  0.00    +0.000 A 
ATOM     33  O   UNL     1       7.449  14.540  18.090  0.00  0.00    +0.000 OA
ENDBRANCH  28  29
ENDBRANCH  26  28
ENDBRANCH  23  25
ENDBRANCH  22  23
ENDBRANCH  20  22
ENDBRANCH   1  20
TORSDOF 8
ENDMDL
