MODEL 1
REMARK VINA RESULT:      -8.5      0.000      0.000
REMARK  Name = 
REMARK  8 active torsions:
REMARK  status: ('A' for Active; 'I' for Inactive)
REMARK    1  A    between atoms: C_2  and  C_3
REMARK    2  A    between atoms: C_3  and  C_4
REMARK    3  A    between atoms: C_9  and  N_10
REMARK    4  A    between atoms: C_11  and  C_13
REMARK    5  A    between atoms: C_22  and  C_23
REMARK    6  A    between atoms: C_23  and  O_24
REMARK    7  A    between atoms: N_26  and  C_27
REMARK    8  A    between atoms: C_27  and  C_28
REMARK                            x       y       z     vdW  Elec       q    Type
REMARK                         _______ _______ _______ _____ _____    ______ ____
ROOT
ATOM      1  C   UNL     1       2.187   5.562  19.587  0.00  0.00    +0.000 C 
ATOM      2  C   UNL     1       3.418   6.402  19.276  0.00  0.00    +0.000 C 
ATOM      3  C   UNL     1       4.219   5.738  18.158  0.00  0.00    +0.000 C 
ATOM      4  C   UNL     1       5.630   6.194  18.164  0.00  0.00    +0.000 A 
ATOM      5  C   UNL     1       6.155   7.396  17.734  0.00  0.00    +0.000 A 
ATOM      6  C   UNL     1       7.522   7.637  17.884  0.00  0.00    +0.000 A 
ATOM      7  C   UNL     1       8.332   6.639  18.476  0.00  0.00    +0.000 A 
ATOM      8  C   UNL     1       7.782   5.429  18.930  0.00  0.00    +0.000 A 
ATOM      9  C   UNL     1       6.429   5.229  18.750  0.00  0.00    +0.000 A 
ATOM     10  O   UNL     1       5.720   4.118  19.142  0.00  0.00    +0.000 OA
ATOM     11  C   UNL     1       4.482   4.238  18.378  0.00  0.00    +0.000 C 
ATOM     12  C   UNL     1       3.329   3.497  19.073  0.00  0.00    +0.000 C 
ATOM     13  O   UNL     1       2.660   4.295  20.070  0.00  0.00    +0.000 OA
ENDROOT
BRANCH   6  14
ATOM     14  N   UNL     1       8.134   8.851  17.465  0.00  0.00    +0.000 N 
ATOM     15  C   UNL     1       8.780   9.767  18.275  0.00  0.00    +0.000 C 
ATOM     16  O   UNL     1       8.932   9.642  19.491  0.00  0.00    +0.000 OA
ATOM     17  H   UNL     1       8.080   9.061  16.475  0.00  0.00    +0.000 HD
BRANCH  15  18
ATOM     18  C   UNL     1       9.318  11.024  17.572  0.00  0.00    +0.000 C 
ATOM     19  C   UNL     1       8.663  12.372  18.011  0.00  0.00    +0.000 C 
ATOM     20  C   UNL     1      10.016  13.043  17.737  0.00  0.00    +0.000 C 
ATOM     21  C   UNL     1      10.666  11.666  17.991  0.00  0.00    +0.000 C 
ENDBRANCH  15  18
ENDBRANCH   6  14
BRANCH   1  22
ATOM     22  C   UNL     1       1.315   6.233  20.647  0.00  0.00    +0.000 C 
BRANCH  22  24
ATOM     23  O   UNL     1       1.588   8.438  21.567  0.00  0.00    +0.000 OA
ATOM     24  C   UNL     1       1.415   7.744  20.571  0.00  0.00    +0.000 C 
ATOM     25  N   UNL     1       1.242   8.241  19.304  0.00  0.00    +0.000 N 
ATOM     26  H   UNL     1       1.278   7.573  18.539  0.00  0.00    +0.000 HD
BRANCH  25  27
ATOM     27  C   UNL     1       1.338   9.645  18.982  0.00  0.00    +0.000 C 
BRANCH  27  28
ATOM     28  C   UNL     1      -0.033  10.276  18.957  0.00  0.00    +0.000 A 
ATOM     29  C   UNL     1      -0.893  10.036  17.856  0.00  0.00    +0.000 A 
ATOM     30  C   UNL     1      -2.162  10.617  17.788  0.00  0.00    +0.000 A 
ATOM     31  C   UNL     1      -2.548  11.431  18.830  0.00  0.00    +0.000 A 
ATOM     32  C   UNL     1      -1.728  11.660  19.911  0.00  0.00    +0.000 A 
ATOM     33  C   UNL     1      -0.471  11.097  20.008  0.00  0.00    +0.000 A 
ATOM     34  O   UNL     1      -2.300  12.489  20.827  0.00  0.00    +0.000 OA
ATOM     35  C   UNL     1      -3.558  12.780  20.179  0.00  0.00    +0.000 C 
ATOM     36  O   UNL     1      -3.735  12.086  18.927  0.00  0.00    +0.000 OA
ENDBRANCH  27  28
ENDBRANCH  25  27
ENDBRANCH  22  24
ENDBRANCH   1  22
BRANCH  12  37
ATOM     37  C   UNL     1       2.328   2.945  18.035  0.00  0.00    +0.000 C 
BRANCH  37  38
ATOM     38  O   UNL     1       1.764   1.706  18.451  0.00  0.00    +0.000 OA
ATOM     39  H   UNL     1       1.706   1.127  17.671  0.00  0.00    +0.000 HD
ENDBRANCH  37  38
ENDBRANCH  12  37
TORSDOF 8
ENDMDL
MODEL 2
REMARK VINA RESULT:      -8.4      0.715      1.332
REMARK  Name = 
REMARK  8 active torsions:
REMARK  status: ('A' for Active; 'I' for Inactive)
REMARK    1  A    between atoms: C_2  and  C_3
REMARK    2  A    between atoms: C_3  and  C_4
REMARK    3  A    between atoms: C_9  and  N_10
REMARK    4  A    between atoms: C_11  and  C_13
REMARK    5  A    between atoms: C_22  and  C_23
REMARK    6  A    between atoms: C_23  and  O_24
REMARK    7  A    between atoms: N_26  and  C_27
REMARK    8  A    between atoms: C_27  and  C_28
REMARK                            x       y       z     vdW  Elec       q    Type
REMARK                         _______ _______ _______ _____ _____    ______ ____
ROOT
ATOM      1  C   UNL     1       2.121   5.652  19.750  0.00  0.00    +0.000 C 
ATOM      2  C   UNL     1       3.360   6.465  19.402  0.00  0.00    +0.000 C 
ATOM      3  C   UNL     1       4.150   5.749  18.309  0.00  0.00    +0.000 C 
ATOM      4  C   UNL     1       5.566   6.188  18.294  0.00  0.00    +0.000 A 
ATOM      5  C   UNL     1       6.103   7.366  17.815  0.00  0.00    +0.000 A 
ATOM      6  C   UNL     1       7.474   7.597  17.952  0.00  0.00    +0.000 A 
ATOM      7  C   UNL     1       8.274   6.614  18.580  0.00  0.00    +0.000 A 
ATOM      8  C   UNL     1       7.711   5.430  19.082  0.00  0.00    +0.000 A 
ATOM      9  C   UNL     1       6.356   5.238  18.914  0.00  0.00    +0.000 A 
ATOM     10  O   UNL     1       5.636   4.152  19.352  0.00  0.00    +0.000 OA
ATOM     11  C   UNL     1       4.396   4.256  18.587  0.00  0.00    +0.000 C 
ATOM     12  C   UNL     1       3.238   3.556  19.314  0.00  0.00    +0.000 C 
ATOM     13  O   UNL     1       2.580   4.400  20.281  0.00  0.00    +0.000 OA
ENDROOT
BRANCH   6  14
ATOM     14  N   UNL     1       8.098   8.786  17.483  0.00  0.00    +0.000 N 
ATOM     15  C   UNL     1       8.744   9.734  18.257  0.00  0.00    +0.000 C 
ATOM     16  O   UNL     1       8.885   9.663  19.478  0.00  0.00    +0.000 OA
ATOM     17  H   UNL     1       8.054   8.952  16.485  0.00  0.00    +0.000 HD
BRANCH  15  18
ATOM     18  C   UNL     1       9.297  10.954  17.502  0.00  0.00    +0.000 C 
ATOM     19  C   UNL     1       8.781  12.342  17.999  0.00  0.00    +0.000 C 
ATOM     20  C   UNL     1      10.144  12.920  17.595  0.00  0.00    +0.000 C 
ATOM     21  C   UNL     1      10.720  11.500  17.788  0.00  0.00    +0.000 C 
ENDBRANCH  15  18
ENDBRANCH   6  14
BRANCH   1  22
ATOM     22  C   UNL     1       1.260   6.375  20.785  0.00  0.00    +0.000 C 
BRANCH  22  24
ATOM     23  O   UNL     1       1.623   8.605  21.606  0.00  0.00    +0.000 OA
ATOM     24  C   UNL     1       1.376   7.880  20.649  0.00  0.00    +0.000 C 
ATOM     25  N   UNL     1       1.130   8.336  19.379  0.00  0.00    +0.000 N 
ATOM     26  H   UNL     1       1.107   7.641  18.637  0.00  0.00    +0.000 HD
BRANCH  25  27
ATOM     27  C   UNL     1       1.225   9.726  19.002  0.00  0.00    +0.000 C 
BRANCH  27  28
ATOM     28  C   UNL     1      -0.150  10.316  18.804  0.00  0.00    +0.000 A 
ATOM     29  C   UNL     1      -0.624  11.301  19.705  0.00  0.00    +0.000 A 
ATOM     30  C   UNL     1      -1.898  11.858  19.565  0.00  0.00    +0.000 A 
ATOM     31  C   UNL     1      -2.676  11.415  18.519  0.00  0.00    +0.000 A 
ATOM     32  C   UNL     1      -2.222  10.471  17.629  0.00  0.00    +0.000 A 
ATOM     33  C   UNL     1      -0.967   9.906  17.738  0.00  0.00    +0.000 A 
ATOM     34  O   UNL     1      -3.144  10.177  16.671  0.00  0.00    +0.000 OA
ATOM     35  C   UNL     1      -4.241  11.020  17.085  0.00  0.00    +0.000 C 
ATOM     36  O   UNL     1      -3.939  11.833  18.238  0.00  0.00    +0.000 OA
ENDBRANCH  27  28
ENDBRANCH  25  27
ENDBRANCH  22  24
ENDBRANCH   1  22
BRANCH  12  37
ATOM     37  C   UNL     1       2.227   2.974  18.301  0.00  0.00    +0.000 C 
BRANCH  37  38
ATOM     38  O   UNL     1       2.839   2.036  17.423  0.00  0.00    +0.000 OA
ATOM     39  H   UNL     1       3.514   1.550  17.929  0.00  0.00    +0.000 HD
ENDBRANCH  37  38
ENDBRANCH  12  37
TORSDOF 8
ENDMDL
MODEL 3
REMARK VINA RESULT:      -8.4      3.572      6.969
REMARK  Name = 
REMARK  8 active torsions:
REMARK  status: ('A' for Active; 'I' for Inactive)
REMARK    1  A    between atoms: C_2  and  C_3
REMARK    2  A    between atoms: C_3  and  C_4
REMARK    3  A    between atoms: C_9  and  N_10
REMARK    4  A    between atoms: C_11  and  C_13
REMARK    5  A    between atoms: C_22  and  C_23
REMARK    6  A    between atoms: C_23  and  O_24
REMARK    7  A    between atoms: N_26  and  C_27
REMARK    8  A    between atoms: C_27  and  C_28
REMARK                            x       y       z     vdW  Elec       q    Type
REMARK                         _______ _______ _______ _____ _____    ______ ____
ROOT
ATOM      1  C   UNL     1       1.040  12.701  18.563  0.00  0.00    +0.000 C 
ATOM      2  C   UNL     1       1.863  11.429  18.423  0.00  0.00    +0.000 C 
ATOM      3  C   UNL     1       0.931  10.237  18.219  0.00  0.00    +0.000 C 
ATOM      4  C   UNL     1       1.597   8.964  18.585  0.00  0.00    +0.000 A 
ATOM      5  C   UNL     1       2.549   8.251  17.884  0.00  0.00    +0.000 A 
ATOM      6  C   UNL     1       3.085   7.091  18.448  0.00  0.00    +0.000 A 
ATOM      7  C   UNL     1       2.636   6.679  19.724  0.00  0.00    +0.000 A 
ATOM      8  C   UNL     1       1.683   7.426  20.436  0.00  0.00    +0.000 A 
ATOM      9  C   UNL     1       1.172   8.557  19.836  0.00  0.00    +0.000 A 
ATOM     10  O   UNL     1       0.247   9.413  20.387  0.00  0.00    +0.000 OA
ATOM     11  C   UNL     1      -0.228  10.166  19.229  0.00  0.00    +0.000 C 
ATOM     12  C   UNL     1      -0.777  11.538  19.649  0.00  0.00    +0.000 C 
ATOM     13  O   UNL     1       0.243  12.552  19.749  0.00  0.00    +0.000 OA
ENDROOT
BRANCH   6  14
ATOM     14  N   UNL     1       4.069   6.305  17.785  0.00  0.00    +0.000 N 
ATOM     15  C   UNL     1       3.906   5.017  17.309  0.00  0.00    +0.000 C 
ATOM     16  O   UNL     1       2.860   4.371  17.379  0.00  0.00    +0.000 OA
ATOM     17  H   UNL     1       4.977   6.736  17.661  0.00  0.00    +0.000 HD
BRANCH  15  18
ATOM     18  C   UNL     1       5.148   4.375  16.669  0.00  0.00    +0.000 C 
ATOM     19  C   UNL     1       5.507   4.889  15.238  0.00  0.00    +0.000 C 
ATOM     20  C   UNL     1       6.981   4.639  15.590  0.00  0.00    +0.000 C 
ATOM     21  C   UNL     1       6.579   4.815  17.071  0.00  0.00    +0.000 C 
ENDBRANCH  15  18
ENDBRANCH   6  14
BRANCH   1  22
ATOM     22  C   UNL     1       1.940  13.929  18.689  0.00  0.00    +0.000 C 
BRANCH  22  24
ATOM     23  O   UNL     1       2.836  14.113  20.913  0.00  0.00    +0.000 OA
ATOM     24  C   UNL     1       1.970  14.450  20.113  0.00  0.00    +0.000 C 
ATOM     25  N   UNL     1       0.919  15.278  20.416  0.00  0.00    +0.000 N 
ATOM     26  H   UNL     1       0.365  15.622  19.636  0.00  0.00    +0.000 HD
BRANCH  25  27
ATOM     27  C   UNL     1       0.763  15.927  21.696  0.00  0.00    +0.000 C 
BRANCH  27  28
ATOM     28  C   UNL     1      -0.383  15.314  22.463  0.00  0.00    +0.000 A 
ATOM     29  C   UNL     1      -0.518  15.578  23.848  0.00  0.00    +0.000 A 
ATOM     30  C   UNL     1      -1.555  15.015  24.596  0.00  0.00    +0.000 A 
ATOM     31  C   UNL     1      -2.443  14.194  23.938  0.00  0.00    +0.000 A 
ATOM     32  C   UNL     1      -2.332  13.941  22.591  0.00  0.00    +0.000 A 
ATOM     33  C   UNL     1      -1.321  14.486  21.825  0.00  0.00    +0.000 A 
ATOM     34  O   UNL     1      -3.309  13.109  22.138  0.00  0.00    +0.000 OA
ATOM     35  C   UNL     1      -4.025  12.842  23.364  0.00  0.00    +0.000 C 
ATOM     36  O   UNL     1      -3.500  13.553  24.504  0.00  0.00    +0.000 OA
ENDBRANCH  27  28
ENDBRANCH  25  27
ENDBRANCH  22  24
ENDBRANCH   1  22
BRANCH  12  37
ATOM     37  C   UNL     1      -1.917  11.983  18.706  0.00  0.00    +0.000 C 
BRANCH  37  38
ATOM     38  O   UNL     1      -3.007  12.550  19.426  0.00  0.00    +0.000 OA
ATOM     39  H   UNL     1      -3.180  13.434  19.057  0.00  0.00    +0.000 HD
ENDBRANCH  37  38
ENDBRANCH  12  37
TORSDOF 8
ENDMDL
MODEL 4
REMARK VINA RESULT:      -8.4      3.676      6.886
REMARK  Name = 
REMARK  8 active torsions:
REMARK  status: ('A' for Active; 'I' for Inactive)
REMARK    1  A    between atoms: C_2  and  C_3
REMARK    2  A    between atoms: C_3  and  C_4
REMARK    3  A    between atoms: C_9  and  N_10
REMARK    4  A    between atoms: C_11  and  C_13
REMARK    5  A    between atoms: C_22  and  C_23
REMARK    6  A    between atoms: C_23  and  O_24
REMARK    7  A    between atoms: N_26  and  C_27
REMARK    8  A    between atoms: C_27  and  C_28
REMARK                            x       y       z     vdW  Elec       q    Type
REMARK                         _______ _______ _______ _____ _____    ______ ____
ROOT
ATOM      1  C   UNL     1       1.157  12.526  18.580  0.00  0.00    +0.000 C 
ATOM      2  C   UNL     1       1.981  11.267  18.355  0.00  0.00    +0.000 C 
ATOM      3  C   UNL     1       1.049  10.066  18.207  0.00  0.00    +0.000 C 
ATOM      4  C   UNL     1       1.756   8.797  18.499  0.00  0.00    +0.000 A 
ATOM      5  C   UNL     1       2.657   8.106  17.714  0.00  0.00    +0.000 A 
ATOM      6  C   UNL     1       3.250   6.945  18.215  0.00  0.00    +0.000 A 
ATOM      7  C   UNL     1       2.909   6.509  19.516  0.00  0.00    +0.000 A 
ATOM      8  C   UNL     1       2.007   7.233  20.313  0.00  0.00    +0.000 A 
ATOM      9  C   UNL     1       1.437   8.366  19.774  0.00  0.00    +0.000 A 
ATOM     10  O   UNL     1       0.549   9.202  20.409  0.00  0.00    +0.000 OA
ATOM     11  C   UNL     1      -0.025   9.966  19.305  0.00  0.00    +0.000 C 
ATOM     12  C   UNL     1      -0.555  11.324  19.788  0.00  0.00    +0.000 C 
ATOM     13  O   UNL     1       0.458  12.350  19.822  0.00  0.00    +0.000 OA
ENDROOT
BRANCH   6  14
ATOM     14  N   UNL     1       4.187   6.181  17.464  0.00  0.00    +0.000 N 
ATOM     15  C   UNL     1       4.049   4.860  17.081  0.00  0.00    +0.000 C 
ATOM     16  O   UNL     1       3.066   4.159  17.325  0.00  0.00    +0.000 OA
ATOM     17  H   UNL     1       5.040   6.658  17.196  0.00  0.00    +0.000 HD
BRANCH  15  18
ATOM     18  C   UNL     1       5.234   4.256  16.309  0.00  0.00    +0.000 C 
ATOM     19  C   UNL     1       5.492   4.862  14.893  0.00  0.00    +0.000 C 
ATOM     20  C   UNL     1       6.984   4.583  15.117  0.00  0.00    +0.000 C 
ATOM     21  C   UNL     1       6.695   4.663  16.632  0.00  0.00    +0.000 C 
ENDBRANCH  15  18
ENDBRANCH   6  14
BRANCH   1  22
ATOM     22  C   UNL     1       2.049  13.764  18.653  0.00  0.00    +0.000 C 
BRANCH  22  24
ATOM     23  O   UNL     1       0.833  15.835  18.749  0.00  0.00    +0.000 OA
ATOM     24  C   UNL     1       1.352  14.909  19.362  0.00  0.00    +0.000 C 
ATOM     25  N   UNL     1       1.410  14.824  20.729  0.00  0.00    +0.000 N 
ATOM     26  H   UNL     1       1.710  13.935  21.122  0.00  0.00    +0.000 HD
BRANCH  25  27
ATOM     27  C   UNL     1       0.780  15.776  21.612  0.00  0.00    +0.000 C 
BRANCH  27  28
ATOM     28  C   UNL     1      -0.529  15.232  22.128  0.00  0.00    +0.000 A 
ATOM     29  C   UNL     1      -0.570  13.938  22.705  0.00  0.00    +0.000 A 
ATOM     30  C   UNL     1      -1.766  13.393  23.178  0.00  0.00    +0.000 A 
ATOM     31  C   UNL     1      -2.905  14.159  23.065  0.00  0.00    +0.000 A 
ATOM     32  C   UNL     1      -2.876  15.422  22.521  0.00  0.00    +0.000 A 
ATOM     33  C   UNL     1      -1.709  15.989  22.049  0.00  0.00    +0.000 A 
ATOM     34  O   UNL     1      -4.106  16.006  22.506  0.00  0.00    +0.000 OA
ATOM     35  C   UNL     1      -4.913  14.950  23.071  0.00  0.00    +0.000 C 
ATOM     36  O   UNL     1      -4.153  13.788  23.457  0.00  0.00    +0.000 OA
ENDBRANCH  27  28
ENDBRANCH  25  27
ENDBRANCH  22  24
ENDBRANCH   1  22
BRANCH  12  37
ATOM     37  C   UNL     1      -1.772  11.769  18.946  0.00  0.00    +0.000 C 
BRANCH  37  38
ATOM     38  O   UNL     1      -2.270  13.034  19.366  0.00  0.00    +0.000 OA
ATOM     39  H   UNL     1      -2.926  12.878  20.068  0.00  0.00    +0.000 HD
ENDBRANCH  37  38
ENDBRANCH  12  37
TORSDOF 8
ENDMDL
MODEL 5
REMARK VINA RESULT:      -8.2      3.588      6.803
REMARK  Name = 
REMARK  8 active torsions:
REMARK  status: ('A' for Active; 'I' for Inactive)
REMARK    1  A    between atoms: C_2  and  C_3
REMARK    2  A    between atoms: C_3  and  C_4
REMARK    3  A    between atoms: C_9  and  N_10
REMARK    4  A    between atoms: C_11  and  C_13
REMARK    5  A    between atoms: C_22  and  C_23
REMARK    6  A    between atoms: C_23  and  O_24
REMARK    7  A    between atoms: N_26  and  C_27
REMARK    8  A    between atoms: C_27  and  C_28
REMARK                            x       y       z     vdW  Elec       q    Type
REMARK                         _______ _______ _______ _____ _____    ______ ____
ROOT
ATOM      1  C   UNL     1       0.992  12.654  18.916  0.00  0.00    +0.000 C 
ATOM      2  C   UNL     1       1.807  11.423  18.547  0.00  0.00    +0.000 C 
ATOM      3  C   UNL     1       0.878  10.221  18.394  0.00  0.00    +0.000 C 
ATOM      4  C   UNL     1       1.618   8.946  18.547  0.00  0.00    +0.000 A 
ATOM      5  C   UNL     1       2.461   8.321  17.651  0.00  0.00    +0.000 A 
ATOM      6  C   UNL     1       3.102   7.138  18.028  0.00  0.00    +0.000 A 
ATOM      7  C   UNL     1       2.868   6.614  19.320  0.00  0.00    +0.000 A 
ATOM      8  C   UNL     1       2.024   7.273  20.230  0.00  0.00    +0.000 A 
ATOM      9  C   UNL     1       1.403   8.430  19.812  0.00  0.00    +0.000 A 
ATOM     10  O   UNL     1       0.560   9.211  20.567  0.00  0.00    +0.000 OA
ATOM     11  C   UNL     1      -0.106  10.035  19.562  0.00  0.00    +0.000 C 
ATOM     12  C   UNL     1      -0.609  11.352  20.173  0.00  0.00    +0.000 C 
ATOM     13  O   UNL     1       0.394  12.388  20.195  0.00  0.00    +0.000 OA
ENDROOT
BRANCH   6  14
ATOM     14  N   UNL     1       3.985   6.438  17.159  0.00  0.00    +0.000 N 
ATOM     15  C   UNL     1       5.339   6.670  17.004  0.00  0.00    +0.000 C 
ATOM     16  O   UNL     1       5.980   7.519  17.625  0.00  0.00    +0.000 OA
ATOM     17  H   UNL     1       3.570   5.704  16.596  0.00  0.00    +0.000 HD
BRANCH  15  18
ATOM     18  C   UNL     1       6.056   5.796  15.961  0.00  0.00    +0.000 C 
ATOM     19  C   UNL     1       6.902   4.618  16.540  0.00  0.00    +0.000 C 
ATOM     20  C   UNL     1       6.555   3.830  15.269  0.00  0.00    +0.000 C 
ATOM     21  C   UNL     1       5.292   4.712  15.158  0.00  0.00    +0.000 C 
ENDBRANCH  15  18
ENDBRANCH   6  14
BRANCH   1  22
ATOM     22  C   UNL     1       1.876  13.897  19.001  0.00  0.00    +0.000 C 
BRANCH  22  24
ATOM     23  O   UNL     1       0.610  15.898  19.419  0.00  0.00    +0.000 OA
ATOM     24  C   UNL     1       1.252  14.962  19.882  0.00  0.00    +0.000 C 
ATOM     25  N   UNL     1       1.523  14.795  21.217  0.00  0.00    +0.000 N 
ATOM     26  H   UNL     1       1.913  13.900  21.499  0.00  0.00    +0.000 HD
BRANCH  25  27
ATOM     27  C   UNL     1       0.999  15.661  22.247  0.00  0.00    +0.000 C 
BRANCH  27  28
ATOM     28  C   UNL     1      -0.383  15.217  22.657  0.00  0.00    +0.000 A 
ATOM     29  C   UNL     1      -1.400  16.185  22.850  0.00  0.00    +0.000 A 
ATOM     30  C   UNL     1      -2.687  15.815  23.248  0.00  0.00    +0.000 A 
ATOM     31  C   UNL     1      -2.933  14.475  23.445  0.00  0.00    +0.000 A 
ATOM     32  C   UNL     1      -1.960  13.524  23.247  0.00  0.00    +0.000 A 
ATOM     33  C   UNL     1      -0.680  13.858  22.850  0.00  0.00    +0.000 A 
ATOM     34  O   UNL     1      -2.411  12.263  23.493  0.00  0.00    +0.000 OA
ATOM     35  C   UNL     1      -3.768  12.538  23.902  0.00  0.00    +0.000 C 
ATOM     36  O   UNL     1      -4.116  13.935  23.843  0.00  0.00    +0.000 OA
ENDBRANCH  27  28
ENDBRANCH  25  27
ENDBRANCH  22  24
ENDBRANCH   1  22
BRANCH  12  37
ATOM     37  C   UNL     1      -1.892  11.832  19.458  0.00  0.00    +0.000 C 
BRANCH  37  38
ATOM     38  O   UNL     1      -2.861  12.316  20.382  0.00  0.00    +0.000 OA
ATOM     39  H   UNL     1      -3.289  13.095  19.984  0.00  0.00    +0.000 HD
ENDBRANCH  37  38
ENDBRANCH  12  37
TORSDOF 8
ENDMDL
MODEL 6
REMARK VINA RESULT:      -8.2      3.546      6.404
REMARK  Name = 
REMARK  8 active torsions:
REMARK  status: ('A' for Active; 'I' for Inactive)
REMARK    1  A    between atoms: C_2  and  C_3
REMARK    2  A    between atoms: C_3  and  C_4
REMARK    3  A    between atoms: C_9  and  N_10
REMARK    4  A    between atoms: C_11  and  C_13
REMARK    5  A    between atoms: C_22  and  C_23
REMARK    6  A    between atoms: C_23  and  O_24
REMARK    7  A    between atoms: N_26  and  C_27
REMARK    8  A    between atoms: C_27  and  C_28
REMARK                            x       y       z     vdW  Elec       q    Type
REMARK                         _______ _______ _______ _____ _____    ______ ____
ROOT
ATOM      1  C   UNL     1       1.541  12.221  18.519  0.00  0.00    +0.000 C 
ATOM      2  C   UNL     1       2.307  10.937  18.236  0.00  0.00    +0.000 C 
ATOM      3  C   UNL     1       1.326   9.773  18.113  0.00  0.00    +0.000 C 
ATOM      4  C   UNL     1       1.999   8.474  18.352  0.00  0.00    +0.000 A 
ATOM      5  C   UNL     1       2.838   7.765  17.516  0.00  0.00    +0.000 A 
ATOM      6  C   UNL     1       3.410   6.575  17.971  0.00  0.00    +0.000 A 
ATOM      7  C   UNL     1       3.112   6.129  19.279  0.00  0.00    +0.000 A 
ATOM      8  C   UNL     1       2.274   6.871  20.128  0.00  0.00    +0.000 A 
ATOM      9  C   UNL     1       1.722   8.034  19.633  0.00  0.00    +0.000 A 
ATOM     10  O   UNL     1       0.896   8.890  20.322  0.00  0.00    +0.000 OA
ATOM     11  C   UNL     1       0.300   9.692  19.257  0.00  0.00    +0.000 C 
ATOM     12  C   UNL     1      -0.157  11.061  19.785  0.00  0.00    +0.000 C 
ATOM     13  O   UNL     1       0.894  12.049  19.789  0.00  0.00    +0.000 OA
ENDROOT
BRANCH   6  14
ATOM     14  N   UNL     1       4.283   5.791  17.166  0.00  0.00    +0.000 N 
ATOM     15  C   UNL     1       5.665   5.844  17.163  0.00  0.00    +0.000 C 
ATOM     16  O   UNL     1       6.339   6.579  17.887  0.00  0.00    +0.000 OA
ATOM     17  H   UNL     1       3.840   5.139  16.530  0.00  0.00    +0.000 HD
BRANCH  15  18
ATOM     18  C   UNL     1       6.371   4.916  16.161  0.00  0.00    +0.000 C 
ATOM     19  C   UNL     1       5.513   3.726  15.628  0.00  0.00    +0.000 C 
ATOM     20  C   UNL     1       6.291   3.841  14.310  0.00  0.00    +0.000 C 
ATOM     21  C   UNL     1       6.543   5.320  14.673  0.00  0.00    +0.000 C 
ENDBRANCH  15  18
ENDBRANCH   6  14
BRANCH   1  22
ATOM     22  C   UNL     1       2.481  13.424  18.570  0.00  0.00    +0.000 C 
BRANCH  22  24
ATOM     23  O   UNL     1       2.878  14.649  20.601  0.00  0.00    +0.000 OA
ATOM     24  C   UNL     1       2.104  14.374  19.690  0.00  0.00    +0.000 C 
ATOM     25  N   UNL     1       0.817  14.840  19.604  0.00  0.00    +0.000 N 
ATOM     26  H   UNL     1       0.330  14.685  18.725  0.00  0.00    +0.000 HD
BRANCH  25  27
ATOM     27  C   UNL     1       0.252  15.788  20.534  0.00  0.00    +0.000 C 
BRANCH  27  28
ATOM     28  C   UNL     1      -0.725  15.105  21.458  0.00  0.00    +0.000 A 
ATOM     29  C   UNL     1      -0.409  14.970  22.833  0.00  0.00    +0.000 A 
ATOM     30  C   UNL     1      -1.280  14.327  23.717  0.00  0.00    +0.000 A 
ATOM     31  C   UNL     1      -2.457  13.830  23.205  0.00  0.00    +0.000 A 
ATOM     32  C   UNL     1      -2.782  13.967  21.875  0.00  0.00    +0.000 A 
ATOM     33  C   UNL     1      -1.945  14.601  20.979  0.00  0.00    +0.000 A 
ATOM     34  O   UNL     1      -3.987  13.409  21.578  0.00  0.00    +0.000 OA
ATOM     35  C   UNL     1      -4.364  12.876  22.866  0.00  0.00    +0.000 C 
ATOM     36  O   UNL     1      -3.413  13.168  23.910  0.00  0.00    +0.000 OA
ENDBRANCH  27  28
ENDBRANCH  25  27
ENDBRANCH  22  24
ENDBRANCH   1  22
BRANCH  12  37
ATOM     37  C   UNL     1      -1.393  11.563  19.007  0.00  0.00    +0.000 C 
BRANCH  37  38
ATOM     38  O   UNL     1      -2.013  10.516  18.268  0.00  0.00    +0.000 OA
ATOM     39  H   UNL     1      -2.791  10.890  17.818  0.00  0.00    +0.000 HD
ENDBRANCH  37  38
ENDBRANCH  12  37
TORSDOF 8
ENDMDL
MODEL 7
REMARK VINA RESULT:      -8.1      3.676      6.777
REMARK  Name = 
REMARK  8 active torsions:
REMARK  status: ('A' for Active; 'I' for Inactive)
REMARK    1  A    between atoms: C_2  and  C_3
REMARK    2  A    between atoms: C_3  and  C_4
REMARK    3  A    between atoms: C_9  and  N_10
REMARK    4  A    between atoms: C_11  and  C_13
REMARK    5  A    between atoms: C_22  and  C_23
REMARK    6  A    between atoms: C_23  and  O_24
REMARK    7  A    between atoms: N_26  and  C_27
REMARK    8  A    between atoms: C_27  and  C_28
REMARK                            x       y       z     vdW  Elec       q    Type
REMARK                         _______ _______ _______ _____ _____    ______ ____
ROOT
ATOM      1  C   UNL     1       1.574  12.404  18.453  0.00  0.00    +0.000 C 
ATOM      2  C   UNL     1       2.219  11.042  18.244  0.00  0.00    +0.000 C 
ATOM      3  C   UNL     1       1.144   9.957  18.283  0.00  0.00    +0.000 C 
ATOM      4  C   UNL     1       1.729   8.632  18.599  0.00  0.00    +0.000 A 
ATOM      5  C   UNL     1       2.455   7.787  17.784  0.00  0.00    +0.000 A 
ATOM      6  C   UNL     1       2.961   6.597  18.310  0.00  0.00    +0.000 A 
ATOM      7  C   UNL     1       2.715   6.291  19.669  0.00  0.00    +0.000 A 
ATOM      8  C   UNL     1       1.994   7.169  20.494  0.00  0.00    +0.000 A 
ATOM      9  C   UNL     1       1.503   8.327  19.929  0.00  0.00    +0.000 A 
ATOM     10  O   UNL     1       0.791   9.304  20.584  0.00  0.00    +0.000 OA
ATOM     11  C   UNL     1       0.192  10.059  19.487  0.00  0.00    +0.000 C 
ATOM     12  C   UNL     1      -0.123  11.501  19.915  0.00  0.00    +0.000 C 
ATOM     13  O   UNL     1       0.999  12.395  19.769  0.00  0.00    +0.000 OA
ENDROOT
BRANCH   6  14
ATOM     14  N   UNL     1       3.718   5.678  17.531  0.00  0.00    +0.000 N 
ATOM     15  C   UNL     1       4.999   5.872  17.048  0.00  0.00    +0.000 C 
ATOM     16  O   UNL     1       5.678   6.879  17.250  0.00  0.00    +0.000 OA
ATOM     17  H   UNL     1       3.262   4.802  17.305  0.00  0.00    +0.000 HD
BRANCH  15  18
ATOM     18  C   UNL     1       5.574   4.732  16.191  0.00  0.00    +0.000 C 
ATOM     19  C   UNL     1       5.229   4.796  14.669  0.00  0.00    +0.000 C 
ATOM     20  C   UNL     1       6.588   4.136  14.400  0.00  0.00    +0.000 C 
ATOM     21  C   UNL     1       7.059   4.730  15.746  0.00  0.00    +0.000 C 
ENDBRANCH  15  18
ENDBRANCH   6  14
BRANCH   1  22
ATOM     22  C   UNL     1       2.605  13.526  18.341  0.00  0.00    +0.000 C 
BRANCH  22  24
ATOM     23  O   UNL     1       2.950  15.352  19.867  0.00  0.00    +0.000 OA
ATOM     24  C   UNL     1       2.179  14.750  19.127  0.00  0.00    +0.000 C 
ATOM     25  N   UNL     1       0.856  15.073  18.964  0.00  0.00    +0.000 N 
ATOM     26  H   UNL     1       0.362  14.616  18.202  0.00  0.00    +0.000 HD
BRANCH  25  27
ATOM     27  C   UNL     1       0.238  16.224  19.578  0.00  0.00    +0.000 C 
BRANCH  27  28
ATOM     28  C   UNL     1      -0.675  15.797  20.701  0.00  0.00    +0.000 A 
ATOM     29  C   UNL     1      -0.159  15.008  21.760  0.00  0.00    +0.000 A 
ATOM     30  C   UNL     1      -0.977  14.578  22.808  0.00  0.00    +0.000 A 
ATOM     31  C   UNL     1      -2.302  14.949  22.777  0.00  0.00    +0.000 A 
ATOM     32  C   UNL     1      -2.812  15.726  21.763  0.00  0.00    +0.000 A 
ATOM     33  C   UNL     1      -2.028  16.170  20.716  0.00  0.00    +0.000 A 
ATOM     34  O   UNL     1      -4.140  15.980  21.924  0.00  0.00    +0.000 OA
ATOM     35  C   UNL     1      -4.410  15.243  23.136  0.00  0.00    +0.000 C 
ATOM     36  O   UNL     1      -3.242  14.613  23.700  0.00  0.00    +0.000 OA
ENDBRANCH  27  28
ENDBRANCH  25  27
ENDBRANCH  22  24
ENDBRANCH   1  22
BRANCH  12  37
ATOM     37  C   UNL     1      -1.365  12.035  19.167  0.00  0.00    +0.000 C 
BRANCH  37  38
ATOM     38  O   UNL     1      -2.285  12.662  20.054  0.00  0.00    +0.000 OA
ATOM     39  H   UNL     1      -2.918  13.170  19.515  0.00  0.00    +0.000 HD
ENDBRANCH  37  38
ENDBRANCH  12  37
TORSDOF 8
ENDMDL
MODEL 8
REMARK VINA RESULT:      -8.1      4.084      8.321
REMARK  Name = 
REMARK  8 active torsions:
REMARK  status: ('A' for Active; 'I' for Inactive)
REMARK    1  A    between atoms: C_2  and  C_3
REMARK    2  A    between atoms: C_3  and  C_4
REMARK    3  A    between atoms: C_9  and  N_10
REMARK    4  A    between atoms: C_11  and  C_13
REMARK    5  A    between atoms: C_22  and  C_23
REMARK    6  A    between atoms: C_23  and  O_24
REMARK    7  A    between atoms: N_26  and  C_27
REMARK    8  A    between atoms: C_27  and  C_28
REMARK                            x       y       z     vdW  Elec       q    Type
REMARK                         _______ _______ _______ _____ _____    ______ ____
ROOT
ATOM      1  C   UNL     1       1.675  12.787  18.464  0.00  0.00    +0.000 C 
ATOM      2  C   UNL     1       2.237  11.384  18.286  0.00  0.00    +0.000 C 
ATOM      3  C   UNL     1       1.096  10.369  18.315  0.00  0.00    +0.000 C 
ATOM      4  C   UNL     1       1.590   9.014  18.659  0.00  0.00    +0.000 A 
ATOM      5  C   UNL     1       2.277   8.115  17.870  0.00  0.00    +0.000 A 
ATOM      6  C   UNL     1       2.697   6.903  18.422  0.00  0.00    +0.000 A 
ATOM      7  C   UNL     1       2.404   6.631  19.778  0.00  0.00    +0.000 A 
ATOM      8  C   UNL     1       1.723   7.564  20.577  0.00  0.00    +0.000 A 
ATOM      9  C   UNL     1       1.317   8.742  19.988  0.00  0.00    +0.000 A 
ATOM     10  O   UNL     1       0.655   9.771  20.615  0.00  0.00    +0.000 OA
ATOM     11  C   UNL     1       0.127  10.547  19.497  0.00  0.00    +0.000 C 
ATOM     12  C   UNL     1      -0.105  12.011  19.900  0.00  0.00    +0.000 C 
ATOM     13  O   UNL     1       1.074  12.831  19.767  0.00  0.00    +0.000 OA
ENDROOT
BRANCH   6  14
ATOM     14  N   UNL     1       3.410   5.928  17.669  0.00  0.00    +0.000 N 
ATOM     15  C   UNL     1       4.689   6.058  17.161  0.00  0.00    +0.000 C 
ATOM     16  O   UNL     1       5.404   7.049  17.310  0.00  0.00    +0.000 OA
ATOM     17  H   UNL     1       2.922   5.059  17.487  0.00  0.00    +0.000 HD
BRANCH  15  18
ATOM     18  C   UNL     1       5.212   4.865  16.343  0.00  0.00    +0.000 C 
ATOM     19  C   UNL     1       5.439   5.141  14.823  0.00  0.00    +0.000 C 
ATOM     20  C   UNL     1       6.592   4.129  14.878  0.00  0.00    +0.000 C 
ATOM     21  C   UNL     1       6.707   4.455  16.384  0.00  0.00    +0.000 C 
ENDBRANCH  15  18
ENDBRANCH   6  14
BRANCH   1  22
ATOM     22  C   UNL     1       2.777  13.840  18.361  0.00  0.00    +0.000 C 
BRANCH  22  24
ATOM     23  O   UNL     1       2.241  15.849  19.567  0.00  0.00    +0.000 OA
ATOM     24  C   UNL     1       2.788  14.752  19.572  0.00  0.00    +0.000 C 
ATOM     25  N   UNL     1       3.502  14.250  20.630  0.00  0.00    +0.000 N 
ATOM     26  H   UNL     1       3.763  13.269  20.584  0.00  0.00    +0.000 HD
BRANCH  25  27
ATOM     27  C   UNL     1       3.615  14.922  21.902  0.00  0.00    +0.000 C 
BRANCH  27  28
ATOM     28  C   UNL     1       4.942  14.609  22.549  0.00  0.00    +0.000 A 
ATOM     29  C   UNL     1       5.772  15.670  22.990  0.00  0.00    +0.000 A 
ATOM     30  C   UNL     1       7.015  15.421  23.577  0.00  0.00    +0.000 A 
ATOM     31  C   UNL     1       7.405  14.108  23.715  0.00  0.00    +0.000 A 
ATOM     32  C   UNL     1       6.602  13.069  23.305  0.00  0.00    +0.000 A 
ATOM     33  C   UNL     1       5.367  13.283  22.725  0.00  0.00    +0.000 A 
ATOM     34  O   UNL     1       7.172  11.854  23.533  0.00  0.00    +0.000 OA
ATOM     35  C   UNL     1       8.439  12.253  24.100  0.00  0.00    +0.000 C 
ATOM     36  O   UNL     1       8.579  13.680  24.248  0.00  0.00    +0.000 OA
ENDBRANCH  27  28
ENDBRANCH  25  27
ENDBRANCH  22  24
ENDBRANCH   1  22
BRANCH  12  37
ATOM     37  C   UNL     1      -1.295  12.612  19.120  0.00  0.00    +0.000 C 
BRANCH  37  38
ATOM     38  O   UNL     1      -1.474  13.994  19.412  0.00  0.00    +0.000 OA
ATOM     39  H   UNL     1      -2.029  14.378  18.710  0.00  0.00    +0.000 HD
ENDBRANCH  37  38
ENDBRANCH  12  37
TORSDOF 8
ENDMDL
MODEL 9
REMARK VINA RESULT:      -8.1      3.453      7.986
REMARK  Name = 
REMARK  8 active torsions:
REMARK  status: ('A' for Active; 'I' for Inactive)
REMARK    1  A    between atoms: C_2  and  C_3
REMARK    2  A    between atoms: C_3  and  C_4
REMARK    3  A    between atoms: C_9  and  N_10
REMARK    4  A    between atoms: C_11  and  C_13
REMARK    5  A    between atoms: C_22  and  C_23
REMARK    6  A    between atoms: C_23  and  O_24
REMARK    7  A    between atoms: N_26  and  C_27
REMARK    8  A    between atoms: C_27  and  C_28
REMARK                            x       y       z     vdW  Elec       q    Type
REMARK                         _______ _______ _______ _____ _____    ______ ____
ROOT
ATOM      1  C   UNL     1       0.727  10.852  18.893  0.00  0.00    +0.000 C 
ATOM      2  C   UNL     1       1.853  11.870  18.788  0.00  0.00    +0.000 C 
ATOM      3  C   UNL     1       1.613  13.001  19.785  0.00  0.00    +0.000 C 
ATOM      4  C   UNL     1       2.346  14.229  19.393  0.00  0.00    +0.000 A 
ATOM      5  C   UNL     1       3.693  14.508  19.505  0.00  0.00    +0.000 A 
ATOM      6  C   UNL     1       4.183  15.721  19.017  0.00  0.00    +0.000 A 
ATOM      7  C   UNL     1       3.281  16.632  18.419  0.00  0.00    +0.000 A 
ATOM      8  C   UNL     1       1.916  16.327  18.292  0.00  0.00    +0.000 A 
ATOM      9  C   UNL     1       1.475  15.123  18.799  0.00  0.00    +0.000 A 
ATOM     10  O   UNL     1       0.183  14.653  18.750  0.00  0.00    +0.000 OA
ATOM     11  C   UNL     1       0.190  13.584  19.745  0.00  0.00    +0.000 C 
ATOM     12  C   UNL     1      -0.903  12.546  19.448  0.00  0.00    +0.000 C 
ATOM     13  O   UNL     1      -0.483  11.529  18.516  0.00  0.00    +0.000 OA
ENDROOT
BRANCH   6  14
ATOM     14  N   UNL     1       5.558  16.078  19.098  0.00  0.00    +0.000 N 
ATOM     15  C   UNL     1       6.599  15.493  18.400  0.00  0.00    +0.000 C 
ATOM     16  O   UNL     1       6.470  14.581  17.583  0.00  0.00    +0.000 OA
ATOM     17  H   UNL     1       5.789  16.829  19.737  0.00  0.00    +0.000 HD
BRANCH  15  18
ATOM     18  C   UNL     1       8.003  16.041  18.705  0.00  0.00    +0.000 C 
ATOM     19  C   UNL     1       8.918  15.105  19.558  0.00  0.00    +0.000 C 
ATOM     20  C   UNL     1      10.115  15.686  18.791  0.00  0.00    +0.000 C 
ATOM     21  C   UNL     1       9.132  15.999  17.642  0.00  0.00    +0.000 C 
ENDBRANCH  15  18
ENDBRANCH   6  14
BRANCH   1  22
ATOM     22  C   UNL     1       0.971   9.662  17.966  0.00  0.00    +0.000 C 
BRANCH  22  24
ATOM     23  O   UNL     1       1.948   8.472  19.812  0.00  0.00    +0.000 OA
ATOM     24  C   UNL     1       1.903   8.648  18.599  0.00  0.00    +0.000 C 
ATOM     25  N   UNL     1       2.707   8.003  17.695  0.00  0.00    +0.000 N 
ATOM     26  H   UNL     1       2.465   8.102  16.712  0.00  0.00    +0.000 HD
BRANCH  25  27
ATOM     27  C   UNL     1       3.642   6.966  18.061  0.00  0.00    +0.000 C 
BRANCH  27  28
ATOM     28  C   UNL     1       2.911   5.764  18.606  0.00  0.00    +0.000 A 
ATOM     29  C   UNL     1       2.074   5.008  17.748  0.00  0.00    +0.000 A 
ATOM     30  C   UNL     1       1.366   3.899  18.219  0.00  0.00    +0.000 A 
ATOM     31  C   UNL     1       1.513   3.565  19.547  0.00  0.00    +0.000 A 
ATOM     32  C   UNL     1       2.335   4.282  20.386  0.00  0.00    +0.000 A 
ATOM     33  C   UNL     1       3.049   5.380  19.949  0.00  0.00    +0.000 A 
ATOM     34  O   UNL     1       2.339   3.786  21.654  0.00  0.00    +0.000 OA
ATOM     35  C   UNL     1       1.399   2.697  21.520  0.00  0.00    +0.000 C 
ATOM     36  O   UNL     1       0.896   2.532  20.179  0.00  0.00    +0.000 OA
ENDBRANCH  27  28
ENDBRANCH  25  27
ENDBRANCH  22  24
ENDBRANCH   1  22
BRANCH  12  37
ATOM     37  C   UNL     1      -1.433  11.919  20.757  0.00  0.00    +0.000 C 
BRANCH  37  38
ATOM     38  O   UNL     1      -0.860  12.533  21.906  0.00  0.00    +0.000 OA
ATOM     39  H   UNL     1      -1.486  12.426  22.645  0.00  0.00    +0.000 HD
ENDBRANCH  37  38
ENDBRANCH  12  37
TORSDOF 8
ENDMDL
