MODEL 1
REMARK VINA RESULT:      -7.9      0.000      0.000
REMARK  Name = 
REMARK  2 active torsions:
REMARK  status: ('A' for Active; 'I' for Inactive)
REMARK    1  A    between atoms: C_2  and  C_3
REMARK    2  A    between atoms: N_7  and  C_8
REMARK                            x       y       z     vdW  Elec       q    Type
REMARK                         _______ _______ _______ _____ _____    ______ ____
ROOT
ATOM      1  C   UNL     1       3.814   6.141  18.757  0.00  0.00    +0.000 C 
ATOM      2  C   UNL     1       3.453   5.748  17.325  0.00  0.00    +0.000 C 
ATOM      3  C   UNL     1       3.014   4.303  17.457  0.00  0.00    +0.000 C 
ATOM      4  O   UNL     1       2.434   3.696  16.572  0.00  0.00    +0.000 OA
ATOM      5  N   UNL     1       3.445   3.838  18.694  0.00  0.00    +0.000 N 
ATOM      6  C   UNL     1       4.279   4.818  19.334  0.00  0.00    +0.000 C 
ENDROOT
BRANCH   1   8
ATOM      7  O   UNL     1       2.170   6.058  20.505  0.00  0.00    +0.000 OA
ATOM      8  C   UNL     1       2.615   6.679  19.537  0.00  0.00    +0.000 C 
ATOM      9  N   UNL     1       2.116   7.898  19.108  0.00  0.00    +0.000 N 
ATOM     10  C   UNL     1       2.335   8.559  17.803  0.00  0.00    +0.000 C 
ATOM     11  C   UNL     1       2.008  10.040  18.009  0.00  0.00    +0.000 C 
ATOM     12  C   UNL     1       1.147   9.975  19.229  0.00  0.00    +0.000 A 
ATOM     13  C   UNL     1       0.413  11.005  19.796  0.00  0.00    +0.000 A 
ATOM     14  C   UNL     1      -0.251  10.757  20.999  0.00  0.00    +0.000 A 
ATOM     15  C   UNL     1      -0.161   9.501  21.617  0.00  0.00    +0.000 A 
ATOM     16  C   UNL     1       0.603   8.478  21.049  0.00  0.00    +0.000 A 
ATOM     17  C   UNL     1       1.250   8.728  19.850  0.00  0.00    +0.000 A 
ENDBRANCH   1   8
BRANCH   5  18
ATOM     18  C   UNL     1       3.238   2.536  19.347  0.00  0.00    +0.000 C 
ATOM     19  C   UNL     1       3.636   2.515  20.824  0.00  0.00    +0.000 C 
ATOM     20  C   UNL     1       2.588   3.103  21.757  0.00  0.00    +0.000 C 
ATOM     21  C   UNL     1       1.171   2.606  21.471  0.00  0.00    +0.000 C 
ATOM     22  C   UNL     1       0.779   2.555  19.996  0.00  0.00    +0.000 C 
ATOM     23  C   UNL     1       1.854   1.936  19.117  0.00  0.00    +0.000 C 
ENDBRANCH   5  18
TORSDOF 2
ENDMDL
MODEL 2
REMARK VINA RESULT:      -7.4      1.195      1.895
REMARK  Name = 
REMARK  2 active torsions:
REMARK  status: ('A' for Active; 'I' for Inactive)
REMARK    1  A    between atoms: C_2  and  C_3
REMARK    2  A    between atoms: N_7  and  C_8
REMARK                            x       y       z     vdW  Elec       q    Type
REMARK                         _______ _______ _______ _____ _____    ______ ____
ROOT
ATOM      1  C   UNL     1       2.747   7.381  18.970  0.00  0.00    +0.000 C 
ATOM      2  C   UNL     1       2.111   6.769  17.723  0.00  0.00    +0.000 C 
ATOM      3  C   UNL     1       2.087   5.285  18.033  0.00  0.00    +0.000 C 
ATOM      4  O   UNL     1       1.450   4.475  17.381  0.00  0.00    +0.000 OA
ATOM      5  N   UNL     1       2.941   5.060  19.107  0.00  0.00    +0.000 N 
ATOM      6  C   UNL     1       3.657   6.262  19.436  0.00  0.00    +0.000 C 
ENDROOT
BRANCH   1   8
ATOM      7  O   UNL     1       1.468   6.922  20.950  0.00  0.00    +0.000 OA
ATOM      8  C   UNL     1       1.717   7.722  20.047  0.00  0.00    +0.000 C 
ATOM      9  N   UNL     1       1.140   8.978  19.949  0.00  0.00    +0.000 N 
ATOM     10  C   UNL     1       1.102   9.871  18.770  0.00  0.00    +0.000 C 
ATOM     11  C   UNL     1       0.813  11.277  19.301  0.00  0.00    +0.000 C 
ATOM     12  C   UNL     1       0.201  10.961  20.628  0.00  0.00    +0.000 A 
ATOM     13  C   UNL     1      -0.415  11.842  21.502  0.00  0.00    +0.000 A 
ATOM     14  C   UNL     1      -0.835  11.357  22.741  0.00  0.00    +0.000 A 
ATOM     15  C   UNL     1      -0.623  10.015  23.091  0.00  0.00    +0.000 A 
ATOM     16  C   UNL     1       0.023   9.141  22.211  0.00  0.00    +0.000 A 
ATOM     17  C   UNL     1       0.427   9.627  20.979  0.00  0.00    +0.000 A 
ENDBRANCH   1   8
BRANCH   5  18
ATOM     18  C   UNL     1       3.241   3.821  19.842  0.00  0.00    +0.000 C 
ATOM     19  C   UNL     1       2.055   3.270  20.636  0.00  0.00    +0.000 C 
ATOM     20  C   UNL     1       1.060   2.483  19.797  0.00  0.00    +0.000 C 
ATOM     21  C   UNL     1       1.720   1.476  18.856  0.00  0.00    +0.000 C 
ATOM     22  C   UNL     1       2.948   1.986  18.105  0.00  0.00    +0.000 C 
ATOM     23  C   UNL     1       3.917   2.744  18.999  0.00  0.00    +0.000 C 
ENDBRANCH   5  18
TORSDOF 2
ENDMDL
MODEL 3
REMARK VINA RESULT:      -7.2      1.217      2.035
REMARK  Name = 
REMARK  2 active torsions:
REMARK  status: ('A' for Active; 'I' for Inactive)
REMARK    1  A    between atoms: C_2  and  C_3
REMARK    2  A    between atoms: N_7  and  C_8
REMARK                            x       y       z     vdW  Elec       q    Type
REMARK                         _______ _______ _______ _____ _____    ______ ____
ROOT
ATOM      1  C   UNL     1       2.803   6.728  19.285  0.00  0.00    +0.000 C 
ATOM      2  C   UNL     1       2.260   6.439  17.886  0.00  0.00    +0.000 C 
ATOM      3  C   UNL     1       1.766   5.009  17.989  0.00  0.00    +0.000 C 
ATOM      4  O   UNL     1       1.059   4.484  17.146  0.00  0.00    +0.000 OA
ATOM      5  N   UNL     1       2.312   4.451  19.139  0.00  0.00    +0.000 N 
ATOM      6  C   UNL     1       3.263   5.353  19.729  0.00  0.00    +0.000 C 
ENDROOT
BRANCH   1   8
ATOM      7  O   UNL     1       1.325   6.587  21.173  0.00  0.00    +0.000 OA
ATOM      8  C   UNL     1       1.730   7.269  20.230  0.00  0.00    +0.000 C 
ATOM      9  N   UNL     1       1.299   8.561  19.972  0.00  0.00    +0.000 N 
ATOM     10  C   UNL     1       1.452   9.336  18.722  0.00  0.00    +0.000 C 
ATOM     11  C   UNL     1       1.271  10.808  19.101  0.00  0.00    +0.000 C 
ATOM     12  C   UNL     1       0.523  10.681  20.390  0.00  0.00    +0.000 A 
ATOM     13  C   UNL     1      -0.066  11.697  21.124  0.00  0.00    +0.000 A 
ATOM     14  C   UNL     1      -0.635  11.376  22.357  0.00  0.00    +0.000 A 
ATOM     15  C   UNL     1      -0.595  10.059  22.839  0.00  0.00    +0.000 A 
ATOM     16  C   UNL     1       0.024   9.046  22.101  0.00  0.00    +0.000 A 
ATOM     17  C   UNL     1       0.577   9.371  20.873  0.00  0.00    +0.000 A 
ENDBRANCH   1   8
BRANCH   5  18
ATOM     18  C   UNL     1       2.116   3.123  19.739  0.00  0.00    +0.000 C 
ATOM     19  C   UNL     1       2.040   1.987  18.715  0.00  0.00    +0.000 C 
ATOM     20  C   UNL     1       3.396   1.515  18.213  0.00  0.00    +0.000 C 
ATOM     21  C   UNL     1       4.418   1.300  19.330  0.00  0.00    +0.000 C 
ATOM     22  C   UNL     1       4.459   2.389  20.400  0.00  0.00    +0.000 C 
ATOM     23  C   UNL     1       3.078   2.804  20.879  0.00  0.00    +0.000 C 
ENDBRANCH   5  18
TORSDOF 2
ENDMDL
MODEL 4
REMARK VINA RESULT:      -7.1      3.727      6.851
REMARK  Name = 
REMARK  2 active torsions:
REMARK  status: ('A' for Active; 'I' for Inactive)
REMARK    1  A    between atoms: C_2  and  C_3
REMARK    2  A    between atoms: N_7  and  C_8
REMARK                            x       y       z     vdW  Elec       q    Type
REMARK                         _______ _______ _______ _____ _____    ______ ____
ROOT
ATOM      1  C   UNL     1       5.246   5.450  17.411  0.00  0.00    +0.000 C 
ATOM      2  C   UNL     1       5.830   4.680  18.595  0.00  0.00    +0.000 C 
ATOM      3  C   UNL     1       4.603   4.151  19.311  0.00  0.00    +0.000 C 
ATOM      4  O   UNL     1       4.652   3.298  20.181  0.00  0.00    +0.000 OA
ATOM      5  N   UNL     1       3.498   4.849  18.837  0.00  0.00    +0.000 N 
ATOM      6  C   UNL     1       3.916   5.917  17.971  0.00  0.00    +0.000 C 
ENDROOT
BRANCH   1   8
ATOM      7  O   UNL     1       3.988   3.922  16.049  0.00  0.00    +0.000 OA
ATOM      8  C   UNL     1       5.032   4.563  16.184  0.00  0.00    +0.000 C 
ATOM      9  N   UNL     1       6.056   4.574  15.250  0.00  0.00    +0.000 N 
ATOM     10  C   UNL     1       7.453   5.019  15.440  0.00  0.00    +0.000 C 
ATOM     11  C   UNL     1       8.012   5.297  14.043  0.00  0.00    +0.000 C 
ATOM     12  C   UNL     1       7.079   4.492  13.197  0.00  0.00    +0.000 A 
ATOM     13  C   UNL     1       7.191   4.223  11.842  0.00  0.00    +0.000 A 
ATOM     14  C   UNL     1       6.153   3.529  11.219  0.00  0.00    +0.000 A 
ATOM     15  C   UNL     1       5.024   3.129  11.948  0.00  0.00    +0.000 A 
ATOM     16  C   UNL     1       4.910   3.428  13.309  0.00  0.00    +0.000 A 
ATOM     17  C   UNL     1       5.949   4.108  13.923  0.00  0.00    +0.000 A 
ENDBRANCH   1   8
BRANCH   5  18
ATOM     18  C   UNL     1       2.069   4.695  19.148  0.00  0.00    +0.000 C 
ATOM     19  C   UNL     1       1.464   3.383  18.645  0.00  0.00    +0.000 C 
ATOM     20  C   UNL     1       1.746   2.187  19.543  0.00  0.00    +0.000 C 
ATOM     21  C   UNL     1       1.512   2.470  21.027  0.00  0.00    +0.000 C 
ATOM     22  C   UNL     1       2.048   3.808  21.532  0.00  0.00    +0.000 C 
ATOM     23  C   UNL     1       1.716   4.968  20.607  0.00  0.00    +0.000 C 
ENDBRANCH   5  18
TORSDOF 2
ENDMDL
MODEL 5
REMARK VINA RESULT:      -7.0      4.123      7.279
REMARK  Name = 
REMARK  2 active torsions:
REMARK  status: ('A' for Active; 'I' for Inactive)
REMARK    1  A    between atoms: C_2  and  C_3
REMARK    2  A    between atoms: N_7  and  C_8
REMARK                            x       y       z     vdW  Elec       q    Type
REMARK                         _______ _______ _______ _____ _____    ______ ____
ROOT
ATOM      1  C   UNL     1       5.609   6.316  16.640  0.00  0.00    +0.000 C 
ATOM      2  C   UNL     1       6.755   6.151  17.637  0.00  0.00    +0.000 C 
ATOM      3  C   UNL     1       6.098   5.467  18.819  0.00  0.00    +0.000 C 
ATOM      4  O   UNL     1       6.726   4.960  19.733  0.00  0.00    +0.000 OA
ATOM      5  N   UNL     1       4.721   5.592  18.673  0.00  0.00    +0.000 N 
ATOM      6  C   UNL     1       4.413   6.450  17.562  0.00  0.00    +0.000 C 
ENDROOT
BRANCH   1   8
ATOM      7  O   UNL     1       4.506   4.324  15.874  0.00  0.00    +0.000 OA
ATOM      8  C   UNL     1       5.451   5.102  15.724  0.00  0.00    +0.000 C 
ATOM      9  N   UNL     1       6.398   4.979  14.721  0.00  0.00    +0.000 N 
ATOM     10  C   UNL     1       7.724   5.630  14.640  0.00  0.00    +0.000 C 
ATOM     11  C   UNL     1       8.144   5.573  13.169  0.00  0.00    +0.000 C 
ATOM     12  C   UNL     1       7.288   4.454  12.670  0.00  0.00    +0.000 A 
ATOM     13  C   UNL     1       7.351   3.834  11.433  0.00  0.00    +0.000 A 
ATOM     14  C   UNL     1       6.389   2.869  11.129  0.00  0.00    +0.000 A 
ATOM     15  C   UNL     1       5.381   2.552  12.051  0.00  0.00    +0.000 A 
ATOM     16  C   UNL     1       5.312   3.202  13.286  0.00  0.00    +0.000 A 
ATOM     17  C   UNL     1       6.277   4.151  13.586  0.00  0.00    +0.000 A 
ENDBRANCH   1   8
BRANCH   5  18
ATOM     18  C   UNL     1       3.624   5.064  19.498  0.00  0.00    +0.000 C 
ATOM     19  C   UNL     1       2.231   5.451  18.996  0.00  0.00    +0.000 C 
ATOM     20  C   UNL     1       1.726   4.591  17.847  0.00  0.00    +0.000 C 
ATOM     21  C   UNL     1       1.930   3.093  18.073  0.00  0.00    +0.000 C 
ATOM     22  C   UNL     1       3.290   2.694  18.640  0.00  0.00    +0.000 C 
ATOM     23  C   UNL     1       3.731   3.572  19.799  0.00  0.00    +0.000 C 
ENDBRANCH   5  18
TORSDOF 2
ENDMDL
MODEL 6
REMARK VINA RESULT:      -6.9      2.315      4.112
REMARK  Name = 
REMARK  2 active torsions:
REMARK  status: ('A' for Active; 'I' for Inactive)
REMARK    1  A    between atoms: C_2  and  C_3
REMARK    2  A    between atoms: N_7  and  C_8
REMARK                            x       y       z     vdW  Elec       q    Type
REMARK                         _______ _______ _______ _____ _____    ______ ____
ROOT
ATOM      1  C   UNL     1       2.082   6.100  19.204  0.00  0.00    +0.000 C 
ATOM      2  C   UNL     1       3.169   5.635  20.171  0.00  0.00    +0.000 C 
ATOM      3  C   UNL     1       4.371   5.420  19.272  0.00  0.00    +0.000 C 
ATOM      4  O   UNL     1       5.504   5.263  19.696  0.00  0.00    +0.000 OA
ATOM      5  N   UNL     1       3.920   5.381  17.958  0.00  0.00    +0.000 N 
ATOM      6  C   UNL     1       2.482   5.394  17.923  0.00  0.00    +0.000 C 
ENDROOT
BRANCH   1   8
ATOM      7  O   UNL     1       2.644   8.120  18.032  0.00  0.00    +0.000 OA
ATOM      8  C   UNL     1       2.083   7.616  19.007  0.00  0.00    +0.000 C 
ATOM      9  N   UNL     1       1.388   8.346  19.958  0.00  0.00    +0.000 N 
ATOM     10  C   UNL     1       0.970   7.911  21.309  0.00  0.00    +0.000 C 
ATOM     11  C   UNL     1      -0.153   8.857  21.740  0.00  0.00    +0.000 C 
ATOM     12  C   UNL     1       0.101  10.028  20.845  0.00  0.00    +0.000 A 
ATOM     13  C   UNL     1      -0.506  11.272  20.895  0.00  0.00    +0.000 A 
ATOM     14  C   UNL     1      -0.193  12.199  19.900  0.00  0.00    +0.000 A 
ATOM     15  C   UNL     1       0.702  11.868  18.872  0.00  0.00    +0.000 A 
ATOM     16  C   UNL     1       1.289  10.600  18.817  0.00  0.00    +0.000 A 
ATOM     17  C   UNL     1       0.982   9.689  19.815  0.00  0.00    +0.000 A 
ENDBRANCH   1   8
BRANCH   5  18
ATOM     18  C   UNL     1       4.667   5.256  16.698  0.00  0.00    +0.000 C 
ATOM     19  C   UNL     1       5.222   6.582  16.173  0.00  0.00    +0.000 C 
ATOM     20  C   UNL     1       6.513   7.022  16.847  0.00  0.00    +0.000 C 
ATOM     21  C   UNL     1       7.547   5.903  16.973  0.00  0.00    +0.000 C 
ATOM     22  C   UNL     1       6.999   4.552  17.428  0.00  0.00    +0.000 C 
ATOM     23  C   UNL     1       5.723   4.155  16.705  0.00  0.00    +0.000 C 
ENDBRANCH   5  18
TORSDOF 2
ENDMDL
MODEL 7
REMARK VINA RESULT:      -6.8      2.094      4.173
REMARK  Name = 
REMARK  2 active torsions:
REMARK  status: ('A' for Active; 'I' for Inactive)
REMARK    1  A    between atoms: C_2  and  C_3
REMARK    2  A    between atoms: N_7  and  C_8
REMARK                            x       y       z     vdW  Elec       q    Type
REMARK                         _______ _______ _______ _____ _____    ______ ____
ROOT
ATOM      1  C   UNL     1       2.481   5.195  18.728  0.00  0.00    +0.000 C 
ATOM      2  C   UNL     1       3.272   4.734  19.951  0.00  0.00    +0.000 C 
ATOM      3  C   UNL     1       4.643   4.419  19.385  0.00  0.00    +0.000 C 
ATOM      4  O   UNL     1       5.628   4.234  20.080  0.00  0.00    +0.000 OA
ATOM      5  N   UNL     1       4.524   4.329  18.003  0.00  0.00    +0.000 N 
ATOM      6  C   UNL     1       3.142   4.404  17.615  0.00  0.00    +0.000 C 
ENDROOT
BRANCH   1   8
ATOM      7  O   UNL     1       3.191   7.113  17.468  0.00  0.00    +0.000 OA
ATOM      8  C   UNL     1       2.614   6.696  18.475  0.00  0.00    +0.000 C 
ATOM      9  N   UNL     1       2.017   7.519  19.416  0.00  0.00    +0.000 N 
ATOM     10  C   UNL     1       1.600   7.171  20.792  0.00  0.00    +0.000 C 
ATOM     11  C   UNL     1       0.581   8.231  21.216  0.00  0.00    +0.000 C 
ATOM     12  C   UNL     1       0.915   9.342  20.272  0.00  0.00    +0.000 A 
ATOM     13  C   UNL     1       0.426  10.638  20.292  0.00  0.00    +0.000 A 
ATOM     14  C   UNL     1       0.793  11.498  19.256  0.00  0.00    +0.000 A 
ATOM     15  C   UNL     1       1.624  11.050  18.218  0.00  0.00    +0.000 A 
ATOM     16  C   UNL     1       2.091   9.732  18.196  0.00  0.00    +0.000 A 
ATOM     17  C   UNL     1       1.731   8.888  19.233  0.00  0.00    +0.000 A 
ENDBRANCH   1   8
BRANCH   5  18
ATOM     18  C   UNL     1       5.547   4.104  16.971  0.00  0.00    +0.000 C 
ATOM     19  C   UNL     1       5.185   4.685  15.602  0.00  0.00    +0.000 C 
ATOM     20  C   UNL     1       5.445   6.179  15.476  0.00  0.00    +0.000 C 
ATOM     21  C   UNL     1       6.812   6.606  16.009  0.00  0.00    +0.000 C 
ATOM     22  C   UNL     1       7.222   5.982  17.341  0.00  0.00    +0.000 C 
ATOM     23  C   UNL     1       6.961   4.486  17.400  0.00  0.00    +0.000 C 
ENDBRANCH   5  18
TORSDOF 2
ENDMDL
MODEL 8
REMARK VINA RESULT:      -6.8      3.915      7.810
REMARK  Name = 
REMARK  2 active torsions:
REMARK  status: ('A' for Active; 'I' for Inactive)
REMARK    1  A    between atoms: C_2  and  C_3
REMARK    2  A    between atoms: N_7  and  C_8
REMARK                            x       y       z     vdW  Elec       q    Type
REMARK                         _______ _______ _______ _____ _____    ______ ____
ROOT
ATOM      1  C   UNL     1      -0.427  12.133  19.233  0.00  0.00    +0.000 C 
ATOM      2  C   UNL     1      -1.323  13.052  20.063  0.00  0.00    +0.000 C 
ATOM      3  C   UNL     1      -2.703  12.450  19.889  0.00  0.00    +0.000 C 
ATOM      4  O   UNL     1      -3.661  12.762  20.576  0.00  0.00    +0.000 OA
ATOM      5  N   UNL     1      -2.654  11.575  18.810  0.00  0.00    +0.000 N 
ATOM      6  C   UNL     1      -1.380  11.668  18.149  0.00  0.00    +0.000 C 
ENDROOT
BRANCH   1   8
ATOM      7  O   UNL     1      -0.306  10.736  21.183  0.00  0.00    +0.000 OA
ATOM      8  C   UNL     1       0.097  10.943  20.036  0.00  0.00    +0.000 C 
ATOM      9  N   UNL     1       0.998  10.123  19.376  0.00  0.00    +0.000 N 
ATOM     10  C   UNL     1       1.791  10.434  18.167  0.00  0.00    +0.000 C 
ATOM     11  C   UNL     1       2.221   9.090  17.575  0.00  0.00    +0.000 C 
ATOM     12  C   UNL     1       2.089   8.197  18.767  0.00  0.00    +0.000 A 
ATOM     13  C   UNL     1       2.502   6.880  18.882  0.00  0.00    +0.000 A 
ATOM     14  C   UNL     1       2.195   6.192  20.056  0.00  0.00    +0.000 A 
ATOM     15  C   UNL     1       1.475   6.820  21.083  0.00  0.00    +0.000 A 
ATOM     16  C   UNL     1       1.041   8.141  20.946  0.00  0.00    +0.000 A 
ATOM     17  C   UNL     1       1.360   8.822  19.782  0.00  0.00    +0.000 A 
ENDBRANCH   1   8
BRANCH   5  18
ATOM     18  C   UNL     1      -3.689  10.692  18.252  0.00  0.00    +0.000 C 
ATOM     19  C   UNL     1      -4.737  11.422  17.409  0.00  0.00    +0.000 C 
ATOM     20  C   UNL     1      -4.287  11.726  15.988  0.00  0.00    +0.000 C 
ATOM     21  C   UNL     1      -3.626  10.536  15.292  0.00  0.00    +0.000 C 
ATOM     22  C   UNL     1      -2.627   9.752  16.140  0.00  0.00    +0.000 C 
ATOM     23  C   UNL     1      -3.140   9.458  17.541  0.00  0.00    +0.000 C 
ENDBRANCH   5  18
TORSDOF 2
ENDMDL
MODEL 9
REMARK VINA RESULT:      -6.8      3.335      7.262
REMARK  Name = 
REMARK  2 active torsions:
REMARK  status: ('A' for Active; 'I' for Inactive)
REMARK    1  A    between atoms: C_2  and  C_3
REMARK    2  A    between atoms: N_7  and  C_8
REMARK                            x       y       z     vdW  Elec       q    Type
REMARK                         _______ _______ _______ _____ _____    ______ ____
ROOT
ATOM      1  C   UNL     1       0.886  10.375  18.801  0.00  0.00    +0.000 C 
ATOM      2  C   UNL     1       0.231  11.508  19.591  0.00  0.00    +0.000 C 
ATOM      3  C   UNL     1      -1.252  11.236  19.432  0.00  0.00    +0.000 C 
ATOM      4  O   UNL     1      -2.109  11.788  20.102  0.00  0.00    +0.000 OA
ATOM      5  N   UNL     1      -1.411  10.332  18.388  0.00  0.00    +0.000 N 
ATOM      6  C   UNL     1      -0.153  10.102  17.731  0.00  0.00    +0.000 C 
ENDROOT
BRANCH   1   8
ATOM      7  O   UNL     1       0.534   8.982  20.726  0.00  0.00    +0.000 OA
ATOM      8  C   UNL     1       1.122   9.128  19.653  0.00  0.00    +0.000 C 
ATOM      9  N   UNL     1       1.990   8.190  19.116  0.00  0.00    +0.000 N 
ATOM     10  C   UNL     1       2.984   8.385  18.038  0.00  0.00    +0.000 C 
ATOM     11  C   UNL     1       3.309   6.992  17.493  0.00  0.00    +0.000 C 
ATOM     12  C   UNL     1       2.886   6.131  18.639  0.00  0.00    +0.000 A 
ATOM     13  C   UNL     1       3.096   4.770  18.791  0.00  0.00    +0.000 A 
ATOM     14  C   UNL     1       2.532   4.134  19.898  0.00  0.00    +0.000 A 
ATOM     15  C   UNL     1       1.763   4.858  20.820  0.00  0.00    +0.000 A 
ATOM     16  C   UNL     1       1.536   6.227  20.644  0.00  0.00    +0.000 A 
ATOM     17  C   UNL     1       2.109   6.853  19.549  0.00  0.00    +0.000 A 
ENDBRANCH   1   8
BRANCH   5  18
ATOM     18  C   UNL     1      -2.625   9.693  17.858  0.00  0.00    +0.000 C 
ATOM     19  C   UNL     1      -3.919  10.424  18.222  0.00  0.00    +0.000 C 
ATOM     20  C   UNL     1      -4.218  11.629  17.342  0.00  0.00    +0.000 C 
ATOM     21  C   UNL     1      -4.041  11.350  15.849  0.00  0.00    +0.000 C 
ATOM     22  C   UNL     1      -2.790  10.560  15.473  0.00  0.00    +0.000 C 
ATOM     23  C   UNL     1      -2.555   9.357  16.371  0.00  0.00    +0.000 C 
ENDBRANCH   5  18
TORSDOF 2
ENDMDL
