MODEL 1
REMARK VINA RESULT:      -8.1      0.000      0.000
REMARK  Name = 
REMARK  11 active torsions:
REMARK  status: ('A' for Active; 'I' for Inactive)
REMARK    1  A    between atoms: C_1  and  O_2
REMARK    2  A    between atoms: O_2  and  C_3
REMARK    3  A    between atoms: C_5  and  C_6
REMARK    4  A    between atoms: C_7  and  C_8
REMARK    5  A    between atoms: C_8  and  O_10
REMARK    6  A    between atoms: O_10  and  C_11
REMARK    7  A    between atoms: C_11  and  C_12
REMARK    8  A    between atoms: C_12  and  C_14
REMARK    9  A    between atoms: C_17  and  O_18
REMARK   10  A    between atoms: O_18  and  C_19
REMARK   11  A    between atoms: C_26  and  O_27
REMARK                            x       y       z     vdW  Elec       q    Type
REMARK                         _______ _______ _______ _____ _____    ______ ____
ROOT
ATOM      1  C   UNL     1       2.054   3.380  21.012  0.00  0.00    +0.000 C 
ATOM      2  O   UNL     1       2.013   3.361  22.230  0.00  0.00    +0.000 OA
ENDROOT
BRANCH   1   4
ATOM      3  C   UNL     1       2.318   5.783  20.548  0.00  0.00    +0.000 C 
ATOM      4  C   UNL     1       1.879   4.576  20.159  0.00  0.00    +0.000 C 
BRANCH   3   7
ATOM      5  C   UNL     1       1.412   9.343  19.590  0.00  0.00    +0.000 A 
ATOM      6  C   UNL     1       1.566   8.144  20.313  0.00  0.00    +0.000 A 
ATOM      7  C   UNL     1       2.167   7.010  19.746  0.00  0.00    +0.000 A 
ATOM      8  C   UNL     1       2.648   7.103  18.436  0.00  0.00    +0.000 A 
ATOM      9  C   UNL     1       2.501   8.283  17.702  0.00  0.00    +0.000 A 
ATOM     10  C   UNL     1       1.881   9.397  18.273  0.00  0.00    +0.000 A 
BRANCH   5  12
ATOM     11  C   UNL     1      -0.245   9.965  21.202  0.00  0.00    +0.000 C 
ATOM     12  O   UNL     1       0.796  10.333  20.309  0.00  0.00    +0.000 OA
ENDBRANCH   5  12
BRANCH  10  13
ATOM     13  O   UNL     1       1.758  10.524  17.510  0.00  0.00    +0.000 OA
ATOM     14  H   UNL     1       2.482  10.554  16.864  0.00  0.00    +0.000 HD
ENDBRANCH  10  13
ENDBRANCH   3   7
ENDBRANCH   1   4
BRANCH   1  15
ATOM     15  O   UNL     1       2.213   2.311  20.191  0.00  0.00    +0.000 OA
BRANCH  15  16
ATOM     16  C   UNL     1       3.487   2.232  19.551  0.00  0.00    +0.000 C 
BRANCH  16  17
ATOM     17  C   UNL     1       3.518   2.881  18.167  0.00  0.00    +0.000 C 
ATOM     18  O   UNL     1       2.751   2.546  17.268  0.00  0.00    +0.000 OA
BRANCH  17  19
ATOM     19  C   UNL     1       4.553   3.932  17.901  0.00  0.00    +0.000 A 
ATOM     20  C   UNL     1       5.406   4.419  18.899  0.00  0.00    +0.000 A 
ATOM     21  C   UNL     1       6.377   5.388  18.599  0.00  0.00    +0.000 A 
ATOM     22  C   UNL     1       6.504   5.875  17.298  0.00  0.00    +0.000 A 
ATOM     23  C   UNL     1       5.638   5.408  16.307  0.00  0.00    +0.000 A 
ATOM     24  C   UNL     1       4.676   4.436  16.602  0.00  0.00    +0.000 A 
BRANCH  22  25
ATOM     25  O   UNL     1       7.397   6.823  16.885  0.00  0.00    +0.000 OA
BRANCH  25  26
ATOM     26  C   UNL     1       7.695   7.850  17.819  0.00  0.00    +0.000 C 
ATOM     27  F   UNL     1       8.603   7.391  18.715  0.00  0.00    +0.000 F 
ATOM     28  F   UNL     1       8.296   8.857  17.135  0.00  0.00    +0.000 F 
ENDBRANCH  25  26
ENDBRANCH  22  25
ENDBRANCH  17  19
ENDBRANCH  16  17
ENDBRANCH  15  16
ENDBRANCH   1  15
TORSDOF 10
ENDMDL
MODEL 2
REMARK VINA RESULT:      -7.6      0.689      1.232
REMARK  Name = 
REMARK  11 active torsions:
REMARK  status: ('A' for Active; 'I' for Inactive)
REMARK    1  A    between atoms: C_1  and  O_2
REMARK    2  A    between atoms: O_2  and  C_3
REMARK    3  A    between atoms: C_5  and  C_6
REMARK    4  A    between atoms: C_7  and  C_8
REMARK    5  A    between atoms: C_8  and  O_10
REMARK    6  A    between atoms: O_10  and  C_11
REMARK    7  A    between atoms: C_11  and  C_12
REMARK    8  A    between atoms: C_12  and  C_14
REMARK    9  A    between atoms: C_17  and  O_18
REMARK   10  A    between atoms: O_18  and  C_19
REMARK   11  A    between atoms: C_26  and  O_27
REMARK                            x       y       z     vdW  Elec       q    Type
REMARK                         _______ _______ _______ _____ _____    ______ ____
ROOT
ATOM      1  C   UNL     1       2.189   3.268  20.768  0.00  0.00    +0.000 C 
ATOM      2  O   UNL     1       1.363   2.750  21.500  0.00  0.00    +0.000 OA
ENDROOT
BRANCH   1   4
ATOM      3  C   UNL     1       2.503   5.669  20.322  0.00  0.00    +0.000 C 
ATOM      4  C   UNL     1       1.981   4.487  19.956  0.00  0.00    +0.000 C 
BRANCH   3   7
ATOM      5  C   UNL     1       1.540   9.243  19.482  0.00  0.00    +0.000 A 
ATOM      6  C   UNL     1       1.718   8.025  20.167  0.00  0.00    +0.000 A 
ATOM      7  C   UNL     1       2.326   6.917  19.559  0.00  0.00    +0.000 A 
ATOM      8  C   UNL     1       2.787   7.054  18.246  0.00  0.00    +0.000 A 
ATOM      9  C   UNL     1       2.615   8.253  17.550  0.00  0.00    +0.000 A 
ATOM     10  C   UNL     1       1.990   9.342  18.162  0.00  0.00    +0.000 A 
BRANCH   5  12
ATOM     11  C   UNL     1      -0.371   9.921  20.756  0.00  0.00    +0.000 C 
ATOM     12  O   UNL     1       0.921  10.203  20.239  0.00  0.00    +0.000 OA
ENDBRANCH   5  12
BRANCH  10  13
ATOM     13  O   UNL     1       1.843  10.490  17.434  0.00  0.00    +0.000 OA
ATOM     14  H   UNL     1       1.764  10.265  16.493  0.00  0.00    +0.000 HD
ENDBRANCH  10  13
ENDBRANCH   3   7
ENDBRANCH   1   4
BRANCH   1  15
ATOM     15  O   UNL     1       3.439   2.809  20.506  0.00  0.00    +0.000 OA
BRANCH  15  16
ATOM     16  C   UNL     1       3.545   1.996  19.337  0.00  0.00    +0.000 C 
BRANCH  16  17
ATOM     17  C   UNL     1       3.326   2.765  18.035  0.00  0.00    +0.000 C 
ATOM     18  O   UNL     1       2.316   2.623  17.350  0.00  0.00    +0.000 OA
BRANCH  17  19
ATOM     19  C   UNL     1       4.410   3.690  17.567  0.00  0.00    +0.000 A 
ATOM     20  C   UNL     1       4.428   4.240  16.279  0.00  0.00    +0.000 A 
ATOM     21  C   UNL     1       5.450   5.120  15.892  0.00  0.00    +0.000 A 
ATOM     22  C   UNL     1       6.462   5.460  16.790  0.00  0.00    +0.000 A 
ATOM     23  C   UNL     1       6.459   4.893  18.067  0.00  0.00    +0.000 A 
ATOM     24  C   UNL     1       5.436   4.023  18.458  0.00  0.00    +0.000 A 
BRANCH  22  25
ATOM     25  O   UNL     1       7.514   6.291  16.529  0.00  0.00    +0.000 OA
BRANCH  25  26
ATOM     26  C   UNL     1       7.547   7.506  17.261  0.00  0.00    +0.000 C 
ATOM     27  F   UNL     1       6.288   7.833  17.644  0.00  0.00    +0.000 F 
ATOM     28  F   UNL     1       8.253   7.275  18.398  0.00  0.00    +0.000 F 
ENDBRANCH  25  26
ENDBRANCH  22  25
ENDBRANCH  17  19
ENDBRANCH  16  17
ENDBRANCH  15  16
ENDBRANCH   1  15
TORSDOF 10
ENDMDL
MODEL 3
REMARK VINA RESULT:      -7.6      0.906      1.085
REMARK  Name = 
REMARK  11 active torsions:
REMARK  status: ('A' for Active; 'I' for Inactive)
REMARK    1  A    between atoms: C_1  and  O_2
REMARK    2  A    between atoms: O_2  and  C_3
REMARK    3  A    between atoms: C_5  and  C_6
REMARK    4  A    between atoms: C_7  and  C_8
REMARK    5  A    between atoms: C_8  and  O_10
REMARK    6  A    between atoms: O_10  and  C_11
REMARK    7  A    between atoms: C_11  and  C_12
REMARK    8  A    between atoms: C_12  and  C_14
REMARK    9  A    between atoms: C_17  and  O_18
REMARK   10  A    between atoms: O_18  and  C_19
REMARK   11  A    between atoms: C_26  and  O_27
REMARK                            x       y       z     vdW  Elec       q    Type
REMARK                         _______ _______ _______ _____ _____    ______ ____
ROOT
ATOM      1  C   UNL     1       1.890   3.501  21.086  0.00  0.00    +0.000 C 
ATOM      2  O   UNL     1       2.447   3.337  22.157  0.00  0.00    +0.000 OA
ENDROOT
BRANCH   1   4
ATOM      3  C   UNL     1       2.329   5.836  20.441  0.00  0.00    +0.000 C 
ATOM      4  C   UNL     1       1.476   4.802  20.515  0.00  0.00    +0.000 C 
BRANCH   3   7
ATOM      5  C   UNL     1       0.855   9.324  20.175  0.00  0.00    +0.000 A 
ATOM      6  C   UNL     1       1.207   8.047  20.654  0.00  0.00    +0.000 A 
ATOM      7  C   UNL     1       1.974   7.156  19.890  0.00  0.00    +0.000 A 
ATOM      8  C   UNL     1       2.417   7.577  18.631  0.00  0.00    +0.000 A 
ATOM      9  C   UNL     1       2.073   8.838  18.138  0.00  0.00    +0.000 A 
ATOM     10  C   UNL     1       1.292   9.707  18.903  0.00  0.00    +0.000 A 
BRANCH   5  12
ATOM     11  C   UNL     1       0.282   9.805  22.450  0.00  0.00    +0.000 C 
ATOM     12  O   UNL     1       0.099  10.044  21.062  0.00  0.00    +0.000 OA
ENDBRANCH   5  12
BRANCH  10  13
ATOM     13  O   UNL     1       0.980  10.927  18.370  0.00  0.00    +0.000 OA
ATOM     14  H   UNL     1       1.734  11.527  18.483  0.00  0.00    +0.000 HD
ENDBRANCH  10  13
ENDBRANCH   3   7
ENDBRANCH   1   4
BRANCH   1  15
ATOM     15  O   UNL     1       1.489   2.530  20.226  0.00  0.00    +0.000 OA
BRANCH  15  16
ATOM     16  C   UNL     1       1.889   2.730  18.869  0.00  0.00    +0.000 C 
BRANCH  16  17
ATOM     17  C   UNL     1       3.387   2.531  18.638  0.00  0.00    +0.000 C 
ATOM     18  O   UNL     1       3.930   1.436  18.758  0.00  0.00    +0.000 OA
BRANCH  17  19
ATOM     19  C   UNL     1       4.216   3.732  18.295  0.00  0.00    +0.000 A 
ATOM     20  C   UNL     1       5.302   4.146  19.077  0.00  0.00    +0.000 A 
ATOM     21  C   UNL     1       6.065   5.264  18.705  0.00  0.00    +0.000 A 
ATOM     22  C   UNL     1       5.752   5.974  17.546  0.00  0.00    +0.000 A 
ATOM     23  C   UNL     1       4.655   5.576  16.778  0.00  0.00    +0.000 A 
ATOM     24  C   UNL     1       3.899   4.457  17.142  0.00  0.00    +0.000 A 
BRANCH  22  25
ATOM     25  O   UNL     1       6.408   7.081  17.087  0.00  0.00    +0.000 OA
BRANCH  25  26
ATOM     26  C   UNL     1       7.784   7.175  17.420  0.00  0.00    +0.000 C 
ATOM     27  F   UNL     1       8.250   8.396  17.058  0.00  0.00    +0.000 F 
ATOM     28  F   UNL     1       7.879   7.108  18.773  0.00  0.00    +0.000 F 
ENDBRANCH  25  26
ENDBRANCH  22  25
ENDBRANCH  17  19
ENDBRANCH  16  17
ENDBRANCH  15  16
ENDBRANCH   1  15
TORSDOF 10
ENDMDL
MODEL 4
REMARK VINA RESULT:      -7.5      4.165      7.505
REMARK  Name = 
REMARK  11 active torsions:
REMARK  status: ('A' for Active; 'I' for Inactive)
REMARK    1  A    between atoms: C_1  and  O_2
REMARK    2  A    between atoms: O_2  and  C_3
REMARK    3  A    between atoms: C_5  and  C_6
REMARK    4  A    between atoms: C_7  and  C_8
REMARK    5  A    between atoms: C_8  and  O_10
REMARK    6  A    between atoms: O_10  and  C_11
REMARK    7  A    between atoms: C_11  and  C_12
REMARK    8  A    between atoms: C_12  and  C_14
REMARK    9  A    between atoms: C_17  and  O_18
REMARK   10  A    between atoms: O_18  and  C_19
REMARK   11  A    between atoms: C_26  and  O_27
REMARK                            x       y       z     vdW  Elec       q    Type
REMARK                         _______ _______ _______ _____ _____    ______ ____
ROOT
ATOM      1  C   UNL     1       7.847   6.750  18.361  0.00  0.00    +0.000 C 
ATOM      2  O   UNL     1       7.598   5.734  18.986  0.00  0.00    +0.000 OA
ENDROOT
BRANCH   1   4
ATOM      3  C   UNL     1       8.449   9.136  18.307  0.00  0.00    +0.000 C 
ATOM      4  C   UNL     1       8.575   7.929  18.880  0.00  0.00    +0.000 C 
BRANCH   3   7
ATOM      5  C   UNL     1      10.147  12.531  18.258  0.00  0.00    +0.000 A 
ATOM      6  C   UNL     1       9.488  11.353  17.857  0.00  0.00    +0.000 A 
ATOM      7  C   UNL     1       9.152  10.345  18.773  0.00  0.00    +0.000 A 
ATOM      8  C   UNL     1       9.462  10.547  20.121  0.00  0.00    +0.000 A 
ATOM      9  C   UNL     1      10.120  11.708  20.537  0.00  0.00    +0.000 A 
ATOM     10  C   UNL     1      10.466  12.694  19.610  0.00  0.00    +0.000 A 
BRANCH   5  12
ATOM     11  C   UNL     1      11.698  13.400  16.654  0.00  0.00    +0.000 C 
ATOM     12  O   UNL     1      10.396  13.390  17.221  0.00  0.00    +0.000 OA
ENDBRANCH   5  12
BRANCH  10  13
ATOM     13  O   UNL     1      11.113  13.807  20.069  0.00  0.00    +0.000 OA
ATOM     14  H   UNL     1      11.167  13.770  21.037  0.00  0.00    +0.000 HD
ENDBRANCH  10  13
ENDBRANCH   3   7
ENDBRANCH   1   4
BRANCH   1  15
ATOM     15  O   UNL     1       7.466   7.031  17.089  0.00  0.00    +0.000 OA
BRANCH  15  16
ATOM     16  C   UNL     1       6.893   5.931  16.379  0.00  0.00    +0.000 C 
BRANCH  16  17
ATOM     17  C   UNL     1       5.420   6.133  16.025  0.00  0.00    +0.000 C 
ATOM     18  O   UNL     1       5.058   6.878  15.118  0.00  0.00    +0.000 OA
BRANCH  17  19
ATOM     19  C   UNL     1       4.389   5.421  16.849  0.00  0.00    +0.000 A 
ATOM     20  C   UNL     1       3.522   6.095  17.718  0.00  0.00    +0.000 A 
ATOM     21  C   UNL     1       2.556   5.390  18.453  0.00  0.00    +0.000 A 
ATOM     22  C   UNL     1       2.448   4.005  18.324  0.00  0.00    +0.000 A 
ATOM     23  C   UNL     1       3.329   3.329  17.477  0.00  0.00    +0.000 A 
ATOM     24  C   UNL     1       4.285   4.030  16.736  0.00  0.00    +0.000 A 
BRANCH  22  25
ATOM     25  O   UNL     1       1.562   3.209  18.993  0.00  0.00    +0.000 OA
BRANCH  25  26
ATOM     26  C   UNL     1       1.942   2.813  20.301  0.00  0.00    +0.000 C 
ATOM     27  F   UNL     1       3.149   3.355  20.601  0.00  0.00    +0.000 F 
ATOM     28  F   UNL     1       1.046   3.357  21.165  0.00  0.00    +0.000 F 
ENDBRANCH  25  26
ENDBRANCH  22  25
ENDBRANCH  17  19
ENDBRANCH  16  17
ENDBRANCH  15  16
ENDBRANCH   1  15
TORSDOF 10
ENDMDL
MODEL 5
REMARK VINA RESULT:      -7.4      4.195      7.535
REMARK  Name = 
REMARK  11 active torsions:
REMARK  status: ('A' for Active; 'I' for Inactive)
REMARK    1  A    between atoms: C_1  and  O_2
REMARK    2  A    between atoms: O_2  and  C_3
REMARK    3  A    between atoms: C_5  and  C_6
REMARK    4  A    between atoms: C_7  and  C_8
REMARK    5  A    between atoms: C_8  and  O_10
REMARK    6  A    between atoms: O_10  and  C_11
REMARK    7  A    between atoms: C_11  and  C_12
REMARK    8  A    between atoms: C_12  and  C_14
REMARK    9  A    between atoms: C_17  and  O_18
REMARK   10  A    between atoms: O_18  and  C_19
REMARK   11  A    between atoms: C_26  and  O_27
REMARK                            x       y       z     vdW  Elec       q    Type
REMARK                         _______ _______ _______ _____ _____    ______ ____
ROOT
ATOM      1  C   UNL     1       7.589   6.772  17.840  0.00  0.00    +0.000 C 
ATOM      2  O   UNL     1       7.656   5.599  18.163  0.00  0.00    +0.000 OA
ENDROOT
BRANCH   1   4
ATOM      3  C   UNL     1       8.344   9.112  17.959  0.00  0.00    +0.000 C 
ATOM      4  C   UNL     1       8.262   7.898  18.525  0.00  0.00    +0.000 C 
BRANCH   3   7
ATOM      5  C   UNL     1       9.976  12.515  18.367  0.00  0.00    +0.000 A 
ATOM      6  C   UNL     1       9.354  11.382  17.808  0.00  0.00    +0.000 A 
ATOM      7  C   UNL     1       9.006  10.269  18.588  0.00  0.00    +0.000 A 
ATOM      8  C   UNL     1       9.264  10.319  19.962  0.00  0.00    +0.000 A 
ATOM      9  C   UNL     1       9.884  11.433  20.533  0.00  0.00    +0.000 A 
ATOM     10  C   UNL     1      10.244  12.525  19.739  0.00  0.00    +0.000 A 
BRANCH   5  12
ATOM     11  C   UNL     1      11.458  13.410  16.713  0.00  0.00    +0.000 C 
ATOM     12  O   UNL     1      10.245  13.493  17.446  0.00  0.00    +0.000 OA
ENDBRANCH   5  12
BRANCH  10  13
ATOM     13  O   UNL     1      10.852  13.587  20.348  0.00  0.00    +0.000 OA
ATOM     14  H   UNL     1      11.105  13.337  21.251  0.00  0.00    +0.000 HD
ENDBRANCH  10  13
ENDBRANCH   3   7
ENDBRANCH   1   4
BRANCH   1  15
ATOM     15  O   UNL     1       6.848   7.292  16.828  0.00  0.00    +0.000 OA
BRANCH  15  16
ATOM     16  C   UNL     1       5.438   7.284  17.054  0.00  0.00    +0.000 C 
BRANCH  16  17
ATOM     17  C   UNL     1       4.788   5.922  16.815  0.00  0.00    +0.000 C 
ATOM     18  O   UNL     1       5.055   5.230  15.836  0.00  0.00    +0.000 OA
BRANCH  17  19
ATOM     19  C   UNL     1       3.760   5.445  17.797  0.00  0.00    +0.000 A 
ATOM     20  C   UNL     1       3.469   6.137  18.979  0.00  0.00    +0.000 A 
ATOM     21  C   UNL     1       2.482   5.666  19.859  0.00  0.00    +0.000 A 
ATOM     22  C   UNL     1       1.775   4.501  19.561  0.00  0.00    +0.000 A 
ATOM     23  C   UNL     1       2.080   3.797  18.394  0.00  0.00    +0.000 A 
ATOM     24  C   UNL     1       3.057   4.269  17.512  0.00  0.00    +0.000 A 
BRANCH  22  25
ATOM     25  O   UNL     1       0.804   3.936  20.340  0.00  0.00    +0.000 OA
BRANCH  25  26
ATOM     26  C   UNL     1       1.241   2.963  21.275  0.00  0.00    +0.000 C 
ATOM     27  F   UNL     1       1.655   1.856  20.609  0.00  0.00    +0.000 F 
ATOM     28  F   UNL     1       2.332   3.468  21.907  0.00  0.00    +0.000 F 
ENDBRANCH  25  26
ENDBRANCH  22  25
ENDBRANCH  17  19
ENDBRANCH  16  17
ENDBRANCH  15  16
ENDBRANCH   1  15
TORSDOF 10
ENDMDL
MODEL 6
REMARK VINA RESULT:      -7.3      4.231      7.495
REMARK  Name = 
REMARK  11 active torsions:
REMARK  status: ('A' for Active; 'I' for Inactive)
REMARK    1  A    between atoms: C_1  and  O_2
REMARK    2  A    between atoms: O_2  and  C_3
REMARK    3  A    between atoms: C_5  and  C_6
REMARK    4  A    between atoms: C_7  and  C_8
REMARK    5  A    between atoms: C_8  and  O_10
REMARK    6  A    between atoms: O_10  and  C_11
REMARK    7  A    between atoms: C_11  and  C_12
REMARK    8  A    between atoms: C_12  and  C_14
REMARK    9  A    between atoms: C_17  and  O_18
REMARK   10  A    between atoms: O_18  and  C_19
REMARK   11  A    between atoms: C_26  and  O_27
REMARK                            x       y       z     vdW  Elec       q    Type
REMARK                         _______ _______ _______ _____ _____    ______ ____
ROOT
ATOM      1  C   UNL     1       7.738   6.962  17.860  0.00  0.00    +0.000 C 
ATOM      2  O   UNL     1       7.556   6.465  18.957  0.00  0.00    +0.000 OA
ENDROOT
BRANCH   1   4
ATOM      3  C   UNL     1       8.765   9.152  18.319  0.00  0.00    +0.000 C 
ATOM      4  C   UNL     1       7.930   8.402  17.582  0.00  0.00    +0.000 C 
BRANCH   3   7
ATOM      5  C   UNL     1      10.562  12.475  17.949  0.00  0.00    +0.000 A 
ATOM      6  C   UNL     1      10.294  11.109  18.168  0.00  0.00    +0.000 A 
ATOM      7  C   UNL     1       8.993  10.590  18.096  0.00  0.00    +0.000 A 
ATOM      8  C   UNL     1       7.951  11.463  17.766  0.00  0.00    +0.000 A 
ATOM      9  C   UNL     1       8.197  12.821  17.550  0.00  0.00    +0.000 A 
ATOM     10  C   UNL     1       9.496  13.327  17.645  0.00  0.00    +0.000 A 
BRANCH   5  12
ATOM     11  C   UNL     1      12.327  13.397  19.278  0.00  0.00    +0.000 C 
ATOM     12  O   UNL     1      11.889  12.791  18.071  0.00  0.00    +0.000 OA
ENDBRANCH   5  12
BRANCH  10  13
ATOM     13  O   UNL     1       9.681  14.664  17.429  0.00  0.00    +0.000 OA
ATOM     14  H   UNL     1       8.863  15.047  17.075  0.00  0.00    +0.000 HD
ENDBRANCH  10  13
ENDBRANCH   3   7
ENDBRANCH   1   4
BRANCH   1  15
ATOM     15  O   UNL     1       7.750   6.310  16.668  0.00  0.00    +0.000 OA
BRANCH  15  16
ATOM     16  C   UNL     1       6.704   5.352  16.501  0.00  0.00    +0.000 C 
BRANCH  16  17
ATOM     17  C   UNL     1       5.328   5.981  16.284  0.00  0.00    +0.000 C 
ATOM     18  O   UNL     1       5.108   6.787  15.383  0.00  0.00    +0.000 OA
BRANCH  17  19
ATOM     19  C   UNL     1       4.227   5.624  17.238  0.00  0.00    +0.000 A 
ATOM     20  C   UNL     1       3.661   4.344  17.289  0.00  0.00    +0.000 A 
ATOM     21  C   UNL     1       2.648   4.048  18.215  0.00  0.00    +0.000 A 
ATOM     22  C   UNL     1       2.195   5.027  19.098  0.00  0.00    +0.000 A 
ATOM     23  C   UNL     1       2.743   6.310  19.032  0.00  0.00    +0.000 A 
ATOM     24  C   UNL     1       3.758   6.606  18.117  0.00  0.00    +0.000 A 
BRANCH  22  25
ATOM     25  O   UNL     1       1.210   4.866  20.031  0.00  0.00    +0.000 OA
BRANCH  25  26
ATOM     26  C   UNL     1       1.257   3.667  20.789  0.00  0.00    +0.000 C 
ATOM     27  F   UNL     1       0.951   2.618  19.986  0.00  0.00    +0.000 F 
ATOM     28  F   UNL     1       2.542   3.490  21.188  0.00  0.00    +0.000 F 
ENDBRANCH  25  26
ENDBRANCH  22  25
ENDBRANCH  17  19
ENDBRANCH  16  17
ENDBRANCH  15  16
ENDBRANCH   1  15
TORSDOF 10
ENDMDL
MODEL 7
REMARK VINA RESULT:      -7.3      4.386      7.447
REMARK  Name = 
REMARK  11 active torsions:
REMARK  status: ('A' for Active; 'I' for Inactive)
REMARK    1  A    between atoms: C_1  and  O_2
REMARK    2  A    between atoms: O_2  and  C_3
REMARK    3  A    between atoms: C_5  and  C_6
REMARK    4  A    between atoms: C_7  and  C_8
REMARK    5  A    between atoms: C_8  and  O_10
REMARK    6  A    between atoms: O_10  and  C_11
REMARK    7  A    between atoms: C_11  and  C_12
REMARK    8  A    between atoms: C_12  and  C_14
REMARK    9  A    between atoms: C_17  and  O_18
REMARK   10  A    between atoms: O_18  and  C_19
REMARK   11  A    between atoms: C_26  and  O_27
REMARK                            x       y       z     vdW  Elec       q    Type
REMARK                         _______ _______ _______ _____ _____    ______ ____
ROOT
ATOM      1  C   UNL     1       7.900   6.946  18.251  0.00  0.00    +0.000 C 
ATOM      2  O   UNL     1       7.705   5.880  18.809  0.00  0.00    +0.000 OA
ENDROOT
BRANCH   1   4
ATOM      3  C   UNL     1       8.495   9.335  18.277  0.00  0.00    +0.000 C 
ATOM      4  C   UNL     1       8.583   8.119  18.839  0.00  0.00    +0.000 C 
BRANCH   3   7
ATOM      5  C   UNL     1       9.881  12.862  18.485  0.00  0.00    +0.000 A 
ATOM      6  C   UNL     1       9.269  11.685  18.013  0.00  0.00    +0.000 A 
ATOM      7  C   UNL     1       9.157  10.537  18.812  0.00  0.00    +0.000 A 
ATOM      8  C   UNL     1       9.648  10.593  20.120  0.00  0.00    +0.000 A 
ATOM      9  C   UNL     1      10.262  11.751  20.605  0.00  0.00    +0.000 A 
ATOM     10  C   UNL     1      10.384  12.879  19.790  0.00  0.00    +0.000 A 
BRANCH   5  12
ATOM     11  C   UNL     1       9.235  15.084  17.872  0.00  0.00    +0.000 C 
ATOM     12  O   UNL     1       9.901  13.870  17.558  0.00  0.00    +0.000 OA
ENDBRANCH   5  12
BRANCH  10  13
ATOM     13  O   UNL     1      10.998  13.983  20.312  0.00  0.00    +0.000 OA
ATOM     14  H   UNL     1      10.576  14.218  21.153  0.00  0.00    +0.000 HD
ENDBRANCH  10  13
ENDBRANCH   3   7
ENDBRANCH   1   4
BRANCH   1  15
ATOM     15  O   UNL     1       7.486   7.295  17.005  0.00  0.00    +0.000 OA
BRANCH  15  16
ATOM     16  C   UNL     1       7.029   6.207  16.200  0.00  0.00    +0.000 C 
BRANCH  16  17
ATOM     17  C   UNL     1       5.513   6.182  16.010  0.00  0.00    +0.000 C 
ATOM     18  O   UNL     1       4.946   6.866  15.162  0.00  0.00    +0.000 OA
BRANCH  17  19
ATOM     19  C   UNL     1       4.699   5.318  16.925  0.00  0.00    +0.000 A 
ATOM     20  C   UNL     1       4.484   3.955  16.682  0.00  0.00    +0.000 A 
ATOM     21  C   UNL     1       3.733   3.179  17.579  0.00  0.00    +0.000 A 
ATOM     22  C   UNL     1       3.194   3.758  18.727  0.00  0.00    +0.000 A 
ATOM     23  C   UNL     1       3.387   5.122  18.959  0.00  0.00    +0.000 A 
ATOM     24  C   UNL     1       4.142   5.895  18.071  0.00  0.00    +0.000 A 
BRANCH  22  25
ATOM     25  O   UNL     1       2.438   3.114  19.665  0.00  0.00    +0.000 OA
BRANCH  25  26
ATOM     26  C   UNL     1       1.033   3.142  19.463  0.00  0.00    +0.000 C 
ATOM     27  F   UNL     1       0.491   4.125  20.224  0.00  0.00    +0.000 F 
ATOM     28  F   UNL     1       0.818   3.489  18.169  0.00  0.00    +0.000 F 
ENDBRANCH  25  26
ENDBRANCH  22  25
ENDBRANCH  17  19
ENDBRANCH  16  17
ENDBRANCH  15  16
ENDBRANCH   1  15
TORSDOF 10
ENDMDL
MODEL 8
REMARK VINA RESULT:      -7.2      4.189      7.107
REMARK  Name = 
REMARK  11 active torsions:
REMARK  status: ('A' for Active; 'I' for Inactive)
REMARK    1  A    between atoms: C_1  and  O_2
REMARK    2  A    between atoms: O_2  and  C_3
REMARK    3  A    between atoms: C_5  and  C_6
REMARK    4  A    between atoms: C_7  and  C_8
REMARK    5  A    between atoms: C_8  and  O_10
REMARK    6  A    between atoms: O_10  and  C_11
REMARK    7  A    between atoms: C_11  and  C_12
REMARK    8  A    between atoms: C_12  and  C_14
REMARK    9  A    between atoms: C_17  and  O_18
REMARK   10  A    between atoms: O_18  and  C_19
REMARK   11  A    between atoms: C_26  and  O_27
REMARK                            x       y       z     vdW  Elec       q    Type
REMARK                         _______ _______ _______ _____ _____    ______ ____
ROOT
ATOM      1  C   UNL     1       7.566   6.983  17.692  0.00  0.00    +0.000 C 
ATOM      2  O   UNL     1       7.594   6.451  18.788  0.00  0.00    +0.000 OA
ENDROOT
BRANCH   1   4
ATOM      3  C   UNL     1       8.588   9.138  18.300  0.00  0.00    +0.000 C 
ATOM      4  C   UNL     1       7.936   8.385  17.400  0.00  0.00    +0.000 C 
BRANCH   3   7
ATOM      5  C   UNL     1       8.317  12.853  17.566  0.00  0.00    +0.000 A 
ATOM      6  C   UNL     1       7.994  11.498  17.780  0.00  0.00    +0.000 A 
ATOM      7  C   UNL     1       8.977  10.541  18.070  0.00  0.00    +0.000 A 
ATOM      8  C   UNL     1      10.305  10.968  18.174  0.00  0.00    +0.000 A 
ATOM      9  C   UNL     1      10.645  12.306  17.961  0.00  0.00    +0.000 A 
ATOM     10  C   UNL     1       9.657  13.245  17.653  0.00  0.00    +0.000 A 
BRANCH   5  12
ATOM     11  C   UNL     1       6.873  14.649  18.215  0.00  0.00    +0.000 C 
ATOM     12  O   UNL     1       7.224  13.631  17.289  0.00  0.00    +0.000 OA
ENDBRANCH   5  12
BRANCH  10  13
ATOM     13  O   UNL     1      10.044  14.540  17.449  0.00  0.00    +0.000 OA
ATOM     14  H   UNL     1      10.646  14.578  16.689  0.00  0.00    +0.000 HD
ENDBRANCH  10  13
ENDBRANCH   3   7
ENDBRANCH   1   4
BRANCH   1  15
ATOM     15  O   UNL     1       7.143   6.420  16.531  0.00  0.00    +0.000 OA
BRANCH  15  16
ATOM     16  C   UNL     1       5.725   6.308  16.402  0.00  0.00    +0.000 C 
BRANCH  16  17
ATOM     17  C   UNL     1       5.226   4.863  16.372  0.00  0.00    +0.000 C 
ATOM     18  O   UNL     1       5.585   4.063  15.512  0.00  0.00    +0.000 OA
BRANCH  17  19
ATOM     19  C   UNL     1       4.233   4.435  17.410  0.00  0.00    +0.000 A 
ATOM     20  C   UNL     1       3.626   5.339  18.290  0.00  0.00    +0.000 A 
ATOM     21  C   UNL     1       2.683   4.896  19.231  0.00  0.00    +0.000 A 
ATOM     22  C   UNL     1       2.338   3.547  19.298  0.00  0.00    +0.000 A 
ATOM     23  C   UNL     1       2.960   2.640  18.437  0.00  0.00    +0.000 A 
ATOM     24  C   UNL     1       3.893   3.080  17.492  0.00  0.00    +0.000 A 
BRANCH  22  25
ATOM     25  O   UNL     1       1.448   2.993  20.175  0.00  0.00    +0.000 OA
BRANCH  25  26
ATOM     26  C   UNL     1       1.782   3.094  21.551  0.00  0.00    +0.000 C 
ATOM     27  F   UNL     1       0.877   2.399  22.283  0.00  0.00    +0.000 F 
ATOM     28  F   UNL     1       2.979   2.476  21.723  0.00  0.00    +0.000 F 
ENDBRANCH  25  26
ENDBRANCH  22  25
ENDBRANCH  17  19
ENDBRANCH  16  17
ENDBRANCH  15  16
ENDBRANCH   1  15
TORSDOF 10
ENDMDL
MODEL 9
REMARK VINA RESULT:      -7.2      4.243      7.134
REMARK  Name = 
REMARK  11 active torsions:
REMARK  status: ('A' for Active; 'I' for Inactive)
REMARK    1  A    between atoms: C_1  and  O_2
REMARK    2  A    between atoms: O_2  and  C_3
REMARK    3  A    between atoms: C_5  and  C_6
REMARK    4  A    between atoms: C_7  and  C_8
REMARK    5  A    between atoms: C_8  and  O_10
REMARK    6  A    between atoms: O_10  and  C_11
REMARK    7  A    between atoms: C_11  and  C_12
REMARK    8  A    between atoms: C_12  and  C_14
REMARK    9  A    between atoms: C_17  and  O_18
REMARK   10  A    between atoms: O_18  and  C_19
REMARK   11  A    between atoms: C_26  and  O_27
REMARK                            x       y       z     vdW  Elec       q    Type
REMARK                         _______ _______ _______ _____ _____    ______ ____
ROOT
ATOM      1  C   UNL     1       7.818   7.103  17.922  0.00  0.00    +0.000 C 
ATOM      2  O   UNL     1       7.924   6.569  19.012  0.00  0.00    +0.000 OA
ENDROOT
BRANCH   1   4
ATOM      3  C   UNL     1       8.810   9.291  18.461  0.00  0.00    +0.000 C 
ATOM      4  C   UNL     1       8.086   8.528  17.626  0.00  0.00    +0.000 C 
BRANCH   3   7
ATOM      5  C   UNL     1       8.310  12.953  17.596  0.00  0.00    +0.000 A 
ATOM      6  C   UNL     1       8.078  11.582  17.821  0.00  0.00    +0.000 A 
ATOM      7  C   UNL     1       9.105  10.715  18.224  0.00  0.00    +0.000 A 
ATOM      8  C   UNL     1      10.379  11.253  18.432  0.00  0.00    +0.000 A 
ATOM      9  C   UNL     1      10.628  12.609  18.209  0.00  0.00    +0.000 A 
ATOM     10  C   UNL     1       9.600  13.456  17.788  0.00  0.00    +0.000 A 
BRANCH   5  12
ATOM     11  C   UNL     1       6.637  14.594  18.090  0.00  0.00    +0.000 C 
ATOM     12  O   UNL     1       7.187  13.633  17.201  0.00  0.00    +0.000 OA
ENDBRANCH   5  12
BRANCH  10  13
ATOM     13  O   UNL     1       9.899  14.774  17.581  0.00  0.00    +0.000 OA
ATOM     14  H   UNL     1      10.127  14.907  16.647  0.00  0.00    +0.000 HD
ENDBRANCH  10  13
ENDBRANCH   3   7
ENDBRANCH   1   4
BRANCH   1  15
ATOM     15  O   UNL     1       7.385   6.521  16.774  0.00  0.00    +0.000 OA
BRANCH  15  16
ATOM     16  C   UNL     1       5.988   6.669  16.519  0.00  0.00    +0.000 C 
BRANCH  16  17
ATOM     17  C   UNL     1       5.283   5.352  16.194  0.00  0.00    +0.000 C 
ATOM     18  O   UNL     1       5.326   4.842  15.078  0.00  0.00    +0.000 OA
BRANCH  17  19
ATOM     19  C   UNL     1       4.479   4.694  17.275  0.00  0.00    +0.000 A 
ATOM     20  C   UNL     1       3.557   3.673  17.013  0.00  0.00    +0.000 A 
ATOM     21  C   UNL     1       2.843   3.069  18.059  0.00  0.00    +0.000 A 
ATOM     22  C   UNL     1       3.047   3.478  19.377  0.00  0.00    +0.000 A 
ATOM     23  C   UNL     1       3.948   4.513  19.637  0.00  0.00    +0.000 A 
ATOM     24  C   UNL     1       4.667   5.110  18.597  0.00  0.00    +0.000 A 
BRANCH  22  25
ATOM     25  O   UNL     1       2.405   2.979  20.475  0.00  0.00    +0.000 OA
BRANCH  25  26
ATOM     26  C   UNL     1       1.054   3.377  20.645  0.00  0.00    +0.000 C 
ATOM     27  F   UNL     1       0.935   4.695  20.351  0.00  0.00    +0.000 F 
ATOM     28  F   UNL     1       0.316   2.705  19.725  0.00  0.00    +0.000 F 
ENDBRANCH  25  26
ENDBRANCH  22  25
ENDBRANCH  17  19
ENDBRANCH  16  17
ENDBRANCH  15  16
ENDBRANCH   1  15
TORSDOF 10
ENDMDL
