MODEL 1
REMARK VINA RESULT:      -7.8      0.000      0.000
REMARK  Name = 
REMARK  3 active torsions:
REMARK  status: ('A' for Active; 'I' for Inactive)
REMARK    1  A    between atoms: C_6  and  O_7
REMARK    2  A    between atoms: O_7  and  C_8
REMARK    3  A    between atoms: C_8  and  C_9
REMARK                            x       y       z     vdW  Elec       q    Type
REMARK                         _______ _______ _______ _____ _____    ______ ____
ROOT
ATOM      1  O   UNL     1       2.799   7.810  18.049  0.00  0.00    +0.000 OA
ENDROOT
BRANCH   1   7
ATOM      2  C   UNL     1       1.052   9.561  18.104  0.00  0.00    +0.000 A 
ATOM      3  C   UNL     1       0.164  10.318  18.863  0.00  0.00    +0.000 A 
ATOM      4  C   UNL     1       0.071  10.106  20.232  0.00  0.00    +0.000 A 
ATOM      5  C   UNL     1       0.837   9.107  20.841  0.00  0.00    +0.000 A 
ATOM      6  C   UNL     1       1.744   8.361  20.084  0.00  0.00    +0.000 A 
ATOM      7  C   UNL     1       1.865   8.586  18.706  0.00  0.00    +0.000 A 
ATOM      8  O   UNL     1       0.764   8.819  22.182  0.00  0.00    +0.000 OA
ATOM      9  C   UNL     1      -0.380   9.431  22.785  0.00  0.00    +0.000 C 
ATOM     10  C   UNL     1      -0.543  10.869  22.322  0.00  0.00    +0.000 C 
ATOM     11  O   UNL     1      -0.803  10.911  20.915  0.00  0.00    +0.000 OA
ENDBRANCH   1   7
BRANCH   1  12
ATOM     12  C   UNL     1       2.599   6.402  18.192  0.00  0.00    +0.000 C 
BRANCH  12  13
ATOM     13  C   UNL     1       3.795   5.711  18.879  0.00  0.00    +0.000 C 
ATOM     14  C   UNL     1       4.880   5.306  17.877  0.00  0.00    +0.000 C 
ATOM     15  C   UNL     1       4.387   4.251  16.896  0.00  0.00    +0.000 C 
ATOM     16  C   UNL     1       3.411   3.205  17.463  0.00  0.00    +0.000 C 
ATOM     17  N   UNL     1       2.679   3.514  18.697  0.00  0.00    +0.000 NA
ATOM     18  C   UNL     1       2.229   2.277  19.349  0.00  0.00    +0.000 C 
ATOM     19  C   UNL     1       1.259   2.594  20.489  0.00  0.00    +0.000 C 
ATOM     20  C   UNL     1       1.911   3.506  21.518  0.00  0.00    +0.000 C 
ATOM     21  C   UNL     1       2.461   4.758  20.841  0.00  0.00    +0.000 C 
ATOM     22  C   UNL     1       3.361   4.424  19.630  0.00  0.00    +0.000 C 
ENDBRANCH  12  13
ENDBRANCH   1  12
TORSDOF 3
ENDMDL
MODEL 2
REMARK VINA RESULT:      -7.4      0.933      1.804
REMARK  Name = 
REMARK  3 active torsions:
REMARK  status: ('A' for Active; 'I' for Inactive)
REMARK    1  A    between atoms: C_6  and  O_7
REMARK    2  A    between atoms: O_7  and  C_8
REMARK    3  A    between atoms: C_8  and  C_9
REMARK                            x       y       z     vdW  Elec       q    Type
REMARK                         _______ _______ _______ _____ _____    ______ ____
ROOT
ATOM      1  O   UNL     1       2.744   7.816  18.127  0.00  0.00    +0.000 OA
ENDROOT
BRANCH   1   7
ATOM      2  C   UNL     1       1.579   8.222  20.272  0.00  0.00    +0.000 A 
ATOM      3  C   UNL     1       0.710   9.022  21.008  0.00  0.00    +0.000 A 
ATOM      4  C   UNL     1       0.178  10.171  20.439  0.00  0.00    +0.000 A 
ATOM      5  C   UNL     1       0.545  10.547  19.143  0.00  0.00    +0.000 A 
ATOM      6  C   UNL     1       1.400   9.735  18.395  0.00  0.00    +0.000 A 
ATOM      7  C   UNL     1       1.922   8.558  18.950  0.00  0.00    +0.000 A 
ATOM      8  O   UNL     1       0.088  11.691  18.537  0.00  0.00    +0.000 OA
ATOM      9  C   UNL     1      -0.533  12.569  19.481  0.00  0.00    +0.000 C 
ATOM     10  C   UNL     1      -1.451  11.807  20.421  0.00  0.00    +0.000 C 
ATOM     11  O   UNL     1      -0.694  10.889  21.217  0.00  0.00    +0.000 OA
ENDBRANCH   1   7
BRANCH   1  12
ATOM     12  C   UNL     1       2.560   6.403  18.231  0.00  0.00    +0.000 C 
BRANCH  12  13
ATOM     13  C   UNL     1       3.762   5.708  18.902  0.00  0.00    +0.000 C 
ATOM     14  C   UNL     1       4.844   5.322  17.889  0.00  0.00    +0.000 C 
ATOM     15  C   UNL     1       4.351   4.278  16.896  0.00  0.00    +0.000 C 
ATOM     16  C   UNL     1       3.383   3.220  17.455  0.00  0.00    +0.000 C 
ATOM     17  N   UNL     1       2.656   3.508  18.697  0.00  0.00    +0.000 NA
ATOM     18  C   UNL     1       2.215   2.260  19.334  0.00  0.00    +0.000 C 
ATOM     19  C   UNL     1       1.250   2.557  20.483  0.00  0.00    +0.000 C 
ATOM     20  C   UNL     1       1.903   3.459  21.521  0.00  0.00    +0.000 C 
ATOM     21  C   UNL     1       2.444   4.722  20.858  0.00  0.00    +0.000 C 
ATOM     22  C   UNL     1       3.339   4.409  19.638  0.00  0.00    +0.000 C 
ENDBRANCH  12  13
ENDBRANCH   1  12
TORSDOF 3
ENDMDL
MODEL 3
REMARK VINA RESULT:      -7.3      1.585      3.430
REMARK  Name = 
REMARK  3 active torsions:
REMARK  status: ('A' for Active; 'I' for Inactive)
REMARK    1  A    between atoms: C_6  and  O_7
REMARK    2  A    between atoms: O_7  and  C_8
REMARK    3  A    between atoms: C_8  and  C_9
REMARK                            x       y       z     vdW  Elec       q    Type
REMARK                         _______ _______ _______ _____ _____    ______ ____
ROOT
ATOM      1  O   UNL     1       1.890   8.172  18.930  0.00  0.00    +0.000 OA
ENDROOT
BRANCH   1   7
ATOM      2  C   UNL     1       1.258   8.285  21.320  0.00  0.00    +0.000 A 
ATOM      3  C   UNL     1       0.669   9.012  22.350  0.00  0.00    +0.000 A 
ATOM      4  C   UNL     1       0.178  10.287  22.104  0.00  0.00    +0.000 A 
ATOM      5  C   UNL     1       0.312  10.856  20.833  0.00  0.00    +0.000 A 
ATOM      6  C   UNL     1       0.884  10.121  19.794  0.00  0.00    +0.000 A 
ATOM      7  C   UNL     1       1.358   8.822  20.024  0.00  0.00    +0.000 A 
ATOM      8  O   UNL     1      -0.115  12.127  20.534  0.00  0.00    +0.000 OA
ATOM      9  C   UNL     1      -0.410  12.872  21.719  0.00  0.00    +0.000 C 
ATOM     10  C   UNL     1      -1.201  12.035  22.712  0.00  0.00    +0.000 C 
ATOM     11  O   UNL     1      -0.416  10.926  23.161  0.00  0.00    +0.000 OA
ENDBRANCH   1   7
BRANCH   1  12
ATOM     12  C   UNL     1       2.487   6.908  19.230  0.00  0.00    +0.000 C 
BRANCH  12  13
ATOM     13  C   UNL     1       2.642   6.026  17.975  0.00  0.00    +0.000 C 
ATOM     14  C   UNL     1       1.904   4.691  18.113  0.00  0.00    +0.000 C 
ATOM     15  C   UNL     1       2.492   3.825  19.220  0.00  0.00    +0.000 C 
ATOM     16  C   UNL     1       4.018   3.902  19.398  0.00  0.00    +0.000 C 
ATOM     17  N   UNL     1       4.738   5.064  18.862  0.00  0.00    +0.000 NA
ATOM     18  C   UNL     1       6.155   4.739  18.657  0.00  0.00    +0.000 C 
ATOM     19  C   UNL     1       6.955   6.004  18.341  0.00  0.00    +0.000 C 
ATOM     20  C   UNL     1       6.406   6.698  17.103  0.00  0.00    +0.000 C 
ATOM     21  C   UNL     1       4.912   6.965  17.267  0.00  0.00    +0.000 C 
ATOM     22  C   UNL     1       4.131   5.699  17.683  0.00  0.00    +0.000 C 
ENDBRANCH  12  13
ENDBRANCH   1  12
TORSDOF 3
ENDMDL
MODEL 4
REMARK VINA RESULT:      -7.3      1.503      3.179
REMARK  Name = 
REMARK  3 active torsions:
REMARK  status: ('A' for Active; 'I' for Inactive)
REMARK    1  A    between atoms: C_6  and  O_7
REMARK    2  A    between atoms: O_7  and  C_8
REMARK    3  A    between atoms: C_8  and  C_9
REMARK                            x       y       z     vdW  Elec       q    Type
REMARK                         _______ _______ _______ _____ _____    ______ ____
ROOT
ATOM      1  O   UNL     1       2.815   7.955  17.888  0.00  0.00    +0.000 OA
ENDROOT
BRANCH   1   7
ATOM      2  C   UNL     1       0.960   9.587  18.027  0.00  0.00    +0.000 A 
ATOM      3  C   UNL     1       0.054  10.277  18.828  0.00  0.00    +0.000 A 
ATOM      4  C   UNL     1       0.027  10.047  20.197  0.00  0.00    +0.000 A 
ATOM      5  C   UNL     1       0.880   9.095  20.765  0.00  0.00    +0.000 A 
ATOM      6  C   UNL     1       1.804   8.418  19.967  0.00  0.00    +0.000 A 
ATOM      7  C   UNL     1       1.858   8.662  18.587  0.00  0.00    +0.000 A 
ATOM      8  O   UNL     1       0.876   8.791  22.105  0.00  0.00    +0.000 OA
ATOM      9  C   UNL     1      -0.282   9.322  22.757  0.00  0.00    +0.000 C 
ATOM     10  C   UNL     1      -0.555  10.750  22.317  0.00  0.00    +0.000 C 
ATOM     11  O   UNL     1      -0.871  10.787  20.921  0.00  0.00    +0.000 OA
ENDBRANCH   1   7
BRANCH   1  12
ATOM     12  C   UNL     1       3.119   6.672  18.440  0.00  0.00    +0.000 C 
BRANCH  12  13
ATOM     13  C   UNL     1       3.687   5.704  17.382  0.00  0.00    +0.000 C 
ATOM     14  C   UNL     1       3.129   4.287  17.539  0.00  0.00    +0.000 C 
ATOM     15  C   UNL     1       3.553   3.648  18.856  0.00  0.00    +0.000 C 
ATOM     16  C   UNL     1       4.968   3.996  19.349  0.00  0.00    +0.000 C 
ATOM     17  N   UNL     1       5.626   5.201  18.828  0.00  0.00    +0.000 NA
ATOM     18  C   UNL     1       7.083   5.097  18.984  0.00  0.00    +0.000 C 
ATOM     19  C   UNL     1       7.751   6.438  18.678  0.00  0.00    +0.000 C 
ATOM     20  C   UNL     1       7.419   6.901  17.267  0.00  0.00    +0.000 C 
ATOM     21  C   UNL     1       5.907   6.931  17.063  0.00  0.00    +0.000 C 
ATOM     22  C   UNL     1       5.233   5.601  17.469  0.00  0.00    +0.000 C 
ENDBRANCH  12  13
ENDBRANCH   1  12
TORSDOF 3
ENDMDL
MODEL 5
REMARK VINA RESULT:      -7.2      1.194      1.577
REMARK  Name = 
REMARK  3 active torsions:
REMARK  status: ('A' for Active; 'I' for Inactive)
REMARK    1  A    between atoms: C_6  and  O_7
REMARK    2  A    between atoms: O_7  and  C_8
REMARK    3  A    between atoms: C_8  and  C_9
REMARK                            x       y       z     vdW  Elec       q    Type
REMARK                         _______ _______ _______ _____ _____    ______ ____
ROOT
ATOM      1  O   UNL     1       2.344   6.942  20.023  0.00  0.00    +0.000 OA
ENDROOT
BRANCH   1   7
ATOM      2  C   UNL     1       1.845   8.725  18.382  0.00  0.00    +0.000 A 
ATOM      3  C   UNL     1       1.261   9.963  18.126  0.00  0.00    +0.000 A 
ATOM      4  C   UNL     1       0.589  10.632  19.140  0.00  0.00    +0.000 A 
ATOM      5  C   UNL     1       0.463  10.047  20.404  0.00  0.00    +0.000 A 
ATOM      6  C   UNL     1       1.066   8.815  20.668  0.00  0.00    +0.000 A 
ATOM      7  C   UNL     1       1.771   8.143  19.659  0.00  0.00    +0.000 A 
ATOM      8  O   UNL     1      -0.223  10.636  21.437  0.00  0.00    +0.000 OA
ATOM      9  C   UNL     1      -1.024  11.728  20.975  0.00  0.00    +0.000 C 
ATOM     10  C   UNL     1      -0.255  12.601  19.999  0.00  0.00    +0.000 C 
ATOM     11  O   UNL     1       0.068  11.859  18.818  0.00  0.00    +0.000 OA
ENDBRANCH   1   7
BRANCH   1  12
ATOM     12  C   UNL     1       3.195   6.371  19.027  0.00  0.00    +0.000 C 
BRANCH  12  13
ATOM     13  C   UNL     1       4.072   5.236  19.593  0.00  0.00    +0.000 C 
ATOM     14  C   UNL     1       5.383   5.078  18.817  0.00  0.00    +0.000 C 
ATOM     15  C   UNL     1       5.145   4.646  17.376  0.00  0.00    +0.000 C 
ATOM     16  C   UNL     1       3.974   3.675  17.148  0.00  0.00    +0.000 C 
ATOM     17  N   UNL     1       2.920   3.581  18.166  0.00  0.00    +0.000 NA
ATOM     18  C   UNL     1       2.209   2.301  18.051  0.00  0.00    +0.000 C 
ATOM     19  C   UNL     1       0.960   2.301  18.934  0.00  0.00    +0.000 C 
ATOM     20  C   UNL     1       1.324   2.555  20.389  0.00  0.00    +0.000 C 
ATOM     21  C   UNL     1       2.139   3.838  20.514  0.00  0.00    +0.000 C 
ATOM     22  C   UNL     1       3.343   3.867  19.545  0.00  0.00    +0.000 C 
ENDBRANCH  12  13
ENDBRANCH   1  12
TORSDOF 3
ENDMDL
MODEL 6
REMARK VINA RESULT:      -7.2      3.429      7.442
REMARK  Name = 
REMARK  3 active torsions:
REMARK  status: ('A' for Active; 'I' for Inactive)
REMARK    1  A    between atoms: C_6  and  O_7
REMARK    2  A    between atoms: O_7  and  C_8
REMARK    3  A    between atoms: C_8  and  C_9
REMARK                            x       y       z     vdW  Elec       q    Type
REMARK                         _______ _______ _______ _____ _____    ______ ____
ROOT
ATOM      1  O   UNL     1       4.799   4.384  17.923  0.00  0.00    +0.000 OA
ENDROOT
BRANCH   1   7
ATOM      2  C   UNL     1       6.809   5.421  16.920  0.00  0.00    +0.000 A 
ATOM      3  C   UNL     1       7.582   5.636  15.782  0.00  0.00    +0.000 A 
ATOM      4  C   UNL     1       7.213   5.055  14.576  0.00  0.00    +0.000 A 
ATOM      5  C   UNL     1       6.090   4.224  14.513  0.00  0.00    +0.000 A 
ATOM      6  C   UNL     1       5.302   4.025  15.648  0.00  0.00    +0.000 A 
ATOM      7  C   UNL     1       5.650   4.628  16.864  0.00  0.00    +0.000 A 
ATOM      8  O   UNL     1       5.694   3.587  13.362  0.00  0.00    +0.000 OA
ATOM      9  C   UNL     1       6.717   3.631  12.363  0.00  0.00    +0.000 C 
ATOM     10  C   UNL     1       7.339   5.014  12.272  0.00  0.00    +0.000 C 
ATOM     11  O   UNL     1       8.007   5.338  13.496  0.00  0.00    +0.000 OA
ENDBRANCH   1   7
BRANCH   1  12
ATOM     12  C   UNL     1       4.248   5.561  18.519  0.00  0.00    +0.000 C 
BRANCH  12  13
ATOM     13  C   UNL     1       2.837   5.878  17.983  0.00  0.00    +0.000 C 
ATOM     14  C   UNL     1       2.365   7.276  18.395  0.00  0.00    +0.000 C 
ATOM     15  C   UNL     1       2.199   7.402  19.904  0.00  0.00    +0.000 C 
ATOM     16  C   UNL     1       1.680   6.150  20.632  0.00  0.00    +0.000 C 
ATOM     17  N   UNL     1       1.806   4.843  19.976  0.00  0.00    +0.000 NA
ATOM     18  C   UNL     1       0.838   3.892  20.537  0.00  0.00    +0.000 C 
ATOM     19  C   UNL     1       1.130   2.475  20.041  0.00  0.00    +0.000 C 
ATOM     20  C   UNL     1       1.086   2.412  18.522  0.00  0.00    +0.000 C 
ATOM     21  C   UNL     1       2.024   3.455  17.923  0.00  0.00    +0.000 C 
ATOM     22  C   UNL     1       1.784   4.866  18.506  0.00  0.00    +0.000 C 
ENDBRANCH  12  13
ENDBRANCH   1  12
TORSDOF 3
ENDMDL
MODEL 7
REMARK VINA RESULT:      -7.2      1.036      1.782
REMARK  Name = 
REMARK  3 active torsions:
REMARK  status: ('A' for Active; 'I' for Inactive)
REMARK    1  A    between atoms: C_6  and  O_7
REMARK    2  A    between atoms: O_7  and  C_8
REMARK    3  A    between atoms: C_8  and  C_9
REMARK                            x       y       z     vdW  Elec       q    Type
REMARK                         _______ _______ _______ _____ _____    ______ ____
ROOT
ATOM      1  O   UNL     1       2.141   8.175  18.597  0.00  0.00    +0.000 OA
ENDROOT
BRANCH   1   7
ATOM      2  C   UNL     1       1.447   8.135  20.971  0.00  0.00    +0.000 A 
ATOM      3  C   UNL     1       0.848   8.803  22.036  0.00  0.00    +0.000 A 
ATOM      4  C   UNL     1       0.397  10.105  21.870  0.00  0.00    +0.000 A 
ATOM      5  C   UNL     1       0.580  10.760  20.647  0.00  0.00    +0.000 A 
ATOM      6  C   UNL     1       1.161  10.085  19.572  0.00  0.00    +0.000 A 
ATOM      7  C   UNL     1       1.595   8.760  19.721  0.00  0.00    +0.000 A 
ATOM      8  O   UNL     1       0.195  12.060  20.429  0.00  0.00    +0.000 OA
ATOM      9  C   UNL     1      -0.114  12.726  21.657  0.00  0.00    +0.000 C 
ATOM     10  C   UNL     1      -0.952  11.843  22.566  0.00  0.00    +0.000 C 
ATOM     11  O   UNL     1      -0.209  10.684  22.955  0.00  0.00    +0.000 OA
ENDBRANCH   1   7
BRANCH   1  12
ATOM     12  C   UNL     1       2.115   6.746  18.606  0.00  0.00    +0.000 C 
BRANCH  12  13
ATOM     13  C   UNL     1       3.404   6.145  19.203  0.00  0.00    +0.000 C 
ATOM     14  C   UNL     1       4.534   6.067  18.173  0.00  0.00    +0.000 C 
ATOM     15  C   UNL     1       4.203   5.114  17.032  0.00  0.00    +0.000 C 
ATOM     16  C   UNL     1       3.399   3.859  17.413  0.00  0.00    +0.000 C 
ATOM     17  N   UNL     1       2.632   3.860  18.665  0.00  0.00    +0.000 NA
ATOM     18  C   UNL     1       2.377   2.484  19.111  0.00  0.00    +0.000 C 
ATOM     19  C   UNL     1       1.375   2.472  20.266  0.00  0.00    +0.000 C 
ATOM     20  C   UNL     1       1.885   3.302  21.435  0.00  0.00    +0.000 C 
ATOM     21  C   UNL     1       2.236   4.711  20.969  0.00  0.00    +0.000 C 
ATOM     22  C   UNL     1       3.172   4.707  19.739  0.00  0.00    +0.000 C 
ENDBRANCH  12  13
ENDBRANCH   1  12
TORSDOF 3
ENDMDL
MODEL 8
REMARK VINA RESULT:      -7.1      1.850      3.672
REMARK  Name = 
REMARK  3 active torsions:
REMARK  status: ('A' for Active; 'I' for Inactive)
REMARK    1  A    between atoms: C_6  and  O_7
REMARK    2  A    between atoms: O_7  and  C_8
REMARK    3  A    between atoms: C_8  and  C_9
REMARK                            x       y       z     vdW  Elec       q    Type
REMARK                         _______ _______ _______ _____ _____    ______ ____
ROOT
ATOM      1  O   UNL     1       2.222   7.444  18.153  0.00  0.00    +0.000 OA
ENDROOT
BRANCH   1   7
ATOM      2  C   UNL     1       1.711   8.033  20.501  0.00  0.00    +0.000 A 
ATOM      3  C   UNL     1       1.220   8.976  21.401  0.00  0.00    +0.000 A 
ATOM      4  C   UNL     1       0.803  10.218  20.942  0.00  0.00    +0.000 A 
ATOM      5  C   UNL     1       0.915  10.537  19.584  0.00  0.00    +0.000 A 
ATOM      6  C   UNL     1       1.387   9.586  18.678  0.00  0.00    +0.000 A 
ATOM      7  C   UNL     1       1.785   8.319  19.127  0.00  0.00    +0.000 A 
ATOM      8  O   UNL     1       0.559  11.761  19.071  0.00  0.00    +0.000 OA
ATOM      9  C   UNL     1       0.370  12.727  20.110  0.00  0.00    +0.000 C 
ATOM     10  C   UNL     1      -0.427  12.144  21.265  0.00  0.00    +0.000 C 
ATOM     11  O   UNL     1       0.304  11.079  21.883  0.00  0.00    +0.000 OA
ENDBRANCH   1   7
BRANCH   1  12
ATOM     12  C   UNL     1       3.189   6.495  18.606  0.00  0.00    +0.000 C 
BRANCH  12  13
ATOM     13  C   UNL     1       3.748   5.638  17.452  0.00  0.00    +0.000 C 
ATOM     14  C   UNL     1       3.278   4.183  17.534  0.00  0.00    +0.000 C 
ATOM     15  C   UNL     1       3.810   3.480  18.777  0.00  0.00    +0.000 C 
ATOM     16  C   UNL     1       5.230   3.874  19.218  0.00  0.00    +0.000 C 
ATOM     17  N   UNL     1       5.791   5.149  18.753  0.00  0.00    +0.000 NA
ATOM     18  C   UNL     1       7.258   5.119  18.823  0.00  0.00    +0.000 C 
ATOM     19  C   UNL     1       7.834   6.515  18.581  0.00  0.00    +0.000 C 
ATOM     20  C   UNL     1       7.397   7.056  17.227  0.00  0.00    +0.000 C 
ATOM     21  C   UNL     1       5.877   7.012  17.107  0.00  0.00    +0.000 C 
ATOM     22  C   UNL     1       5.300   5.620  17.449  0.00  0.00    +0.000 C 
ENDBRANCH  12  13
ENDBRANCH   1  12
TORSDOF 3
ENDMDL
MODEL 9
REMARK VINA RESULT:      -6.9      1.369      2.954
REMARK  Name = 
REMARK  3 active torsions:
REMARK  status: ('A' for Active; 'I' for Inactive)
REMARK    1  A    between atoms: C_6  and  O_7
REMARK    2  A    between atoms: O_7  and  C_8
REMARK    3  A    between atoms: C_8  and  C_9
REMARK                            x       y       z     vdW  Elec       q    Type
REMARK                         _______ _______ _______ _____ _____    ______ ____
ROOT
ATOM      1  O   UNL     1       2.630   6.691  19.807  0.00  0.00    +0.000 OA
ENDROOT
BRANCH   1   7
ATOM      2  C   UNL     1       2.018   8.481  18.212  0.00  0.00    +0.000 A 
ATOM      3  C   UNL     1       1.377   9.698  17.994  0.00  0.00    +0.000 A 
ATOM      4  C   UNL     1       0.703  10.320  19.035  0.00  0.00    +0.000 A 
ATOM      5  C   UNL     1       0.632   9.707  20.291  0.00  0.00    +0.000 A 
ATOM      6  C   UNL     1       1.291   8.497  20.517  0.00  0.00    +0.000 A 
ATOM      7  C   UNL     1       1.999   7.874  19.480  0.00  0.00    +0.000 A 
ATOM      8  O   UNL     1      -0.053  10.248  21.351  0.00  0.00    +0.000 OA
ATOM      9  C   UNL     1      -0.910  11.314  20.929  0.00  0.00    +0.000 C 
ATOM     10  C   UNL     1      -0.201  12.236  19.951  0.00  0.00    +0.000 C 
ATOM     11  O   UNL     1       0.124  11.529  18.750  0.00  0.00    +0.000 OA
ENDBRANCH   1   7
BRANCH   1  12
ATOM     12  C   UNL     1       1.812   5.768  20.530  0.00  0.00    +0.000 C 
BRANCH  12  13
ATOM     13  C   UNL     1       1.370   4.576  19.658  0.00  0.00    +0.000 C 
ATOM     14  C   UNL     1       0.757   3.447  20.492  0.00  0.00    +0.000 C 
ATOM     15  C   UNL     1       1.771   2.824  21.443  0.00  0.00    +0.000 C 
ATOM     16  C   UNL     1       3.213   2.720  20.918  0.00  0.00    +0.000 C 
ATOM     17  N   UNL     1       3.628   3.583  19.805  0.00  0.00    +0.000 NA
ATOM     18  C   UNL     1       4.795   3.011  19.120  0.00  0.00    +0.000 C 
ATOM     19  C   UNL     1       5.381   4.017  18.129  0.00  0.00    +0.000 C 
ATOM     20  C   UNL     1       4.340   4.437  17.102  0.00  0.00    +0.000 C 
ATOM     21  C   UNL     1       3.086   4.954  17.801  0.00  0.00    +0.000 C 
ATOM     22  C   UNL     1       2.561   3.969  18.869  0.00  0.00    +0.000 C 
ENDBRANCH  12  13
ENDBRANCH   1  12
TORSDOF 3
ENDMDL
