MODEL 1
REMARK VINA RESULT:      -6.1      0.000      0.000
REMARK  Name = 
REMARK  10 active torsions:
REMARK  status: ('A' for Active; 'I' for Inactive)
REMARK    1  A    between atoms: C_1  and  C_2
REMARK    2  A    between atoms: C_2  and  C_3
REMARK    3  A    between atoms: C_3  and  C_4
REMARK    4  A    between atoms: C_4  and  O_5
REMARK    5  A    between atoms: O_5  and  C_6
REMARK    6  A    between atoms: C_9  and  C_10
REMARK    7  A    between atoms: C_11  and  C_12
REMARK    8  A    between atoms: C_12  and  O_14
REMARK    9  A    between atoms: O_14  and  C_15
REMARK   10  A    between atoms: C_15  and  C_16
REMARK                            x       y       z     vdW  Elec       q    Type
REMARK                         _______ _______ _______ _____ _____    ______ ____
ROOT
ATOM      1  C   UNL     1       3.221   5.271  19.667  0.00  0.00    +0.000 A 
ATOM      2  C   UNL     1       4.372   4.511  19.807  0.00  0.00    +0.000 A 
ATOM      3  C   UNL     1       5.286   4.358  18.787  0.00  0.00    +0.000 A 
ATOM      4  C   UNL     1       5.059   4.946  17.526  0.00  0.00    +0.000 A 
ATOM      5  C   UNL     1       3.923   5.748  17.387  0.00  0.00    +0.000 A 
ATOM      6  C   UNL     1       2.995   5.915  18.432  0.00  0.00    +0.000 A 
ENDROOT
BRANCH   4   7
ATOM      7  C   UNL     1       6.049   4.737  16.459  0.00  0.00    +0.000 C 
ATOM      8  C   UNL     1       5.915   5.187  15.203  0.00  0.00    +0.000 C 
BRANCH   8   9
ATOM      9  C   UNL     1       6.941   4.863  14.175  0.00  0.00    +0.000 C 
ATOM     10  O   UNL     1       7.885   5.545  13.865  0.00  0.00    +0.000 OA
BRANCH   9  11
ATOM     11  O   UNL     1       6.567   3.682  13.600  0.00  0.00    +0.000 OA
BRANCH  11  12
ATOM     12  C   UNL     1       5.253   3.708  13.017  0.00  0.00    +0.000 C 
BRANCH  12  13
ATOM     13  C   UNL     1       5.232   2.976  11.691  0.00  0.00    +0.000 C 
ATOM     14 BR   UNL     1       3.572   3.353  10.751  0.00  0.00    +0.000 Br
ENDBRANCH  12  13
ENDBRANCH  11  12
ENDBRANCH   9  11
ENDBRANCH   8   9
ENDBRANCH   4   7
BRANCH   1  15
ATOM     15  O   UNL     1       2.330   5.417  20.704  0.00  0.00    +0.000 OA
BRANCH  15  16
ATOM     16  C   UNL     1       1.046   4.796  20.449  0.00  0.00    +0.000 C 
BRANCH  16  17
ATOM     17  C   UNL     1       1.197   3.286  20.447  0.00  0.00    +0.000 C 
BRANCH  17  19
ATOM     18  C   UNL     1       1.937   2.179  18.314  0.00  0.00    +0.000 C 
ATOM     19  C   UNL     1       0.752   2.680  19.120  0.00  0.00    +0.000 C 
ENDBRANCH  17  19
ENDBRANCH  16  17
ENDBRANCH  15  16
ENDBRANCH   1  15
TORSDOF 9
ENDMDL
MODEL 2
REMARK VINA RESULT:      -6.0      2.431      7.158
REMARK  Name = 
REMARK  10 active torsions:
REMARK  status: ('A' for Active; 'I' for Inactive)
REMARK    1  A    between atoms: C_1  and  C_2
REMARK    2  A    between atoms: C_2  and  C_3
REMARK    3  A    between atoms: C_3  and  C_4
REMARK    4  A    between atoms: C_4  and  O_5
REMARK    5  A    between atoms: O_5  and  C_6
REMARK    6  A    between atoms: C_9  and  C_10
REMARK    7  A    between atoms: C_11  and  C_12
REMARK    8  A    between atoms: C_12  and  O_14
REMARK    9  A    between atoms: O_14  and  C_15
REMARK   10  A    between atoms: C_15  and  C_16
REMARK                            x       y       z     vdW  Elec       q    Type
REMARK                         _______ _______ _______ _____ _____    ______ ____
ROOT
ATOM      1  C   UNL     1       5.862   4.624  15.408  0.00  0.00    +0.000 A 
ATOM      2  C   UNL     1       5.042   3.750  16.106  0.00  0.00    +0.000 A 
ATOM      3  C   UNL     1       4.081   4.187  16.991  0.00  0.00    +0.000 A 
ATOM      4  C   UNL     1       3.920   5.563  17.255  0.00  0.00    +0.000 A 
ATOM      5  C   UNL     1       4.713   6.453  16.526  0.00  0.00    +0.000 A 
ATOM      6  C   UNL     1       5.688   6.008  15.613  0.00  0.00    +0.000 A 
ENDROOT
BRANCH   4   7
ATOM      7  C   UNL     1       2.898   5.984  18.224  0.00  0.00    +0.000 C 
ATOM      8  C   UNL     1       2.970   5.763  19.545  0.00  0.00    +0.000 C 
BRANCH   8   9
ATOM      9  C   UNL     1       1.848   6.165  20.436  0.00  0.00    +0.000 C 
ATOM     10  O   UNL     1       1.594   7.284  20.808  0.00  0.00    +0.000 OA
BRANCH   9  11
ATOM     11  O   UNL     1       1.208   5.018  20.812  0.00  0.00    +0.000 OA
BRANCH  11  12
ATOM     12  C   UNL     1       2.090   3.986  21.284  0.00  0.00    +0.000 C 
BRANCH  12  13
ATOM     13  C   UNL     1       1.552   2.613  20.941  0.00  0.00    +0.000 C 
ATOM     14 BR   UNL     1       1.044   2.549  19.065  0.00  0.00    +0.000 Br
ENDBRANCH  12  13
ENDBRANCH  11  12
ENDBRANCH   9  11
ENDBRANCH   8   9
ENDBRANCH   4   7
BRANCH   1  15
ATOM     15  O   UNL     1       6.807   4.162  14.522  0.00  0.00    +0.000 OA
BRANCH  15  16
ATOM     16  C   UNL     1       6.686   4.743  13.200  0.00  0.00    +0.000 C 
BRANCH  16  17
ATOM     17  C   UNL     1       6.908   3.673  12.147  0.00  0.00    +0.000 C 
BRANCH  17  19
ATOM     18  C   UNL     1       4.467   3.418  11.603  0.00  0.00    +0.000 C 
ATOM     19  C   UNL     1       5.727   2.711  12.067  0.00  0.00    +0.000 C 
ENDBRANCH  17  19
ENDBRANCH  16  17
ENDBRANCH  15  16
ENDBRANCH   1  15
TORSDOF 9
ENDMDL
MODEL 3
REMARK VINA RESULT:      -5.9      2.241      6.943
REMARK  Name = 
REMARK  10 active torsions:
REMARK  status: ('A' for Active; 'I' for Inactive)
REMARK    1  A    between atoms: C_1  and  C_2
REMARK    2  A    between atoms: C_2  and  C_3
REMARK    3  A    between atoms: C_3  and  C_4
REMARK    4  A    between atoms: C_4  and  O_5
REMARK    5  A    between atoms: O_5  and  C_6
REMARK    6  A    between atoms: C_9  and  C_10
REMARK    7  A    between atoms: C_11  and  C_12
REMARK    8  A    between atoms: C_12  and  O_14
REMARK    9  A    between atoms: O_14  and  C_15
REMARK   10  A    between atoms: C_15  and  C_16
REMARK                            x       y       z     vdW  Elec       q    Type
REMARK                         _______ _______ _______ _____ _____    ______ ____
ROOT
ATOM      1  C   UNL     1       6.830   5.316  15.736  0.00  0.00    +0.000 A 
ATOM      2  C   UNL     1       7.095   4.567  16.872  0.00  0.00    +0.000 A 
ATOM      3  C   UNL     1       6.242   4.536  17.953  0.00  0.00    +0.000 A 
ATOM      4  C   UNL     1       5.064   5.313  17.961  0.00  0.00    +0.000 A 
ATOM      5  C   UNL     1       4.768   6.039  16.804  0.00  0.00    +0.000 A 
ATOM      6  C   UNL     1       5.633   6.062  15.695  0.00  0.00    +0.000 A 
ENDROOT
BRANCH   4   7
ATOM      7  C   UNL     1       4.194   5.267  19.144  0.00  0.00    +0.000 C 
ATOM      8  C   UNL     1       2.915   5.669  19.160  0.00  0.00    +0.000 C 
BRANCH   8   9
ATOM      9  C   UNL     1       2.137   5.650  20.429  0.00  0.00    +0.000 C 
ATOM     10  O   UNL     1       1.478   6.554  20.879  0.00  0.00    +0.000 OA
BRANCH   9  11
ATOM     11  O   UNL     1       2.373   4.442  21.021  0.00  0.00    +0.000 OA
BRANCH  11  12
ATOM     12  C   UNL     1       1.218   3.589  21.087  0.00  0.00    +0.000 C 
BRANCH  12  13
ATOM     13  C   UNL     1       0.850   3.066  19.715  0.00  0.00    +0.000 C 
ATOM     14 BR   UNL     1       2.300   1.980  19.007  0.00  0.00    +0.000 Br
ENDBRANCH  12  13
ENDBRANCH  11  12
ENDBRANCH   9  11
ENDBRANCH   8   9
ENDBRANCH   4   7
BRANCH   1  15
ATOM     15  O   UNL     1       7.694   5.322  14.666  0.00  0.00    +0.000 OA
BRANCH  15  16
ATOM     16  C   UNL     1       7.041   5.056  13.400  0.00  0.00    +0.000 C 
BRANCH  16  17
ATOM     17  C   UNL     1       6.250   3.765  13.491  0.00  0.00    +0.000 C 
BRANCH  17  19
ATOM     18  C   UNL     1       4.567   3.268  11.690  0.00  0.00    +0.000 C 
ATOM     19  C   UNL     1       6.020   3.150  12.114  0.00  0.00    +0.000 C 
ENDBRANCH  17  19
ENDBRANCH  16  17
ENDBRANCH  15  16
ENDBRANCH   1  15
TORSDOF 9
ENDMDL
MODEL 4
REMARK VINA RESULT:      -5.9      4.734      7.322
REMARK  Name = 
REMARK  10 active torsions:
REMARK  status: ('A' for Active; 'I' for Inactive)
REMARK    1  A    between atoms: C_1  and  C_2
REMARK    2  A    between atoms: C_2  and  C_3
REMARK    3  A    between atoms: C_3  and  C_4
REMARK    4  A    between atoms: C_4  and  O_5
REMARK    5  A    between atoms: O_5  and  C_6
REMARK    6  A    between atoms: C_9  and  C_10
REMARK    7  A    between atoms: C_11  and  C_12
REMARK    8  A    between atoms: C_12  and  O_14
REMARK    9  A    between atoms: O_14  and  C_15
REMARK   10  A    between atoms: C_15  and  C_16
REMARK                            x       y       z     vdW  Elec       q    Type
REMARK                         _______ _______ _______ _____ _____    ______ ____
ROOT
ATOM      1  C   UNL     1       7.292   7.466  17.590  0.00  0.00    +0.000 A 
ATOM      2  C   UNL     1       6.014   7.304  17.078  0.00  0.00    +0.000 A 
ATOM      3  C   UNL     1       5.230   6.212  17.379  0.00  0.00    +0.000 A 
ATOM      4  C   UNL     1       5.723   5.179  18.203  0.00  0.00    +0.000 A 
ATOM      5  C   UNL     1       6.994   5.353  18.758  0.00  0.00    +0.000 A 
ATOM      6  C   UNL     1       7.792   6.473  18.459  0.00  0.00    +0.000 A 
ENDROOT
BRANCH   4   7
ATOM      7  C   UNL     1       4.861   4.021  18.480  0.00  0.00    +0.000 C 
ATOM      8  C   UNL     1       4.266   3.277  17.537  0.00  0.00    +0.000 C 
BRANCH   8   9
ATOM      9  C   UNL     1       3.354   2.166  17.921  0.00  0.00    +0.000 C 
ATOM     10  O   UNL     1       3.662   1.148  18.490  0.00  0.00    +0.000 OA
BRANCH   9  11
ATOM     11  O   UNL     1       2.115   2.485  17.440  0.00  0.00    +0.000 OA
BRANCH  11  12
ATOM     12  C   UNL     1       1.383   3.397  18.275  0.00  0.00    +0.000 C 
BRANCH  12  13
ATOM     13  C   UNL     1       0.713   2.667  19.420  0.00  0.00    +0.000 C 
ATOM     14 BR   UNL     1       1.575   3.135  21.099  0.00  0.00    +0.000 Br
ENDBRANCH  12  13
ENDBRANCH  11  12
ENDBRANCH   9  11
ENDBRANCH   8   9
ENDBRANCH   4   7
BRANCH   1  15
ATOM     15  O   UNL     1       8.050   8.571  17.282  0.00  0.00    +0.000 OA
BRANCH  15  16
ATOM     16  C   UNL     1       8.527   9.284  18.450  0.00  0.00    +0.000 C 
BRANCH  16  17
ATOM     17  C   UNL     1       9.262  10.539  18.020  0.00  0.00    +0.000 C 
BRANCH  17  19
ATOM     18  C   UNL     1       9.717  11.036  20.443  0.00  0.00    +0.000 C 
ATOM     19  C   UNL     1       9.245  11.601  19.116  0.00  0.00    +0.000 C 
ENDBRANCH  17  19
ENDBRANCH  16  17
ENDBRANCH  15  16
ENDBRANCH   1  15
TORSDOF 9
ENDMDL
MODEL 5
REMARK VINA RESULT:      -5.7      4.843      6.642
REMARK  Name = 
REMARK  10 active torsions:
REMARK  status: ('A' for Active; 'I' for Inactive)
REMARK    1  A    between atoms: C_1  and  C_2
REMARK    2  A    between atoms: C_2  and  C_3
REMARK    3  A    between atoms: C_3  and  C_4
REMARK    4  A    between atoms: C_4  and  O_5
REMARK    5  A    between atoms: O_5  and  C_6
REMARK    6  A    between atoms: C_9  and  C_10
REMARK    7  A    between atoms: C_11  and  C_12
REMARK    8  A    between atoms: C_12  and  O_14
REMARK    9  A    between atoms: O_14  and  C_15
REMARK   10  A    between atoms: C_15  and  C_16
REMARK                            x       y       z     vdW  Elec       q    Type
REMARK                         _______ _______ _______ _____ _____    ______ ____
ROOT
ATOM      1  C   UNL     1       1.105   9.699  19.288  0.00  0.00    +0.000 A 
ATOM      2  C   UNL     1       1.661   9.392  18.055  0.00  0.00    +0.000 A 
ATOM      3  C   UNL     1       2.333   8.213  17.821  0.00  0.00    +0.000 A 
ATOM      4  C   UNL     1       2.518   7.273  18.857  0.00  0.00    +0.000 A 
ATOM      5  C   UNL     1       1.925   7.555  20.091  0.00  0.00    +0.000 A 
ATOM      6  C   UNL     1       1.229   8.755  20.328  0.00  0.00    +0.000 A 
ENDROOT
BRANCH   4   7
ATOM      7  C   UNL     1       3.261   6.038  18.569  0.00  0.00    +0.000 C 
ATOM      8  C   UNL     1       4.142   5.472  19.406  0.00  0.00    +0.000 C 
BRANCH   8   9
ATOM      9  C   UNL     1       4.897   4.258  18.992  0.00  0.00    +0.000 C 
ATOM     10  O   UNL     1       6.083   4.076  19.110  0.00  0.00    +0.000 OA
BRANCH   9  11
ATOM     11  O   UNL     1       4.003   3.421  18.385  0.00  0.00    +0.000 OA
BRANCH  11  12
ATOM     12  C   UNL     1       3.510   2.376  19.240  0.00  0.00    +0.000 C 
BRANCH  12  13
ATOM     13  C   UNL     1       2.002   2.266  19.149  0.00  0.00    +0.000 C 
ATOM     14 BR   UNL     1       1.172   3.387  20.504  0.00  0.00    +0.000 Br
ENDBRANCH  12  13
ENDBRANCH  11  12
ENDBRANCH   9  11
ENDBRANCH   8   9
ENDBRANCH   4   7
BRANCH   1  15
ATOM     15  O   UNL     1       0.430  10.880  19.493  0.00  0.00    +0.000 OA
BRANCH  15  16
ATOM     16  C   UNL     1      -0.675  10.755  20.422  0.00  0.00    +0.000 C 
BRANCH  16  17
ATOM     17  C   UNL     1      -0.492  11.727  21.572  0.00  0.00    +0.000 C 
BRANCH  17  19
ATOM     18  C   UNL     1      -2.378  11.920  23.224  0.00  0.00    +0.000 C 
ATOM     19  C   UNL     1      -1.099  11.187  22.863  0.00  0.00    +0.000 C 
ENDBRANCH  17  19
ENDBRANCH  16  17
ENDBRANCH  15  16
ENDBRANCH   1  15
TORSDOF 9
ENDMDL
MODEL 6
REMARK VINA RESULT:      -5.7      1.050      1.652
REMARK  Name = 
REMARK  10 active torsions:
REMARK  status: ('A' for Active; 'I' for Inactive)
REMARK    1  A    between atoms: C_1  and  C_2
REMARK    2  A    between atoms: C_2  and  C_3
REMARK    3  A    between atoms: C_3  and  C_4
REMARK    4  A    between atoms: C_4  and  O_5
REMARK    5  A    between atoms: O_5  and  C_6
REMARK    6  A    between atoms: C_9  and  C_10
REMARK    7  A    between atoms: C_11  and  C_12
REMARK    8  A    between atoms: C_12  and  O_14
REMARK    9  A    between atoms: O_14  and  C_15
REMARK   10  A    between atoms: C_15  and  C_16
REMARK                            x       y       z     vdW  Elec       q    Type
REMARK                         _______ _______ _______ _____ _____    ______ ____
ROOT
ATOM      1  C   UNL     1       3.831   4.854  18.971  0.00  0.00    +0.000 A 
ATOM      2  C   UNL     1       4.013   6.087  18.363  0.00  0.00    +0.000 A 
ATOM      3  C   UNL     1       4.592   6.219  17.120  0.00  0.00    +0.000 A 
ATOM      4  C   UNL     1       5.067   5.087  16.424  0.00  0.00    +0.000 A 
ATOM      5  C   UNL     1       4.851   3.837  17.011  0.00  0.00    +0.000 A 
ATOM      6  C   UNL     1       4.249   3.700  18.276  0.00  0.00    +0.000 A 
ENDROOT
BRANCH   4   7
ATOM      7  C   UNL     1       5.699   5.277  15.111  0.00  0.00    +0.000 C 
ATOM      8  C   UNL     1       6.650   4.479  14.606  0.00  0.00    +0.000 C 
BRANCH   8   9
ATOM      9  C   UNL     1       7.279   4.796  13.295  0.00  0.00    +0.000 C 
ATOM     10  O   UNL     1       7.968   5.753  13.043  0.00  0.00    +0.000 OA
BRANCH   9  11
ATOM     11  O   UNL     1       6.865   3.837  12.414  0.00  0.00    +0.000 OA
BRANCH  11  12
ATOM     12  C   UNL     1       5.466   3.524  12.508  0.00  0.00    +0.000 C 
BRANCH  12  13
ATOM     13  C   UNL     1       5.023   2.662  11.345  0.00  0.00    +0.000 C 
ATOM     14 BR   UNL     1       3.405   3.396  10.553  0.00  0.00    +0.000 Br
ENDBRANCH  12  13
ENDBRANCH  11  12
ENDBRANCH   9  11
ENDBRANCH   8   9
ENDBRANCH   4   7
BRANCH   1  15
ATOM     15  O   UNL     1       3.241   4.748  20.209  0.00  0.00    +0.000 OA
BRANCH  15  16
ATOM     16  C   UNL     1       1.987   5.467  20.310  0.00  0.00    +0.000 C 
BRANCH  16  17
ATOM     17  C   UNL     1       0.834   4.483  20.373  0.00  0.00    +0.000 C 
BRANCH  17  19
ATOM     18  C   UNL     1       1.409   2.535  21.855  0.00  0.00    +0.000 C 
ATOM     19  C   UNL     1       1.331   3.041  20.427  0.00  0.00    +0.000 C 
ENDBRANCH  17  19
ENDBRANCH  16  17
ENDBRANCH  15  16
ENDBRANCH   1  15
TORSDOF 9
ENDMDL
MODEL 7
REMARK VINA RESULT:      -5.7      1.169      1.634
REMARK  Name = 
REMARK  10 active torsions:
REMARK  status: ('A' for Active; 'I' for Inactive)
REMARK    1  A    between atoms: C_1  and  C_2
REMARK    2  A    between atoms: C_2  and  C_3
REMARK    3  A    between atoms: C_3  and  C_4
REMARK    4  A    between atoms: C_4  and  O_5
REMARK    5  A    between atoms: O_5  and  C_6
REMARK    6  A    between atoms: C_9  and  C_10
REMARK    7  A    between atoms: C_11  and  C_12
REMARK    8  A    between atoms: C_12  and  O_14
REMARK    9  A    between atoms: O_14  and  C_15
REMARK   10  A    between atoms: C_15  and  C_16
REMARK                            x       y       z     vdW  Elec       q    Type
REMARK                         _______ _______ _______ _____ _____    ______ ____
ROOT
ATOM      1  C   UNL     1       3.983   5.246  19.224  0.00  0.00    +0.000 A 
ATOM      2  C   UNL     1       3.666   6.219  18.288  0.00  0.00    +0.000 A 
ATOM      3  C   UNL     1       4.356   6.357  17.104  0.00  0.00    +0.000 A 
ATOM      4  C   UNL     1       5.456   5.525  16.812  0.00  0.00    +0.000 A 
ATOM      5  C   UNL     1       5.757   4.515  17.730  0.00  0.00    +0.000 A 
ATOM      6  C   UNL     1       5.046   4.365  18.935  0.00  0.00    +0.000 A 
ENDROOT
BRANCH   4   7
ATOM      7  C   UNL     1       6.178   5.722  15.547  0.00  0.00    +0.000 C 
ATOM      8  C   UNL     1       6.753   4.738  14.841  0.00  0.00    +0.000 C 
BRANCH   8   9
ATOM      9  C   UNL     1       7.523   5.050  13.606  0.00  0.00    +0.000 C 
ATOM     10  O   UNL     1       8.499   5.754  13.529  0.00  0.00    +0.000 OA
BRANCH   9  11
ATOM     11  O   UNL     1       6.870   4.449  12.568  0.00  0.00    +0.000 OA
BRANCH  11  12
ATOM     12  C   UNL     1       5.922   3.449  12.976  0.00  0.00    +0.000 C 
BRANCH  12  13
ATOM     13  C   UNL     1       5.387   2.688  11.782  0.00  0.00    +0.000 C 
ATOM     14 BR   UNL     1       6.700   1.382  11.186  0.00  0.00    +0.000 Br
ENDBRANCH  12  13
ENDBRANCH  11  12
ENDBRANCH   9  11
ENDBRANCH   8   9
ENDBRANCH   4   7
BRANCH   1  15
ATOM     15  O   UNL     1       3.272   5.122  20.394  0.00  0.00    +0.000 OA
BRANCH  15  16
ATOM     16  C   UNL     1       1.844   4.987  20.187  0.00  0.00    +0.000 C 
BRANCH  16  17
ATOM     17  C   UNL     1       1.385   3.617  20.648  0.00  0.00    +0.000 C 
BRANCH  17  19
ATOM     18  C   UNL     1       1.444   3.132  18.182  0.00  0.00    +0.000 C 
ATOM     19  C   UNL     1       0.768   2.818  19.504  0.00  0.00    +0.000 C 
ENDBRANCH  17  19
ENDBRANCH  16  17
ENDBRANCH  15  16
ENDBRANCH   1  15
TORSDOF 9
ENDMDL
MODEL 8
REMARK VINA RESULT:      -5.7      2.289      7.115
REMARK  Name = 
REMARK  10 active torsions:
REMARK  status: ('A' for Active; 'I' for Inactive)
REMARK    1  A    between atoms: C_1  and  C_2
REMARK    2  A    between atoms: C_2  and  C_3
REMARK    3  A    between atoms: C_3  and  C_4
REMARK    4  A    between atoms: C_4  and  O_5
REMARK    5  A    between atoms: O_5  and  C_6
REMARK    6  A    between atoms: C_9  and  C_10
REMARK    7  A    between atoms: C_11  and  C_12
REMARK    8  A    between atoms: C_12  and  O_14
REMARK    9  A    between atoms: O_14  and  C_15
REMARK   10  A    between atoms: C_15  and  C_16
REMARK                            x       y       z     vdW  Elec       q    Type
REMARK                         _______ _______ _______ _____ _____    ______ ____
ROOT
ATOM      1  C   UNL     1       5.748   5.351  15.127  0.00  0.00    +0.000 A 
ATOM      2  C   UNL     1       5.288   6.596  15.529  0.00  0.00    +0.000 A 
ATOM      3  C   UNL     1       4.511   6.769  16.654  0.00  0.00    +0.000 A 
ATOM      4  C   UNL     1       4.114   5.660  17.429  0.00  0.00    +0.000 A 
ATOM      5  C   UNL     1       4.606   4.406  17.056  0.00  0.00    +0.000 A 
ATOM      6  C   UNL     1       5.409   4.230  15.913  0.00  0.00    +0.000 A 
ENDROOT
BRANCH   4   7
ATOM      7  C   UNL     1       3.266   5.888  18.608  0.00  0.00    +0.000 C 
ATOM      8  C   UNL     1       3.185   5.055  19.656  0.00  0.00    +0.000 C 
BRANCH   8   9
ATOM      9  C   UNL     1       2.242   5.340  20.771  0.00  0.00    +0.000 C 
ATOM     10  O   UNL     1       1.520   6.300  20.872  0.00  0.00    +0.000 OA
BRANCH   9  11
ATOM     11  O   UNL     1       2.406   4.345  21.693  0.00  0.00    +0.000 OA
BRANCH  11  12
ATOM     12  C   UNL     1       2.314   3.020  21.145  0.00  0.00    +0.000 C 
BRANCH  12  13
ATOM     13  C   UNL     1       0.912   2.732  20.652  0.00  0.00    +0.000 C 
ATOM     14 BR   UNL     1       0.940   2.379  18.740  0.00  0.00    +0.000 Br
ENDBRANCH  12  13
ENDBRANCH  11  12
ENDBRANCH   9  11
ENDBRANCH   8   9
ENDBRANCH   4   7
BRANCH   1  15
ATOM     15  O   UNL     1       6.530   5.206  14.005  0.00  0.00    +0.000 OA
BRANCH  15  16
ATOM     16  C   UNL     1       6.731   3.824  13.620  0.00  0.00    +0.000 C 
BRANCH  16  17
ATOM     17  C   UNL     1       6.132   3.582  12.247  0.00  0.00    +0.000 C 
BRANCH  17  19
ATOM     18  C   UNL     1       4.021   3.171  10.944  0.00  0.00    +0.000 C 
ATOM     19  C   UNL     1       4.619   3.405  12.319  0.00  0.00    +0.000 C 
ENDBRANCH  17  19
ENDBRANCH  16  17
ENDBRANCH  15  16
ENDBRANCH   1  15
TORSDOF 9
ENDMDL
MODEL 9
REMARK VINA RESULT:      -5.7      0.945      1.154
REMARK  Name = 
REMARK  10 active torsions:
REMARK  status: ('A' for Active; 'I' for Inactive)
REMARK    1  A    between atoms: C_1  and  C_2
REMARK    2  A    between atoms: C_2  and  C_3
REMARK    3  A    between atoms: C_3  and  C_4
REMARK    4  A    between atoms: C_4  and  O_5
REMARK    5  A    between atoms: O_5  and  C_6
REMARK    6  A    between atoms: C_9  and  C_10
REMARK    7  A    between atoms: C_11  and  C_12
REMARK    8  A    between atoms: C_12  and  O_14
REMARK    9  A    between atoms: O_14  and  C_15
REMARK   10  A    between atoms: C_15  and  C_16
REMARK                            x       y       z     vdW  Elec       q    Type
REMARK                         _______ _______ _______ _____ _____    ______ ____
ROOT
ATOM      1  C   UNL     1       3.787   5.503  19.333  0.00  0.00    +0.000 A 
ATOM      2  C   UNL     1       4.952   4.752  19.376  0.00  0.00    +0.000 A 
ATOM      3  C   UNL     1       5.836   4.697  18.321  0.00  0.00    +0.000 A 
ATOM      4  C   UNL     1       5.562   5.382  17.119  0.00  0.00    +0.000 A 
ATOM      5  C   UNL     1       4.412   6.174  17.080  0.00  0.00    +0.000 A 
ATOM      6  C   UNL     1       3.514   6.241  18.162  0.00  0.00    +0.000 A 
ENDROOT
BRANCH   4   7
ATOM      7  C   UNL     1       6.521   5.276  16.010  0.00  0.00    +0.000 C 
ATOM      8  C   UNL     1       6.180   5.057  14.732  0.00  0.00    +0.000 C 
BRANCH   8   9
ATOM      9  C   UNL     1       7.231   4.895  13.690  0.00  0.00    +0.000 C 
ATOM     10  O   UNL     1       8.186   5.611  13.518  0.00  0.00    +0.000 OA
BRANCH   9  11
ATOM     11  O   UNL     1       6.867   3.827  12.921  0.00  0.00    +0.000 OA
BRANCH  11  12
ATOM     12  C   UNL     1       5.447   3.695  12.741  0.00  0.00    +0.000 C 
BRANCH  12  13
ATOM     13  C   UNL     1       5.129   2.745  11.606  0.00  0.00    +0.000 C 
ATOM     14 BR   UNL     1       3.474   3.281  10.736  0.00  0.00    +0.000 Br
ENDBRANCH  12  13
ENDBRANCH  11  12
ENDBRANCH   9  11
ENDBRANCH   8   9
ENDBRANCH   4   7
BRANCH   1  15
ATOM     15  O   UNL     1       2.927   5.550  20.404  0.00  0.00    +0.000 OA
BRANCH  15  16
ATOM     16  C   UNL     1       1.547   5.290  20.044  0.00  0.00    +0.000 C 
BRANCH  16  17
ATOM     17  C   UNL     1       1.223   3.827  20.276  0.00  0.00    +0.000 C 
BRANCH  17  19
ATOM     18  C   UNL     1       2.849   2.294  21.428  0.00  0.00    +0.000 C 
ATOM     19  C   UNL     1       1.764   3.338  21.616  0.00  0.00    +0.000 C 
ENDBRANCH  17  19
ENDBRANCH  16  17
ENDBRANCH  15  16
ENDBRANCH   1  15
TORSDOF 9
ENDMDL
