MODEL 1
REMARK VINA RESULT:      -6.0      0.000      0.000
REMARK  Name = 
REMARK  6 active torsions:
REMARK  status: ('A' for Active; 'I' for Inactive)
REMARK    1  A    between atoms: C_2  and  C_3
REMARK    2  A    between atoms: C_3  and  C_5
REMARK    3  A    between atoms: C_5  and  C_6
REMARK    4  A    between atoms: C_6  and  N_7
REMARK    5  A    between atoms: C_6  and  C_9
REMARK    6  A    between atoms: N_7  and  C_8
REMARK                            x       y       z     vdW  Elec       q    Type
REMARK                         _______ _______ _______ _____ _____    ______ ____
ROOT
ATOM      1  C   UNL     1       4.194   4.001  19.075  0.00  0.00    +0.000 C 
ENDROOT
BRANCH   1   2
ATOM      2  C   UNL     1       5.200   5.010  18.516  0.00  0.00    +0.000 A 
ATOM      3  C   UNL     1       4.831   5.811  17.420  0.00  0.00    +0.000 A 
ATOM      4  C   UNL     1       5.710   6.763  16.895  0.00  0.00    +0.000 A 
ATOM      5  C   UNL     1       6.969   6.937  17.461  0.00  0.00    +0.000 A 
ATOM      6  C   UNL     1       7.349   6.163  18.553  0.00  0.00    +0.000 A 
ATOM      7  C   UNL     1       6.472   5.208  19.077  0.00  0.00    +0.000 A 
ENDBRANCH   1   2
BRANCH   1   8
ATOM      8  N   UNL     1       4.580   2.609  18.758  0.00  0.00    +0.000 NA
ATOM      9  C   UNL     1       3.469   1.748  18.378  0.00  0.00    +0.000 C 
ATOM     10  H   UNL     1       5.032   2.215  19.583  0.00  0.00    +0.000 HD
ENDBRANCH   1   8
BRANCH   1  11
ATOM     11  C   UNL     1       2.705   4.351  18.766  0.00  0.00    +0.000 C 
BRANCH  11  12
ATOM     12  C   UNL     1       1.832   4.694  19.966  0.00  0.00    +0.000 C 
ATOM     13  C   UNL     1       1.884   5.915  20.528  0.00  0.00    +0.000 C 
BRANCH  12  15
ATOM     14  C   UNL     1       1.472   2.744  21.462  0.00  0.00    +0.000 C 
ATOM     15  C   UNL     1       1.047   3.613  20.536  0.00  0.00    +0.000 C 
ENDBRANCH  12  15
ENDBRANCH  11  12
ENDBRANCH   1  11
TORSDOF 5
ENDMDL
MODEL 2
REMARK VINA RESULT:      -6.0      1.625      1.863
REMARK  Name = 
REMARK  6 active torsions:
REMARK  status: ('A' for Active; 'I' for Inactive)
REMARK    1  A    between atoms: C_2  and  C_3
REMARK    2  A    between atoms: C_3  and  C_5
REMARK    3  A    between atoms: C_5  and  C_6
REMARK    4  A    between atoms: C_6  and  N_7
REMARK    5  A    between atoms: C_6  and  C_9
REMARK    6  A    between atoms: N_7  and  C_8
REMARK                            x       y       z     vdW  Elec       q    Type
REMARK                         _______ _______ _______ _____ _____    ______ ____
ROOT
ATOM      1  C   UNL     1       3.142   3.683  18.182  0.00  0.00    +0.000 C 
ENDROOT
BRANCH   1   2
ATOM      2  C   UNL     1       4.011   4.544  17.261  0.00  0.00    +0.000 A 
ATOM      3  C   UNL     1       4.727   3.927  16.220  0.00  0.00    +0.000 A 
ATOM      4  C   UNL     1       5.512   4.678  15.341  0.00  0.00    +0.000 A 
ATOM      5  C   UNL     1       5.587   6.061  15.481  0.00  0.00    +0.000 A 
ATOM      6  C   UNL     1       4.877   6.692  16.497  0.00  0.00    +0.000 A 
ATOM      7  C   UNL     1       4.094   5.941  17.380  0.00  0.00    +0.000 A 
ENDBRANCH   1   2
BRANCH   1   8
ATOM      8  N   UNL     1       3.060   2.285  17.708  0.00  0.00    +0.000 NA
ATOM      9  C   UNL     1       3.630   1.305  18.622  0.00  0.00    +0.000 C 
ATOM     10  H   UNL     1       3.554   2.227  16.818  0.00  0.00    +0.000 HD
ENDBRANCH   1   8
BRANCH   1  11
ATOM     11  C   UNL     1       1.770   4.330  18.547  0.00  0.00    +0.000 C 
BRANCH  11  12
ATOM     12  C   UNL     1       1.471   4.480  20.032  0.00  0.00    +0.000 C 
ATOM     13  C   UNL     1       1.708   5.643  20.668  0.00  0.00    +0.000 C 
BRANCH  12  15
ATOM     14  C   UNL     1       1.761   2.623  21.655  0.00  0.00    +0.000 C 
ATOM     15  C   UNL     1       1.044   3.286  20.741  0.00  0.00    +0.000 C 
ENDBRANCH  12  15
ENDBRANCH  11  12
ENDBRANCH   1  11
TORSDOF 5
ENDMDL
MODEL 3
REMARK VINA RESULT:      -5.9      1.550      2.107
REMARK  Name = 
REMARK  6 active torsions:
REMARK  status: ('A' for Active; 'I' for Inactive)
REMARK    1  A    between atoms: C_2  and  C_3
REMARK    2  A    between atoms: C_3  and  C_5
REMARK    3  A    between atoms: C_5  and  C_6
REMARK    4  A    between atoms: C_6  and  N_7
REMARK    5  A    between atoms: C_6  and  C_9
REMARK    6  A    between atoms: N_7  and  C_8
REMARK                            x       y       z     vdW  Elec       q    Type
REMARK                         _______ _______ _______ _____ _____    ______ ____
ROOT
ATOM      1  C   UNL     1       4.189   3.668  18.847  0.00  0.00    +0.000 C 
ENDROOT
BRANCH   1   2
ATOM      2  C   UNL     1       4.667   4.455  17.624  0.00  0.00    +0.000 A 
ATOM      3  C   UNL     1       5.052   3.756  16.466  0.00  0.00    +0.000 A 
ATOM      4  C   UNL     1       5.471   4.437  15.319  0.00  0.00    +0.000 A 
ATOM      5  C   UNL     1       5.504   5.828  15.307  0.00  0.00    +0.000 A 
ATOM      6  C   UNL     1       5.116   6.539  16.439  0.00  0.00    +0.000 A 
ATOM      7  C   UNL     1       4.700   5.859  17.587  0.00  0.00    +0.000 A 
ENDBRANCH   1   2
BRANCH   1   8
ATOM      8  N   UNL     1       5.283   2.883  19.456  0.00  0.00    +0.000 NA
ATOM      9  C   UNL     1       4.844   1.885  20.421  0.00  0.00    +0.000 C 
ATOM     10  H   UNL     1       5.912   3.536  19.924  0.00  0.00    +0.000 HD
ENDBRANCH   1   8
BRANCH   1  11
ATOM     11  C   UNL     1       2.867   2.871  18.611  0.00  0.00    +0.000 C 
BRANCH  11  12
ATOM     12  C   UNL     1       1.576   3.675  18.681  0.00  0.00    +0.000 C 
ATOM     13  C   UNL     1       1.153   4.390  17.622  0.00  0.00    +0.000 C 
BRANCH  12  15
ATOM     14  C   UNL     1       1.232   3.009  21.049  0.00  0.00    +0.000 C 
ATOM     15  C   UNL     1       0.904   3.728  19.968  0.00  0.00    +0.000 C 
ENDBRANCH  12  15
ENDBRANCH  11  12
ENDBRANCH   1  11
TORSDOF 5
ENDMDL
MODEL 4
REMARK VINA RESULT:      -5.9      0.414      1.343
REMARK  Name = 
REMARK  6 active torsions:
REMARK  status: ('A' for Active; 'I' for Inactive)
REMARK    1  A    between atoms: C_2  and  C_3
REMARK    2  A    between atoms: C_3  and  C_5
REMARK    3  A    between atoms: C_5  and  C_6
REMARK    4  A    between atoms: C_6  and  N_7
REMARK    5  A    between atoms: C_6  and  C_9
REMARK    6  A    between atoms: N_7  and  C_8
REMARK                            x       y       z     vdW  Elec       q    Type
REMARK                         _______ _______ _______ _____ _____    ______ ____
ROOT
ATOM      1  C   UNL     1       3.898   3.933  18.536  0.00  0.00    +0.000 C 
ENDROOT
BRANCH   1   2
ATOM      2  C   UNL     1       4.958   4.975  18.172  0.00  0.00    +0.000 A 
ATOM      3  C   UNL     1       6.175   4.990  18.875  0.00  0.00    +0.000 A 
ATOM      4  C   UNL     1       7.181   5.907  18.557  0.00  0.00    +0.000 A 
ATOM      5  C   UNL     1       6.990   6.820  17.525  0.00  0.00    +0.000 A 
ATOM      6  C   UNL     1       5.798   6.815  16.808  0.00  0.00    +0.000 A 
ATOM      7  C   UNL     1       4.790   5.899  17.127  0.00  0.00    +0.000 A 
ENDBRANCH   1   2
BRANCH   1   8
ATOM      8  N   UNL     1       4.109   2.660  17.814  0.00  0.00    +0.000 NA
ATOM      9  C   UNL     1       3.561   1.489  18.484  0.00  0.00    +0.000 C 
ATOM     10  H   UNL     1       5.114   2.530  17.698  0.00  0.00    +0.000 HD
ENDBRANCH   1   8
BRANCH   1  11
ATOM     11  C   UNL     1       2.435   4.473  18.492  0.00  0.00    +0.000 C 
BRANCH  11  12
ATOM     12  C   UNL     1       1.744   4.656  19.836  0.00  0.00    +0.000 C 
ATOM     13  C   UNL     1       1.863   5.809  20.520  0.00  0.00    +0.000 C 
BRANCH  12  15
ATOM     14  C   UNL     1       1.497   2.761  21.422  0.00  0.00    +0.000 C 
ATOM     15  C   UNL     1       1.066   3.496  20.390  0.00  0.00    +0.000 C 
ENDBRANCH  12  15
ENDBRANCH  11  12
ENDBRANCH   1  11
TORSDOF 5
ENDMDL
MODEL 5
REMARK VINA RESULT:      -5.8      1.509      2.014
REMARK  Name = 
REMARK  6 active torsions:
REMARK  status: ('A' for Active; 'I' for Inactive)
REMARK    1  A    between atoms: C_2  and  C_3
REMARK    2  A    between atoms: C_3  and  C_5
REMARK    3  A    between atoms: C_5  and  C_6
REMARK    4  A    between atoms: C_6  and  N_7
REMARK    5  A    between atoms: C_6  and  C_9
REMARK    6  A    between atoms: N_7  and  C_8
REMARK                            x       y       z     vdW  Elec       q    Type
REMARK                         _______ _______ _______ _____ _____    ______ ____
ROOT
ATOM      1  C   UNL     1       4.250   3.864  18.694  0.00  0.00    +0.000 C 
ENDROOT
BRANCH   1   2
ATOM      2  C   UNL     1       5.175   4.209  17.524  0.00  0.00    +0.000 A 
ATOM      3  C   UNL     1       6.526   4.503  17.781  0.00  0.00    +0.000 A 
ATOM      4  C   UNL     1       7.411   4.797  16.740  0.00  0.00    +0.000 A 
ATOM      5  C   UNL     1       6.963   4.795  15.423  0.00  0.00    +0.000 A 
ATOM      6  C   UNL     1       5.632   4.495  15.145  0.00  0.00    +0.000 A 
ATOM      7  C   UNL     1       4.746   4.203  16.186  0.00  0.00    +0.000 A 
ENDBRANCH   1   2
BRANCH   1   8
ATOM      8  N   UNL     1       4.421   2.463  19.134  0.00  0.00    +0.000 NA
ATOM      9  C   UNL     1       3.517   1.517  18.497  0.00  0.00    +0.000 C 
ATOM     10  H   UNL     1       4.271   2.431  20.142  0.00  0.00    +0.000 HD
ENDBRANCH   1   8
BRANCH   1  11
ATOM     11  C   UNL     1       2.768   4.305  18.483  0.00  0.00    +0.000 C 
BRANCH  11  12
ATOM     12  C   UNL     1       2.194   5.254  19.526  0.00  0.00    +0.000 C 
ATOM     13  C   UNL     1       2.534   6.556  19.532  0.00  0.00    +0.000 C 
BRANCH  12  15
ATOM     14  C   UNL     1       1.127   3.359  20.724  0.00  0.00    +0.000 C 
ATOM     15  C   UNL     1       1.374   4.665  20.570  0.00  0.00    +0.000 C 
ENDBRANCH  12  15
ENDBRANCH  11  12
ENDBRANCH   1  11
TORSDOF 5
ENDMDL
MODEL 6
REMARK VINA RESULT:      -5.8      2.070      5.714
REMARK  Name = 
REMARK  6 active torsions:
REMARK  status: ('A' for Active; 'I' for Inactive)
REMARK    1  A    between atoms: C_2  and  C_3
REMARK    2  A    between atoms: C_3  and  C_5
REMARK    3  A    between atoms: C_5  and  C_6
REMARK    4  A    between atoms: C_6  and  N_7
REMARK    5  A    between atoms: C_6  and  C_9
REMARK    6  A    between atoms: N_7  and  C_8
REMARK                            x       y       z     vdW  Elec       q    Type
REMARK                         _______ _______ _______ _____ _____    ______ ____
ROOT
ATOM      1  C   UNL     1       3.133   6.479  18.875  0.00  0.00    +0.000 C 
ENDROOT
BRANCH   1   2
ATOM      2  C   UNL     1       2.335   5.193  19.103  0.00  0.00    +0.000 A 
ATOM      3  C   UNL     1       1.884   4.886  20.399  0.00  0.00    +0.000 A 
ATOM      4  C   UNL     1       1.131   3.736  20.648  0.00  0.00    +0.000 A 
ATOM      5  C   UNL     1       0.806   2.876  19.603  0.00  0.00    +0.000 A 
ATOM      6  C   UNL     1       1.232   3.166  18.310  0.00  0.00    +0.000 A 
ATOM      7  C   UNL     1       1.989   4.316  18.062  0.00  0.00    +0.000 A 
ENDBRANCH   1   2
BRANCH   1   8
ATOM      8  N   UNL     1       2.268   7.677  18.925  0.00  0.00    +0.000 NA
ATOM      9  C   UNL     1       2.387   8.554  17.769  0.00  0.00    +0.000 C 
ATOM     10  H   UNL     1       2.514   8.204  19.762  0.00  0.00    +0.000 HD
ENDBRANCH   1   8
BRANCH   1  11
ATOM     11  C   UNL     1       4.096   6.419  17.648  0.00  0.00    +0.000 C 
BRANCH  11  12
ATOM     12  C   UNL     1       5.550   6.085  17.950  0.00  0.00    +0.000 C 
ATOM     13  C   UNL     1       5.873   5.301  18.994  0.00  0.00    +0.000 C 
BRANCH  12  15
ATOM     14  C   UNL     1       7.596   7.452  17.609  0.00  0.00    +0.000 C 
ATOM     15  C   UNL     1       6.558   6.748  17.140  0.00  0.00    +0.000 C 
ENDBRANCH  12  15
ENDBRANCH  11  12
ENDBRANCH   1  11
TORSDOF 5
ENDMDL
MODEL 7
REMARK VINA RESULT:      -5.8      2.243      5.541
REMARK  Name = 
REMARK  6 active torsions:
REMARK  status: ('A' for Active; 'I' for Inactive)
REMARK    1  A    between atoms: C_2  and  C_3
REMARK    2  A    between atoms: C_3  and  C_5
REMARK    3  A    between atoms: C_5  and  C_6
REMARK    4  A    between atoms: C_6  and  N_7
REMARK    5  A    between atoms: C_6  and  C_9
REMARK    6  A    between atoms: N_7  and  C_8
REMARK                            x       y       z     vdW  Elec       q    Type
REMARK                         _______ _______ _______ _____ _____    ______ ____
ROOT
ATOM      1  C   UNL     1       5.476   4.880  16.813  0.00  0.00    +0.000 C 
ENDROOT
BRANCH   1   2
ATOM      2  C   UNL     1       4.511   3.955  17.559  0.00  0.00    +0.000 A 
ATOM      3  C   UNL     1       4.808   3.575  18.880  0.00  0.00    +0.000 A 
ATOM      4  C   UNL     1       3.943   2.753  19.606  0.00  0.00    +0.000 A 
ATOM      5  C   UNL     1       2.759   2.303  19.028  0.00  0.00    +0.000 A 
ATOM      6  C   UNL     1       2.440   2.677  17.726  0.00  0.00    +0.000 A 
ATOM      7  C   UNL     1       3.308   3.496  16.998  0.00  0.00    +0.000 A 
ENDBRANCH   1   2
BRANCH   1   8
ATOM      8  N   UNL     1       5.300   4.788  15.348  0.00  0.00    +0.000 NA
ATOM      9  C   UNL     1       6.307   3.985  14.670  0.00  0.00    +0.000 C 
ATOM     10  H   UNL     1       5.328   5.735  14.970  0.00  0.00    +0.000 HD
ENDBRANCH   1   8
BRANCH   1  11
ATOM     11  C   UNL     1       6.955   4.781  17.300  0.00  0.00    +0.000 C 
BRANCH  11  12
ATOM     12  C   UNL     1       7.485   5.972  18.087  0.00  0.00    +0.000 C 
ATOM     13  C   UNL     1       7.907   5.825  19.356  0.00  0.00    +0.000 C 
BRANCH  12  15
ATOM     14  C   UNL     1       8.051   8.376  17.830  0.00  0.00    +0.000 C 
ATOM     15  C   UNL     1       7.395   7.273  17.448  0.00  0.00    +0.000 C 
ENDBRANCH  12  15
ENDBRANCH  11  12
ENDBRANCH   1  11
TORSDOF 5
ENDMDL
MODEL 8
REMARK VINA RESULT:      -5.8      1.797      5.314
REMARK  Name = 
REMARK  6 active torsions:
REMARK  status: ('A' for Active; 'I' for Inactive)
REMARK    1  A    between atoms: C_2  and  C_3
REMARK    2  A    between atoms: C_3  and  C_5
REMARK    3  A    between atoms: C_5  and  C_6
REMARK    4  A    between atoms: C_6  and  N_7
REMARK    5  A    between atoms: C_6  and  C_9
REMARK    6  A    between atoms: N_7  and  C_8
REMARK                            x       y       z     vdW  Elec       q    Type
REMARK                         _______ _______ _______ _____ _____    ______ ____
ROOT
ATOM      1  C   UNL     1       4.442   4.447  16.523  0.00  0.00    +0.000 C 
ENDROOT
BRANCH   1   2
ATOM      2  C   UNL     1       3.398   3.692  17.350  0.00  0.00    +0.000 A 
ATOM      3  C   UNL     1       3.730   2.438  17.894  0.00  0.00    +0.000 A 
ATOM      4  C   UNL     1       2.816   1.727  18.677  0.00  0.00    +0.000 A 
ATOM      5  C   UNL     1       1.557   2.260  18.936  0.00  0.00    +0.000 A 
ATOM      6  C   UNL     1       1.212   3.505  18.417  0.00  0.00    +0.000 A 
ATOM      7  C   UNL     1       2.125   4.215  17.631  0.00  0.00    +0.000 A 
ENDBRANCH   1   2
BRANCH   1   8
ATOM      8  N   UNL     1       5.622   3.605  16.230  0.00  0.00    +0.000 NA
ATOM      9  C   UNL     1       6.249   3.874  14.944  0.00  0.00    +0.000 C 
ATOM     10  H   UNL     1       5.323   2.631  16.251  0.00  0.00    +0.000 HD
ENDBRANCH   1   8
BRANCH   1  11
ATOM     11  C   UNL     1       4.775   5.871  17.068  0.00  0.00    +0.000 C 
BRANCH  11  12
ATOM     12  C   UNL     1       5.976   5.971  17.998  0.00  0.00    +0.000 C 
ATOM     13  C   UNL     1       5.971   5.362  19.197  0.00  0.00    +0.000 C 
BRANCH  12  15
ATOM     14  C   UNL     1       8.093   7.224  18.341  0.00  0.00    +0.000 C 
ATOM     15  C   UNL     1       7.058   6.846  17.581  0.00  0.00    +0.000 C 
ENDBRANCH  12  15
ENDBRANCH  11  12
ENDBRANCH   1  11
TORSDOF 5
ENDMDL
MODEL 9
REMARK VINA RESULT:      -5.8      1.121      2.044
REMARK  Name = 
REMARK  6 active torsions:
REMARK  status: ('A' for Active; 'I' for Inactive)
REMARK    1  A    between atoms: C_2  and  C_3
REMARK    2  A    between atoms: C_3  and  C_5
REMARK    3  A    between atoms: C_5  and  C_6
REMARK    4  A    between atoms: C_6  and  N_7
REMARK    5  A    between atoms: C_6  and  C_9
REMARK    6  A    between atoms: N_7  and  C_8
REMARK                            x       y       z     vdW  Elec       q    Type
REMARK                         _______ _______ _______ _____ _____    ______ ____
ROOT
ATOM      1  C   UNL     1       4.564   4.420  19.450  0.00  0.00    +0.000 C 
ENDROOT
BRANCH   1   2
ATOM      2  C   UNL     1       5.560   5.378  18.792  0.00  0.00    +0.000 A 
ATOM      3  C   UNL     1       6.868   5.464  19.301  0.00  0.00    +0.000 A 
ATOM      4  C   UNL     1       7.816   6.307  18.714  0.00  0.00    +0.000 A 
ATOM      5  C   UNL     1       7.476   7.071  17.602  0.00  0.00    +0.000 A 
ATOM      6  C   UNL     1       6.191   6.992  17.075  0.00  0.00    +0.000 A 
ATOM      7  C   UNL     1       5.240   6.152  17.664  0.00  0.00    +0.000 A 
ENDBRANCH   1   2
BRANCH   1   8
ATOM      8  N   UNL     1       4.938   3.006  19.234  0.00  0.00    +0.000 NA
ATOM      9  C   UNL     1       4.617   2.122  20.344  0.00  0.00    +0.000 C 
ATOM     10  H   UNL     1       5.944   2.972  19.068  0.00  0.00    +0.000 HD
ENDBRANCH   1   8
BRANCH   1  11
ATOM     11  C   UNL     1       3.069   4.753  19.150  0.00  0.00    +0.000 C 
BRANCH  11  12
ATOM     12  C   UNL     1       2.303   3.724  18.331  0.00  0.00    +0.000 C 
ATOM     13  C   UNL     1       2.535   3.582  17.013  0.00  0.00    +0.000 C 
BRANCH  12  15
ATOM     14  C   UNL     1       0.869   3.179  20.284  0.00  0.00    +0.000 C 
ATOM     15  C   UNL     1       1.239   3.004  19.010  0.00  0.00    +0.000 C 
ENDBRANCH  12  15
ENDBRANCH  11  12
ENDBRANCH   1  11
TORSDOF 5
ENDMDL
