MODEL 1
REMARK VINA RESULT:      -7.9      0.000      0.000
REMARK  Name = 
REMARK  6 active torsions:
REMARK  status: ('A' for Active; 'I' for Inactive)
REMARK    1  A    between atoms: C_1  and  C_2
REMARK    2  A    between atoms: C_2  and  O_3
REMARK    3  A    between atoms: O_3  and  C_4
REMARK    4  A    between atoms: C_6  and  C_7
REMARK    5  A    between atoms: C_13  and  C_14
REMARK    6  A    between atoms: C_14  and  N_15
REMARK                            x       y       z     vdW  Elec       q    Type
REMARK                         _______ _______ _______ _____ _____    ______ ____
ROOT
ATOM      1  C   UNL     1       5.426   4.623  17.687  0.00  0.00    +0.000 C 
ATOM      2  O   UNL     1       5.668   3.704  18.463  0.00  0.00    +0.000 OA
ATOM      3  N   UNL     1       4.569   5.690  18.015  0.00  0.00    +0.000 N 
ATOM      4  C   UNL     1       4.301   6.868  17.171  0.00  0.00    +0.000 C 
ATOM      5  C   UNL     1       3.378   7.798  17.967  0.00  0.00    +0.000 C 
ATOM      6  C   UNL     1       2.901   6.903  19.066  0.00  0.00    +0.000 A 
ATOM      7  C   UNL     1       1.842   7.112  19.958  0.00  0.00    +0.000 A 
ATOM      8  C   UNL     1       1.544   6.057  20.832  0.00  0.00    +0.000 A 
ATOM      9  C   UNL     1       2.361   4.918  20.917  0.00  0.00    +0.000 A 
ATOM     10  C   UNL     1       3.458   4.767  20.077  0.00  0.00    +0.000 A 
ATOM     11  C   UNL     1       3.678   5.728  19.108  0.00  0.00    +0.000 A 
ENDROOT
BRANCH   1  14
ATOM     12  C   UNL     1       6.661   4.600  14.275  0.00  0.00    +0.000 A 
ATOM     13  C   UNL     1       5.650   4.171  15.146  0.00  0.00    +0.000 A 
ATOM     14  C   UNL     1       6.051   4.652  16.383  0.00  0.00    +0.000 A 
ATOM     15  O   UNL     1       7.211   5.344  16.213  0.00  0.00    +0.000 OA
ATOM     16  N   UNL     1       7.621   5.280  14.905  0.00  0.00    +0.000 NA
BRANCH  12  17
ATOM     17  O   UNL     1       6.746   4.364  12.948  0.00  0.00    +0.000 OA
BRANCH  17  19
ATOM     18  C   UNL     1       4.905   3.386  11.751  0.00  0.00    +0.000 C 
ATOM     19  C   UNL     1       6.153   3.116  12.569  0.00  0.00    +0.000 C 
ENDBRANCH  17  19
ENDBRANCH  12  17
ENDBRANCH   1  14
BRANCH   7  20
ATOM     20  C   UNL     1       0.983   8.362  19.953  0.00  0.00    +0.000 C 
BRANCH  20  21
ATOM     21  N   UNL     1       1.264   9.420  20.933  0.00  0.00    +0.000 NA
ATOM     22  C   UNL     1       1.110   9.078  22.341  0.00  0.00    +0.000 C 
ATOM     23  C   UNL     1      -0.239   9.641  22.741  0.00  0.00    +0.000 C 
ATOM     24  C   UNL     1      -0.340  10.916  21.921  0.00  0.00    +0.000 C 
ATOM     25  C   UNL     1       0.582  10.699  20.726  0.00  0.00    +0.000 C 
ENDBRANCH  20  21
ENDBRANCH   7  20
TORSDOF 5
ENDMDL
MODEL 2
REMARK VINA RESULT:      -7.6      3.584      8.068
REMARK  Name = 
REMARK  6 active torsions:
REMARK  status: ('A' for Active; 'I' for Inactive)
REMARK    1  A    between atoms: C_1  and  C_2
REMARK    2  A    between atoms: C_2  and  O_3
REMARK    3  A    between atoms: O_3  and  C_4
REMARK    4  A    between atoms: C_6  and  C_7
REMARK    5  A    between atoms: C_13  and  C_14
REMARK    6  A    between atoms: C_14  and  N_15
REMARK                            x       y       z     vdW  Elec       q    Type
REMARK                         _______ _______ _______ _____ _____    ______ ____
ROOT
ATOM      1  C   UNL     1       2.028   9.011  18.155  0.00  0.00    +0.000 C 
ATOM      2  O   UNL     1       2.620   9.516  17.207  0.00  0.00    +0.000 OA
ATOM      3  N   UNL     1       2.438   7.803  18.752  0.00  0.00    +0.000 N 
ATOM      4  C   UNL     1       1.832   7.184  19.944  0.00  0.00    +0.000 C 
ATOM      5  C   UNL     1       2.654   5.934  20.276  0.00  0.00    +0.000 C 
ATOM      6  C   UNL     1       3.451   5.741  19.026  0.00  0.00    +0.000 A 
ATOM      7  C   UNL     1       4.192   4.619  18.634  0.00  0.00    +0.000 A 
ATOM      8  C   UNL     1       4.767   4.666  17.356  0.00  0.00    +0.000 A 
ATOM      9  C   UNL     1       4.734   5.833  16.575  0.00  0.00    +0.000 A 
ATOM     10  C   UNL     1       4.060   6.965  17.020  0.00  0.00    +0.000 A 
ATOM     11  C   UNL     1       3.363   6.887  18.210  0.00  0.00    +0.000 A 
ENDROOT
BRANCH   1  14
ATOM     12  C   UNL     1      -0.638  10.815  19.830  0.00  0.00    +0.000 A 
ATOM     13  C   UNL     1       0.669  10.316  19.932  0.00  0.00    +0.000 A 
ATOM     14  C   UNL     1       0.873   9.671  18.722  0.00  0.00    +0.000 A 
ATOM     15  O   UNL     1      -0.247   9.826  17.964  0.00  0.00    +0.000 OA
ATOM     16  N   UNL     1      -1.212  10.504  18.667  0.00  0.00    +0.000 NA
BRANCH  12  17
ATOM     17  O   UNL     1      -1.319  11.508  20.768  0.00  0.00    +0.000 OA
BRANCH  17  19
ATOM     18  C   UNL     1      -1.215  10.945  23.103  0.00  0.00    +0.000 C 
ATOM     19  C   UNL     1      -0.562  11.709  21.967  0.00  0.00    +0.000 C 
ENDBRANCH  17  19
ENDBRANCH  12  17
ENDBRANCH   1  14
BRANCH   7  20
ATOM     20  C   UNL     1       4.320   3.367  19.479  0.00  0.00    +0.000 C 
BRANCH  20  21
ATOM     21  N   UNL     1       3.231   2.381  19.458  0.00  0.00    +0.000 NA
ATOM     22  C   UNL     1       2.525   2.200  18.195  0.00  0.00    +0.000 C 
ATOM     23  C   UNL     1       1.244   2.995  18.341  0.00  0.00    +0.000 C 
ATOM     24  C   UNL     1       0.893   2.825  19.808  0.00  0.00    +0.000 C 
ATOM     25  C   UNL     1       2.214   2.509  20.502  0.00  0.00    +0.000 C 
ENDBRANCH  20  21
ENDBRANCH   7  20
TORSDOF 5
ENDMDL
MODEL 3
REMARK VINA RESULT:      -7.4      2.443      3.640
REMARK  Name = 
REMARK  6 active torsions:
REMARK  status: ('A' for Active; 'I' for Inactive)
REMARK    1  A    between atoms: C_1  and  C_2
REMARK    2  A    between atoms: C_2  and  O_3
REMARK    3  A    between atoms: O_3  and  C_4
REMARK    4  A    between atoms: C_6  and  C_7
REMARK    5  A    between atoms: C_13  and  C_14
REMARK    6  A    between atoms: C_14  and  N_15
REMARK                            x       y       z     vdW  Elec       q    Type
REMARK                         _______ _______ _______ _____ _____    ______ ____
ROOT
ATOM      1  C   UNL     1       3.215   5.905  19.308  0.00  0.00    +0.000 C 
ATOM      2  O   UNL     1       3.149   5.405  20.425  0.00  0.00    +0.000 OA
ATOM      3  N   UNL     1       2.695   7.179  19.012  0.00  0.00    +0.000 N 
ATOM      4  C   UNL     1       2.815   7.879  17.720  0.00  0.00    +0.000 C 
ATOM      5  C   UNL     1       2.174   9.261  17.890  0.00  0.00    +0.000 C 
ATOM      6  C   UNL     1       1.417   9.102  19.169  0.00  0.00    +0.000 A 
ATOM      7  C   UNL     1       0.432   9.941  19.704  0.00  0.00    +0.000 A 
ATOM      8  C   UNL     1      -0.194   9.500  20.879  0.00  0.00    +0.000 A 
ATOM      9  C   UNL     1       0.251   8.359  21.567  0.00  0.00    +0.000 A 
ATOM     10  C   UNL     1       1.287   7.583  21.059  0.00  0.00    +0.000 A 
ATOM     11  C   UNL     1       1.814   7.920  19.826  0.00  0.00    +0.000 A 
ENDROOT
BRANCH   1  14
ATOM     12  C   UNL     1       5.184   4.218  16.768  0.00  0.00    +0.000 A 
ATOM     13  C   UNL     1       5.181   5.188  17.780  0.00  0.00    +0.000 A 
ATOM     14  C   UNL     1       3.870   5.192  18.233  0.00  0.00    +0.000 A 
ATOM     15  O   UNL     1       3.178   4.249  17.536  0.00  0.00    +0.000 OA
ATOM     16  N   UNL     1       3.982   3.666  16.589  0.00  0.00    +0.000 NA
BRANCH  12  17
ATOM     17  O   UNL     1       6.229   3.851  15.995  0.00  0.00    +0.000 OA
BRANCH  17  19
ATOM     18  C   UNL     1       6.084   3.945  13.598  0.00  0.00    +0.000 C 
ATOM     19  C   UNL     1       6.410   4.712  14.865  0.00  0.00    +0.000 C 
ENDBRANCH  17  19
ENDBRANCH  12  17
ENDBRANCH   1  14
BRANCH   7  20
ATOM     20  C   UNL     1      -0.024  11.224  19.036  0.00  0.00    +0.000 C 
BRANCH  20  21
ATOM     21  N   UNL     1      -0.924  11.140  17.878  0.00  0.00    +0.000 NA
ATOM     22  C   UNL     1      -2.040  12.078  17.836  0.00  0.00    +0.000 C 
ATOM     23  C   UNL     1      -3.242  11.283  18.302  0.00  0.00    +0.000 C 
ATOM     24  C   UNL     1      -2.977   9.894  17.749  0.00  0.00    +0.000 C 
ATOM     25  C   UNL     1      -1.466   9.817  17.565  0.00  0.00    +0.000 C 
ENDBRANCH  20  21
ENDBRANCH   7  20
TORSDOF 5
ENDMDL
MODEL 4
REMARK VINA RESULT:      -7.4      3.834      7.744
REMARK  Name = 
REMARK  6 active torsions:
REMARK  status: ('A' for Active; 'I' for Inactive)
REMARK    1  A    between atoms: C_1  and  C_2
REMARK    2  A    between atoms: C_2  and  O_3
REMARK    3  A    between atoms: O_3  and  C_4
REMARK    4  A    between atoms: C_6  and  C_7
REMARK    5  A    between atoms: C_13  and  C_14
REMARK    6  A    between atoms: C_14  and  N_15
REMARK                            x       y       z     vdW  Elec       q    Type
REMARK                         _______ _______ _______ _____ _____    ______ ____
ROOT
ATOM      1  C   UNL     1       2.106   8.948  18.053  0.00  0.00    +0.000 C 
ATOM      2  O   UNL     1       2.745   9.408  17.113  0.00  0.00    +0.000 OA
ATOM      3  N   UNL     1       2.462   7.751  18.703  0.00  0.00    +0.000 N 
ATOM      4  C   UNL     1       1.796   7.185  19.890  0.00  0.00    +0.000 C 
ATOM      5  C   UNL     1       2.574   5.927  20.292  0.00  0.00    +0.000 C 
ATOM      6  C   UNL     1       3.413   5.675  19.081  0.00  0.00    +0.000 A 
ATOM      7  C   UNL     1       4.141   4.525  18.753  0.00  0.00    +0.000 A 
ATOM      8  C   UNL     1       4.765   4.517  17.497  0.00  0.00    +0.000 A 
ATOM      9  C   UNL     1       4.790   5.659  16.679  0.00  0.00    +0.000 A 
ATOM     10  C   UNL     1       4.129   6.820  17.062  0.00  0.00    +0.000 A 
ATOM     11  C   UNL     1       3.385   6.796  18.226  0.00  0.00    +0.000 A 
ENDROOT
BRANCH   1  14
ATOM     12  C   UNL     1      -1.000  10.545  19.040  0.00  0.00    +0.000 A 
ATOM     13  C   UNL     1      -0.315   9.868  18.020  0.00  0.00    +0.000 A 
ATOM     14  C   UNL     1       0.946   9.653  18.554  0.00  0.00    +0.000 A 
ATOM     15  O   UNL     1       0.963  10.153  19.820  0.00  0.00    +0.000 OA
ATOM     16  N   UNL     1      -0.237  10.750  20.116  0.00  0.00    +0.000 NA
BRANCH  12  17
ATOM     17  O   UNL     1      -2.271  11.002  19.003  0.00  0.00    +0.000 OA
BRANCH  17  19
ATOM     18  C   UNL     1      -4.054  11.150  17.398  0.00  0.00    +0.000 C 
ATOM     19  C   UNL     1      -2.626  11.544  17.726  0.00  0.00    +0.000 C 
ENDBRANCH  17  19
ENDBRANCH  12  17
ENDBRANCH   1  14
BRANCH   7  20
ATOM     20  C   UNL     1       4.206   3.298  19.641  0.00  0.00    +0.000 C 
BRANCH  20  21
ATOM     21  N   UNL     1       3.096   2.336  19.606  0.00  0.00    +0.000 NA
ATOM     22  C   UNL     1       2.433   2.136  18.323  0.00  0.00    +0.000 C 
ATOM     23  C   UNL     1       1.165   2.962  18.400  0.00  0.00    +0.000 C 
ATOM     24  C   UNL     1       0.758   2.839  19.857  0.00  0.00    +0.000 C 
ATOM     25  C   UNL     1       2.045   2.513  20.608  0.00  0.00    +0.000 C 
ENDBRANCH  20  21
ENDBRANCH   7  20
TORSDOF 5
ENDMDL
MODEL 5
REMARK VINA RESULT:      -7.3      3.754      8.291
REMARK  Name = 
REMARK  6 active torsions:
REMARK  status: ('A' for Active; 'I' for Inactive)
REMARK    1  A    between atoms: C_1  and  C_2
REMARK    2  A    between atoms: C_2  and  O_3
REMARK    3  A    between atoms: O_3  and  C_4
REMARK    4  A    between atoms: C_6  and  C_7
REMARK    5  A    between atoms: C_13  and  C_14
REMARK    6  A    between atoms: C_14  and  N_15
REMARK                            x       y       z     vdW  Elec       q    Type
REMARK                         _______ _______ _______ _____ _____    ______ ____
ROOT
ATOM      1  C   UNL     1       1.029   8.712  20.528  0.00  0.00    +0.000 C 
ATOM      2  O   UNL     1       0.630   7.979  21.426  0.00  0.00    +0.000 OA
ATOM      3  N   UNL     1       1.755   8.234  19.421  0.00  0.00    +0.000 N 
ATOM      4  C   UNL     1       2.189   9.037  18.264  0.00  0.00    +0.000 C 
ATOM      5  C   UNL     1       2.869   8.083  17.276  0.00  0.00    +0.000 C 
ATOM      6  C   UNL     1       3.087   6.865  18.114  0.00  0.00    +0.000 A 
ATOM      7  C   UNL     1       3.894   5.754  17.838  0.00  0.00    +0.000 A 
ATOM      8  C   UNL     1       3.997   4.789  18.850  0.00  0.00    +0.000 A 
ATOM      9  C   UNL     1       3.213   4.855  20.014  0.00  0.00    +0.000 A 
ATOM     10  C   UNL     1       2.356   5.928  20.232  0.00  0.00    +0.000 A 
ATOM     11  C   UNL     1       2.353   6.961  19.314  0.00  0.00    +0.000 A 
ENDROOT
BRANCH   1  14
ATOM     12  C   UNL     1      -0.014  12.187  20.428  0.00  0.00    +0.000 A 
ATOM     13  C   UNL     1      -0.161  10.914  19.859  0.00  0.00    +0.000 A 
ATOM     14  C   UNL     1       0.737  10.128  20.566  0.00  0.00    +0.000 A 
ATOM     15  O   UNL     1       1.335  10.909  21.507  0.00  0.00    +0.000 OA
ATOM     16  N   UNL     1       0.902  12.207  21.399  0.00  0.00    +0.000 NA
BRANCH  12  17
ATOM     17  O   UNL     1      -0.659  13.318  20.070  0.00  0.00    +0.000 OA
BRANCH  17  19
ATOM     18  C   UNL     1       0.842  14.736  18.839  0.00  0.00    +0.000 C 
ATOM     19  C   UNL     1      -0.314  13.758  18.752  0.00  0.00    +0.000 C 
ENDBRANCH  17  19
ENDBRANCH  12  17
ENDBRANCH   1  14
BRANCH   7  20
ATOM     20  C   UNL     1       4.697   5.604  16.561  0.00  0.00    +0.000 C 
BRANCH  20  21
ATOM     21  N   UNL     1       6.112   5.999  16.561  0.00  0.00    +0.000 NA
ATOM     22  C   UNL     1       7.098   4.932  16.428  0.00  0.00    +0.000 C 
ATOM     23  C   UNL     1       7.599   4.680  17.836  0.00  0.00    +0.000 C 
ATOM     24  C   UNL     1       7.580   6.061  18.465  0.00  0.00    +0.000 C 
ATOM     25  C   UNL     1       6.552   6.853  17.663  0.00  0.00    +0.000 C 
ENDBRANCH  20  21
ENDBRANCH   7  20
TORSDOF 5
ENDMDL
MODEL 6
REMARK VINA RESULT:      -7.3      3.694      8.510
REMARK  Name = 
REMARK  6 active torsions:
REMARK  status: ('A' for Active; 'I' for Inactive)
REMARK    1  A    between atoms: C_1  and  C_2
REMARK    2  A    between atoms: C_2  and  O_3
REMARK    3  A    between atoms: O_3  and  C_4
REMARK    4  A    between atoms: C_6  and  C_7
REMARK    5  A    between atoms: C_13  and  C_14
REMARK    6  A    between atoms: C_14  and  N_15
REMARK                            x       y       z     vdW  Elec       q    Type
REMARK                         _______ _______ _______ _____ _____    ______ ____
ROOT
ATOM      1  C   UNL     1       1.035   8.483  20.608  0.00  0.00    +0.000 C 
ATOM      2  O   UNL     1       0.705   7.673  21.467  0.00  0.00    +0.000 OA
ATOM      3  N   UNL     1       1.772   8.122  19.464  0.00  0.00    +0.000 N 
ATOM      4  C   UNL     1       2.128   9.019  18.350  0.00  0.00    +0.000 C 
ATOM      5  C   UNL     1       2.853   8.173  17.298  0.00  0.00    +0.000 C 
ATOM      6  C   UNL     1       3.171   6.927  18.059  0.00  0.00    +0.000 A 
ATOM      7  C   UNL     1       4.047   5.893  17.706  0.00  0.00    +0.000 A 
ATOM      8  C   UNL     1       4.236   4.881  18.658  0.00  0.00    +0.000 A 
ATOM      9  C   UNL     1       3.471   4.825  19.835  0.00  0.00    +0.000 A 
ATOM     10  C   UNL     1       2.546   5.821  20.128  0.00  0.00    +0.000 A 
ATOM     11  C   UNL     1       2.455   6.902  19.273  0.00  0.00    +0.000 A 
ENDROOT
BRANCH   1  14
ATOM     12  C   UNL     1      -0.270  11.864  20.781  0.00  0.00    +0.000 A 
ATOM     13  C   UNL     1      -0.414  10.593  20.208  0.00  0.00    +0.000 A 
ATOM     14  C   UNL     1       0.647   9.871  20.734  0.00  0.00    +0.000 A 
ATOM     15  O   UNL     1       1.333  10.683  21.584  0.00  0.00    +0.000 OA
ATOM     16  N   UNL     1       0.791  11.944  21.587  0.00  0.00    +0.000 NA
BRANCH  12  17
ATOM     17  O   UNL     1      -1.051  12.946  20.568  0.00  0.00    +0.000 OA
BRANCH  17  19
ATOM     18  C   UNL     1      -3.239  12.841  21.559  0.00  0.00    +0.000 C 
ATOM     19  C   UNL     1      -2.416  12.599  20.307  0.00  0.00    +0.000 C 
ENDBRANCH  17  19
ENDBRANCH  12  17
ENDBRANCH   1  14
BRANCH   7  20
ATOM     20  C   UNL     1       4.834   5.874  16.410  0.00  0.00    +0.000 C 
BRANCH  20  21
ATOM     21  N   UNL     1       6.269   6.187  16.446  0.00  0.00    +0.000 NA
ATOM     22  C   UNL     1       7.192   5.060  16.495  0.00  0.00    +0.000 C 
ATOM     23  C   UNL     1       7.604   4.950  17.949  0.00  0.00    +0.000 C 
ATOM     24  C   UNL     1       7.639   6.395  18.411  0.00  0.00    +0.000 C 
ATOM     25  C   UNL     1       6.705   7.142  17.465  0.00  0.00    +0.000 C 
ENDBRANCH  20  21
ENDBRANCH   7  20
TORSDOF 5
ENDMDL
MODEL 7
REMARK VINA RESULT:      -7.3      0.654      1.001
REMARK  Name = 
REMARK  6 active torsions:
REMARK  status: ('A' for Active; 'I' for Inactive)
REMARK    1  A    between atoms: C_1  and  C_2
REMARK    2  A    between atoms: C_2  and  O_3
REMARK    3  A    between atoms: O_3  and  C_4
REMARK    4  A    between atoms: C_6  and  C_7
REMARK    5  A    between atoms: C_13  and  C_14
REMARK    6  A    between atoms: C_14  and  N_15
REMARK                            x       y       z     vdW  Elec       q    Type
REMARK                         _______ _______ _______ _____ _____    ______ ____
ROOT
ATOM      1  C   UNL     1       5.345   4.618  17.344  0.00  0.00    +0.000 C 
ATOM      2  O   UNL     1       5.489   3.694  18.136  0.00  0.00    +0.000 OA
ATOM      3  N   UNL     1       4.603   5.775  17.650  0.00  0.00    +0.000 N 
ATOM      4  C   UNL     1       4.459   6.960  16.786  0.00  0.00    +0.000 C 
ATOM      5  C   UNL     1       3.637   7.994  17.563  0.00  0.00    +0.000 C 
ATOM      6  C   UNL     1       3.070   7.173  18.676  0.00  0.00    +0.000 A 
ATOM      7  C   UNL     1       2.038   7.506  19.562  0.00  0.00    +0.000 A 
ATOM      8  C   UNL     1       1.631   6.504  20.454  0.00  0.00    +0.000 A 
ATOM      9  C   UNL     1       2.325   5.287  20.560  0.00  0.00    +0.000 A 
ATOM     10  C   UNL     1       3.401   5.009  19.725  0.00  0.00    +0.000 A 
ATOM     11  C   UNL     1       3.720   5.924  18.740  0.00  0.00    +0.000 A 
ENDROOT
BRANCH   1  14
ATOM     12  C   UNL     1       6.577   4.384  13.938  0.00  0.00    +0.000 A 
ATOM     13  C   UNL     1       5.547   4.041  14.826  0.00  0.00    +0.000 A 
ATOM     14  C   UNL     1       5.970   4.560  16.041  0.00  0.00    +0.000 A 
ATOM     15  O   UNL     1       7.160   5.191  15.841  0.00  0.00    +0.000 OA
ATOM     16  N   UNL     1       7.566   5.048  14.538  0.00  0.00    +0.000 NA
BRANCH  12  17
ATOM     17  O   UNL     1       6.650   4.084  12.623  0.00  0.00    +0.000 OA
BRANCH  17  19
ATOM     18  C   UNL     1       4.601   3.354  11.600  0.00  0.00    +0.000 C 
ATOM     19  C   UNL     1       5.888   2.922  12.278  0.00  0.00    +0.000 C 
ENDBRANCH  17  19
ENDBRANCH  12  17
ENDBRANCH   1  14
BRANCH   7  20
ATOM     20  C   UNL     1       1.313   8.838  19.534  0.00  0.00    +0.000 C 
BRANCH  20  21
ATOM     21  N   UNL     1       0.217   9.071  20.485  0.00  0.00    +0.000 NA
ATOM     22  C   UNL     1      -0.811  10.026  20.090  0.00  0.00    +0.000 C 
ATOM     23  C   UNL     1      -0.462  11.307  20.820  0.00  0.00    +0.000 C 
ATOM     24  C   UNL     1       0.104  10.813  22.139  0.00  0.00    +0.000 C 
ATOM     25  C   UNL     1       0.602   9.399  21.858  0.00  0.00    +0.000 C 
ENDBRANCH  20  21
ENDBRANCH   7  20
TORSDOF 5
ENDMDL
MODEL 8
REMARK VINA RESULT:      -7.2      2.366      3.939
REMARK  Name = 
REMARK  6 active torsions:
REMARK  status: ('A' for Active; 'I' for Inactive)
REMARK    1  A    between atoms: C_1  and  C_2
REMARK    2  A    between atoms: C_2  and  O_3
REMARK    3  A    between atoms: O_3  and  C_4
REMARK    4  A    between atoms: C_6  and  C_7
REMARK    5  A    between atoms: C_13  and  C_14
REMARK    6  A    between atoms: C_14  and  N_15
REMARK                            x       y       z     vdW  Elec       q    Type
REMARK                         _______ _______ _______ _____ _____    ______ ____
ROOT
ATOM      1  C   UNL     1       2.759   6.202  19.423  0.00  0.00    +0.000 C 
ATOM      2  O   UNL     1       2.692   5.725  20.550  0.00  0.00    +0.000 OA
ATOM      3  N   UNL     1       2.315   7.504  19.120  0.00  0.00    +0.000 N 
ATOM      4  C   UNL     1       2.443   8.174  17.814  0.00  0.00    +0.000 C 
ATOM      5  C   UNL     1       1.899   9.598  17.978  0.00  0.00    +0.000 C 
ATOM      6  C   UNL     1       1.170   9.509  19.279  0.00  0.00    +0.000 A 
ATOM      7  C   UNL     1       0.259  10.420  19.828  0.00  0.00    +0.000 A 
ATOM      8  C   UNL     1      -0.360  10.039  21.027  0.00  0.00    +0.000 A 
ATOM      9  C   UNL     1       0.029   8.881  21.721  0.00  0.00    +0.000 A 
ATOM     10  C   UNL     1       0.996   8.032  21.198  0.00  0.00    +0.000 A 
ATOM     11  C   UNL     1       1.508   8.314  19.946  0.00  0.00    +0.000 A 
ENDROOT
BRANCH   1  14
ATOM     12  C   UNL     1       4.537   4.379  16.839  0.00  0.00    +0.000 A 
ATOM     13  C   UNL     1       4.606   5.405  17.792  0.00  0.00    +0.000 A 
ATOM     14  C   UNL     1       3.334   5.431  18.343  0.00  0.00    +0.000 A 
ATOM     15  O   UNL     1       2.596   4.451  17.754  0.00  0.00    +0.000 OA
ATOM     16  N   UNL     1       3.329   3.816  16.783  0.00  0.00    +0.000 NA
BRANCH  12  17
ATOM     17  O   UNL     1       5.523   3.971  16.010  0.00  0.00    +0.000 OA
BRANCH  17  19
ATOM     18  C   UNL     1       6.205   3.908  13.705  0.00  0.00    +0.000 C 
ATOM     19  C   UNL     1       5.594   4.750  14.810  0.00  0.00    +0.000 C 
ENDBRANCH  17  19
ENDBRANCH  12  17
ENDBRANCH   1  14
BRANCH   7  20
ATOM     20  C   UNL     1      -0.131  11.719  19.151  0.00  0.00    +0.000 C 
BRANCH  20  21
ATOM     21  N   UNL     1       0.406  12.982  19.674  0.00  0.00    +0.000 NA
ATOM     22  C   UNL     1       0.644  14.051  18.711  0.00  0.00    +0.000 C 
ATOM     23  C   UNL     1       2.133  14.013  18.438  0.00  0.00    +0.000 C 
ATOM     24  C   UNL     1       2.723  13.617  19.779  0.00  0.00    +0.000 C 
ATOM     25  C   UNL     1       1.602  12.887  20.511  0.00  0.00    +0.000 C 
ENDBRANCH  20  21
ENDBRANCH   7  20
TORSDOF 5
ENDMDL
MODEL 9
REMARK VINA RESULT:      -7.2      2.522      3.573
REMARK  Name = 
REMARK  6 active torsions:
REMARK  status: ('A' for Active; 'I' for Inactive)
REMARK    1  A    between atoms: C_1  and  C_2
REMARK    2  A    between atoms: C_2  and  O_3
REMARK    3  A    between atoms: O_3  and  C_4
REMARK    4  A    between atoms: C_6  and  C_7
REMARK    5  A    between atoms: C_13  and  C_14
REMARK    6  A    between atoms: C_14  and  N_15
REMARK                            x       y       z     vdW  Elec       q    Type
REMARK                         _______ _______ _______ _____ _____    ______ ____
ROOT
ATOM      1  C   UNL     1       3.345   6.288  18.938  0.00  0.00    +0.000 C 
ATOM      2  O   UNL     1       3.472   5.726  20.020  0.00  0.00    +0.000 OA
ATOM      3  N   UNL     1       2.639   7.497  18.786  0.00  0.00    +0.000 N 
ATOM      4  C   UNL     1       2.519   8.273  17.538  0.00  0.00    +0.000 C 
ATOM      5  C   UNL     1       1.736   9.548  17.869  0.00  0.00    +0.000 C 
ATOM      6  C   UNL     1       1.158   9.225  19.209  0.00  0.00    +0.000 A 
ATOM      7  C   UNL     1       0.146   9.898  19.903  0.00  0.00    +0.000 A 
ATOM      8  C   UNL     1      -0.279   9.318  21.107  0.00  0.00    +0.000 A 
ATOM      9  C   UNL     1       0.381   8.211  21.664  0.00  0.00    +0.000 A 
ATOM     10  C   UNL     1       1.440   7.606  20.996  0.00  0.00    +0.000 A 
ATOM     11  C   UNL     1       1.773   8.073  19.739  0.00  0.00    +0.000 A 
ENDROOT
BRANCH   1  14
ATOM     12  C   UNL     1       5.120   5.155  15.982  0.00  0.00    +0.000 A 
ATOM     13  C   UNL     1       4.873   6.231  16.847  0.00  0.00    +0.000 A 
ATOM     14  C   UNL     1       3.954   5.725  17.753  0.00  0.00    +0.000 A 
ATOM     15  O   UNL     1       3.719   4.422  17.436  0.00  0.00    +0.000 OA
ATOM     16  N   UNL     1       4.412   4.071  16.304  0.00  0.00    +0.000 NA
BRANCH  12  17
ATOM     17  O   UNL     1       5.936   5.147  14.906  0.00  0.00    +0.000 OA
BRANCH  17  19
ATOM     18  C   UNL     1       6.263   3.765  12.966  0.00  0.00    +0.000 C 
ATOM     19  C   UNL     1       6.279   3.823  14.482  0.00  0.00    +0.000 C 
ENDBRANCH  17  19
ENDBRANCH  12  17
ENDBRANCH   1  14
BRANCH   7  20
ATOM     20  C   UNL     1      -0.541  11.143  19.375  0.00  0.00    +0.000 C 
BRANCH  20  21
ATOM     21  N   UNL     1      -1.890  11.022  18.805  0.00  0.00    +0.000 NA
ATOM     22  C   UNL     1      -2.266   9.723  18.261  0.00  0.00    +0.000 C 
ATOM     23  C   UNL     1      -2.096   9.858  16.762  0.00  0.00    +0.000 C 
ATOM     24  C   UNL     1      -2.497  11.298  16.494  0.00  0.00    +0.000 C 
ATOM     25  C   UNL     1      -2.273  12.028  17.814  0.00  0.00    +0.000 C 
ENDBRANCH  20  21
ENDBRANCH   7  20
TORSDOF 5
ENDMDL
