MODEL 1
REMARK VINA RESULT:      -8.8      0.000      0.000
REMARK  Name = 
REMARK  6 active torsions:
REMARK  status: ('A' for Active; 'I' for Inactive)
REMARK    1  A    between atoms: C_2  and  C_4
REMARK    2  A    between atoms: C_2  and  C_23
REMARK    3  A    between atoms: C_4  and  N_5
REMARK    4  A    between atoms: N_5  and  C_6
REMARK    5  A    between atoms: C_12  and  C_13
REMARK    6  A    between atoms: C_13  and  C_14
REMARK                            x       y       z     vdW  Elec       q    Type
REMARK                         _______ _______ _______ _____ _____    ______ ____
ROOT
ATOM      1  C   UNL     1       5.103   5.873  17.331  0.00  0.00    +0.000 A 
ATOM      2  N   UNL     1       5.519   5.543  18.589  0.00  0.00    +0.000 NA
ATOM      3  C   UNL     1       6.734   4.968  18.791  0.00  0.00    +0.000 A 
ATOM      4  C   UNL     1       7.623   4.615  17.794  0.00  0.00    +0.000 A 
ATOM      5  C   UNL     1       7.172   4.950  16.534  0.00  0.00    +0.000 A 
ATOM      6  O   UNL     1       7.807   4.706  15.349  0.00  0.00    +0.000 OA
ATOM      7  C   UNL     1       6.946   5.201  14.405  0.00  0.00    +0.000 A 
ATOM      8  N   UNL     1       5.839   5.734  14.888  0.00  0.00    +0.000 NA
ATOM      9  C   UNL     1       5.968   5.575  16.254  0.00  0.00    +0.000 A 
ENDROOT
BRANCH   1  10
ATOM     10  N   UNL     1       3.826   6.409  17.127  0.00  0.00    +0.000 N 
ATOM     11  H   UNL     1       3.914   7.424  17.118  0.00  0.00    +0.000 HD
BRANCH  10  12
ATOM     12  C   UNL     1       2.778   5.949  18.060  0.00  0.00    +0.000 C 
BRANCH  12  14
ATOM     13  F   UNL     1       0.987   4.650  17.238  0.00  0.00    +0.000 F 
ATOM     14  C   UNL     1       2.247   4.531  17.756  0.00  0.00    +0.000 C 
ATOM     15  F   UNL     1       3.001   3.998  16.746  0.00  0.00    +0.000 F 
BRANCH  14  16
ATOM     16  C   UNL     1       2.232   3.535  18.951  0.00  0.00    +0.000 C 
ATOM     17  C   UNL     1       1.207   3.987  20.011  0.00  0.00    +0.000 C 
ATOM     18  C   UNL     1       1.129   2.998  21.173  0.00  0.00    +0.000 C 
ATOM     19  C   UNL     1       2.513   2.722  21.746  0.00  0.00    +0.000 C 
ATOM     20  C   UNL     1       3.486   2.314  20.646  0.00  0.00    +0.000 C 
ATOM     21  N   UNL     1       3.552   3.339  19.606  0.00  0.00    +0.000 NA
ATOM     22  H   UNL     1       4.225   3.037  18.892  0.00  0.00    +0.000 HD
ENDBRANCH  14  16
ENDBRANCH  12  14
ENDBRANCH  10  12
ENDBRANCH   1  10
BRANCH   7  23
ATOM     23  C   UNL     1       7.352   5.023  12.985  0.00  0.00    +0.000 C 
BRANCH  23  24
ATOM     24  C   UNL     1       6.699   3.831  12.325  0.00  0.00    +0.000 A 
ATOM     25  C   UNL     1       7.466   2.718  11.952  0.00  0.00    +0.000 A 
ATOM     26  C   UNL     1       6.872   1.629  11.311  0.00  0.00    +0.000 A 
ATOM     27  C   UNL     1       5.503   1.637  11.045  0.00  0.00    +0.000 A 
ATOM     28  C   UNL     1       4.730   2.728  11.436  0.00  0.00    +0.000 A 
ATOM     29 CL   UNL     1       3.039   2.736  11.115  0.00  0.00    +0.000 Cl
ATOM     30  C   UNL     1       5.318   3.819  12.078  0.00  0.00    +0.000 A 
ENDBRANCH  23  24
ENDBRANCH   7  23
TORSDOF 6
ENDMDL
MODEL 2
REMARK VINA RESULT:      -8.7      1.171      1.398
REMARK  Name = 
REMARK  6 active torsions:
REMARK  status: ('A' for Active; 'I' for Inactive)
REMARK    1  A    between atoms: C_2  and  C_4
REMARK    2  A    between atoms: C_2  and  C_23
REMARK    3  A    between atoms: C_4  and  N_5
REMARK    4  A    between atoms: N_5  and  C_6
REMARK    5  A    between atoms: C_12  and  C_13
REMARK    6  A    between atoms: C_13  and  C_14
REMARK                            x       y       z     vdW  Elec       q    Type
REMARK                         _______ _______ _______ _____ _____    ______ ____
ROOT
ATOM      1  C   UNL     1       5.365   4.019  17.750  0.00  0.00    +0.000 A 
ATOM      2  N   UNL     1       5.777   4.511  18.956  0.00  0.00    +0.000 NA
ATOM      3  C   UNL     1       6.783   5.422  19.029  0.00  0.00    +0.000 A 
ATOM      4  C   UNL     1       7.510   5.893  17.951  0.00  0.00    +0.000 A 
ATOM      5  C   UNL     1       7.079   5.371  16.749  0.00  0.00    +0.000 A 
ATOM      6  O   UNL     1       7.613   5.618  15.516  0.00  0.00    +0.000 OA
ATOM      7  C   UNL     1       6.856   4.851  14.669  0.00  0.00    +0.000 A 
ATOM      8  N   UNL     1       5.901   4.154  15.256  0.00  0.00    +0.000 NA
ATOM      9  C   UNL     1       6.035   4.474  16.593  0.00  0.00    +0.000 A 
ENDROOT
BRANCH   1  10
ATOM     10  N   UNL     1       4.370   3.037  17.691  0.00  0.00    +0.000 N 
ATOM     11  H   UNL     1       4.797   2.184  17.333  0.00  0.00    +0.000 HD
BRANCH  10  12
ATOM     12  C   UNL     1       3.148   3.402  16.946  0.00  0.00    +0.000 C 
BRANCH  12  14
ATOM     13  F   UNL     1       2.865   5.622  17.697  0.00  0.00    +0.000 F 
ATOM     14  C   UNL     1       2.239   4.406  17.688  0.00  0.00    +0.000 C 
ATOM     15  F   UNL     1       1.107   4.591  16.943  0.00  0.00    +0.000 F 
BRANCH  14  16
ATOM     16  C   UNL     1       1.829   4.016  19.137  0.00  0.00    +0.000 C 
ATOM     17  C   UNL     1       2.591   4.882  20.160  0.00  0.00    +0.000 C 
ATOM     18  C   UNL     1       2.168   4.560  21.594  0.00  0.00    +0.000 C 
ATOM     19  C   UNL     1       2.270   3.065  21.867  0.00  0.00    +0.000 C 
ATOM     20  C   UNL     1       1.527   2.265  20.805  0.00  0.00    +0.000 C 
ATOM     21  N   UNL     1       2.032   2.581  19.470  0.00  0.00    +0.000 NA
ATOM     22  H   UNL     1       1.519   2.015  18.784  0.00  0.00    +0.000 HD
ENDBRANCH  14  16
ENDBRANCH  12  14
ENDBRANCH  10  12
ENDBRANCH   1  10
BRANCH   7  23
ATOM     23  C   UNL     1       7.248   4.871  13.234  0.00  0.00    +0.000 C 
BRANCH  23  24
ATOM     24  C   UNL     1       6.624   3.755  12.430  0.00  0.00    +0.000 A 
ATOM     25  C   UNL     1       7.404   2.678  11.986  0.00  0.00    +0.000 A 
ATOM     26  C   UNL     1       6.837   1.661  11.215  0.00  0.00    +0.000 A 
ATOM     27  C   UNL     1       5.482   1.706  10.887  0.00  0.00    +0.000 A 
ATOM     28  C   UNL     1       4.696   2.760  11.346  0.00  0.00    +0.000 A 
ATOM     29 CL   UNL     1       3.022   2.812  10.949  0.00  0.00    +0.000 Cl
ATOM     30  C   UNL     1       5.255   3.778  12.119  0.00  0.00    +0.000 A 
ENDBRANCH  23  24
ENDBRANCH   7  23
TORSDOF 6
ENDMDL
MODEL 3
REMARK VINA RESULT:      -8.6      1.498      2.252
REMARK  Name = 
REMARK  6 active torsions:
REMARK  status: ('A' for Active; 'I' for Inactive)
REMARK    1  A    between atoms: C_2  and  C_4
REMARK    2  A    between atoms: C_2  and  C_23
REMARK    3  A    between atoms: C_4  and  N_5
REMARK    4  A    between atoms: N_5  and  C_6
REMARK    5  A    between atoms: C_12  and  C_13
REMARK    6  A    between atoms: C_13  and  C_14
REMARK                            x       y       z     vdW  Elec       q    Type
REMARK                         _______ _______ _______ _____ _____    ______ ____
ROOT
ATOM      1  C   UNL     1       5.526   3.888  17.820  0.00  0.00    +0.000 A 
ATOM      2  N   UNL     1       5.860   4.475  19.008  0.00  0.00    +0.000 NA
ATOM      3  C   UNL     1       6.708   5.536  19.044  0.00  0.00    +0.000 A 
ATOM      4  C   UNL     1       7.345   6.084  17.947  0.00  0.00    +0.000 A 
ATOM      5  C   UNL     1       6.997   5.465  16.764  0.00  0.00    +0.000 A 
ATOM      6  O   UNL     1       7.479   5.756  15.520  0.00  0.00    +0.000 OA
ATOM      7  C   UNL     1       6.850   4.854  14.702  0.00  0.00    +0.000 A 
ATOM      8  N   UNL     1       6.021   4.031  15.318  0.00  0.00    +0.000 NA
ATOM      9  C   UNL     1       6.109   4.409  16.644  0.00  0.00    +0.000 A 
ENDROOT
BRANCH   1  10
ATOM     10  N   UNL     1       4.699   2.759  17.799  0.00  0.00    +0.000 N 
ATOM     11  H   UNL     1       4.382   2.625  16.840  0.00  0.00    +0.000 HD
BRANCH  10  12
ATOM     12  C   UNL     1       3.579   2.762  18.761  0.00  0.00    +0.000 C 
BRANCH  12  14
ATOM     13  F   UNL     1       2.370   3.369  16.827  0.00  0.00    +0.000 F 
ATOM     14  C   UNL     1       2.265   3.338  18.190  0.00  0.00    +0.000 C 
ATOM     15  F   UNL     1       1.258   2.449  18.452  0.00  0.00    +0.000 F 
BRANCH  14  16
ATOM     16  C   UNL     1       1.846   4.741  18.717  0.00  0.00    +0.000 C 
ATOM     17  C   UNL     1       2.589   5.847  17.942  0.00  0.00    +0.000 C 
ATOM     18  C   UNL     1       2.158   7.240  18.400  0.00  0.00    +0.000 C 
ATOM     19  C   UNL     1       2.275   7.375  19.912  0.00  0.00    +0.000 C 
ATOM     20  C   UNL     1       1.550   6.235  20.619  0.00  0.00    +0.000 C 
ATOM     21  N   UNL     1       2.063   4.941  20.175  0.00  0.00    +0.000 NA
ATOM     22  H   UNL     1       1.564   4.200  20.680  0.00  0.00    +0.000 HD
ENDBRANCH  14  16
ENDBRANCH  12  14
ENDBRANCH  10  12
ENDBRANCH   1  10
BRANCH   7  23
ATOM     23  C   UNL     1       7.227   4.893  13.264  0.00  0.00    +0.000 C 
BRANCH  23  24
ATOM     24  C   UNL     1       6.610   3.776  12.456  0.00  0.00    +0.000 A 
ATOM     25  C   UNL     1       7.395   2.699  12.020  0.00  0.00    +0.000 A 
ATOM     26  C   UNL     1       6.835   1.681  11.244  0.00  0.00    +0.000 A 
ATOM     27  C   UNL     1       5.483   1.725  10.905  0.00  0.00    +0.000 A 
ATOM     28  C   UNL     1       4.692   2.779  11.356  0.00  0.00    +0.000 A 
ATOM     29 CL   UNL     1       3.021   2.830  10.945  0.00  0.00    +0.000 Cl
ATOM     30  C   UNL     1       5.244   3.798  12.133  0.00  0.00    +0.000 A 
ENDBRANCH  23  24
ENDBRANCH   7  23
TORSDOF 6
ENDMDL
MODEL 4
REMARK VINA RESULT:      -8.5      1.823      2.618
REMARK  Name = 
REMARK  6 active torsions:
REMARK  status: ('A' for Active; 'I' for Inactive)
REMARK    1  A    between atoms: C_2  and  C_4
REMARK    2  A    between atoms: C_2  and  C_23
REMARK    3  A    between atoms: C_4  and  N_5
REMARK    4  A    between atoms: N_5  and  C_6
REMARK    5  A    between atoms: C_12  and  C_13
REMARK    6  A    between atoms: C_13  and  C_14
REMARK                            x       y       z     vdW  Elec       q    Type
REMARK                         _______ _______ _______ _____ _____    ______ ____
ROOT
ATOM      1  C   UNL     1       5.463   3.884  18.050  0.00  0.00    +0.000 A 
ATOM      2  N   UNL     1       5.800   4.529  19.207  0.00  0.00    +0.000 NA
ATOM      3  C   UNL     1       6.658   5.583  19.191  0.00  0.00    +0.000 A 
ATOM      4  C   UNL     1       7.302   6.067  18.068  0.00  0.00    +0.000 A 
ATOM      5  C   UNL     1       6.951   5.391  16.918  0.00  0.00    +0.000 A 
ATOM      6  O   UNL     1       7.438   5.613  15.661  0.00  0.00    +0.000 OA
ATOM      7  C   UNL     1       6.802   4.675  14.890  0.00  0.00    +0.000 A 
ATOM      8  N   UNL     1       5.965   3.893  15.546  0.00  0.00    +0.000 NA
ATOM      9  C   UNL     1       6.053   4.338  16.850  0.00  0.00    +0.000 A 
ENDROOT
BRANCH   1  10
ATOM     10  N   UNL     1       4.626   2.763  18.085  0.00  0.00    +0.000 N 
ATOM     11  H   UNL     1       5.123   1.992  17.642  0.00  0.00    +0.000 HD
BRANCH  10  12
ATOM     12  C   UNL     1       3.274   2.950  17.525  0.00  0.00    +0.000 C 
BRANCH  12  14
ATOM     13  F   UNL     1       1.052   2.494  18.176  0.00  0.00    +0.000 F 
ATOM     14  C   UNL     1       2.176   3.152  18.591  0.00  0.00    +0.000 C 
ATOM     15  F   UNL     1       2.565   2.511  19.735  0.00  0.00    +0.000 F 
BRANCH  14  16
ATOM     16  C   UNL     1       1.822   4.628  18.939  0.00  0.00    +0.000 C 
ATOM     17  C   UNL     1       2.496   5.588  17.939  0.00  0.00    +0.000 C 
ATOM     18  C   UNL     1       2.123   7.044  18.220  0.00  0.00    +0.000 C 
ATOM     19  C   UNL     1       2.388   7.400  19.677  0.00  0.00    +0.000 C 
ATOM     20  C   UNL     1       1.725   6.396  20.613  0.00  0.00    +0.000 C 
ATOM     21  N   UNL     1       2.182   5.038  20.322  0.00  0.00    +0.000 NA
ATOM     22  H   UNL     1       1.727   4.392  20.978  0.00  0.00    +0.000 HD
ENDBRANCH  14  16
ENDBRANCH  12  14
ENDBRANCH  10  12
ENDBRANCH   1  10
BRANCH   7  23
ATOM     23  C   UNL     1       7.182   4.637  13.453  0.00  0.00    +0.000 C 
BRANCH  23  24
ATOM     24  C   UNL     1       6.258   3.785  12.615  0.00  0.00    +0.000 A 
ATOM     25  C   UNL     1       5.002   4.273  12.225  0.00  0.00    +0.000 A 
ATOM     26  C   UNL     1       4.131   3.476  11.478  0.00  0.00    +0.000 A 
ATOM     27  C   UNL     1       4.511   2.188  11.105  0.00  0.00    +0.000 A 
ATOM     28  C   UNL     1       5.767   1.706  11.466  0.00  0.00    +0.000 A 
ATOM     29 CL   UNL     1       6.241   0.119  10.998  0.00  0.00    +0.000 Cl
ATOM     30  C   UNL     1       6.643   2.497  12.211  0.00  0.00    +0.000 A 
ENDBRANCH  23  24
ENDBRANCH   7  23
TORSDOF 6
ENDMDL
MODEL 5
REMARK VINA RESULT:      -8.5      4.247      7.888
REMARK  Name = 
REMARK  6 active torsions:
REMARK  status: ('A' for Active; 'I' for Inactive)
REMARK    1  A    between atoms: C_2  and  C_4
REMARK    2  A    between atoms: C_2  and  C_23
REMARK    3  A    between atoms: C_4  and  N_5
REMARK    4  A    between atoms: N_5  and  C_6
REMARK    5  A    between atoms: C_12  and  C_13
REMARK    6  A    between atoms: C_13  and  C_14
REMARK                            x       y       z     vdW  Elec       q    Type
REMARK                         _______ _______ _______ _____ _____    ______ ____
ROOT
ATOM      1  C   UNL     1       3.315   3.160  18.296  0.00  0.00    +0.000 A 
ATOM      2  N   UNL     1       2.621   1.989  18.178  0.00  0.00    +0.000 NA
ATOM      3  C   UNL     1       1.391   1.850  18.738  0.00  0.00    +0.000 A 
ATOM      4  C   UNL     1       0.752   2.808  19.504  0.00  0.00    +0.000 A 
ATOM      5  C   UNL     1       1.481   3.975  19.614  0.00  0.00    +0.000 A 
ATOM      6  O   UNL     1       1.133   5.087  20.326  0.00  0.00    +0.000 OA
ATOM      7  C   UNL     1       2.189   5.942  20.140  0.00  0.00    +0.000 A 
ATOM      8  N   UNL     1       3.157   5.469  19.377  0.00  0.00    +0.000 NA
ATOM      9  C   UNL     1       2.719   4.204  19.036  0.00  0.00    +0.000 A 
ENDROOT
BRANCH   1  10
ATOM     10  N   UNL     1       4.606   3.272  17.766  0.00  0.00    +0.000 N 
ATOM     11  H   UNL     1       5.131   3.909  18.363  0.00  0.00    +0.000 HD
BRANCH  10  12
ATOM     12  C   UNL     1       4.687   3.649  16.341  0.00  0.00    +0.000 C 
BRANCH  12  14
ATOM     13  F   UNL     1       6.872   3.948  15.501  0.00  0.00    +0.000 F 
ATOM     14  C   UNL     1       5.819   4.649  16.021  0.00  0.00    +0.000 C 
ATOM     15  F   UNL     1       5.397   5.465  15.007  0.00  0.00    +0.000 F 
BRANCH  14  16
ATOM     16  C   UNL     1       6.309   5.531  17.206  0.00  0.00    +0.000 C 
ATOM     17  C   UNL     1       7.211   6.668  16.689  0.00  0.00    +0.000 C 
ATOM     18  C   UNL     1       7.664   7.587  17.824  0.00  0.00    +0.000 C 
ATOM     19  C   UNL     1       8.290   6.782  18.955  0.00  0.00    +0.000 C 
ATOM     20  C   UNL     1       7.366   5.653  19.398  0.00  0.00    +0.000 C 
ATOM     21  N   UNL     1       7.032   4.785  18.271  0.00  0.00    +0.000 NA
ATOM     22  H   UNL     1       6.422   4.032  18.608  0.00  0.00    +0.000 HD
ENDBRANCH  14  16
ENDBRANCH  12  14
ENDBRANCH  10  12
ENDBRANCH   1  10
BRANCH   7  23
ATOM     23  C   UNL     1       2.118   7.242  20.857  0.00  0.00    +0.000 C 
BRANCH  23  24
ATOM     24  C   UNL     1       1.510   8.348  20.027  0.00  0.00    +0.000 A 
ATOM     25  C   UNL     1       1.876   8.511  18.683  0.00  0.00    +0.000 A 
ATOM     26  C   UNL     1       1.340   9.553  17.922  0.00  0.00    +0.000 A 
ATOM     27  C   UNL     1       0.426  10.437  18.495  0.00  0.00    +0.000 A 
ATOM     28  C   UNL     1       0.039  10.266  19.822  0.00  0.00    +0.000 A 
ATOM     29 CL   UNL     1      -1.096  11.351  20.527  0.00  0.00    +0.000 Cl
ATOM     30  C   UNL     1       0.569   9.226  20.587  0.00  0.00    +0.000 A 
ENDBRANCH  23  24
ENDBRANCH   7  23
TORSDOF 6
ENDMDL
MODEL 6
REMARK VINA RESULT:      -8.4      3.783      5.516
REMARK  Name = 
REMARK  6 active torsions:
REMARK  status: ('A' for Active; 'I' for Inactive)
REMARK    1  A    between atoms: C_2  and  C_4
REMARK    2  A    between atoms: C_2  and  C_23
REMARK    3  A    between atoms: C_4  and  N_5
REMARK    4  A    between atoms: N_5  and  C_6
REMARK    5  A    between atoms: C_12  and  C_13
REMARK    6  A    between atoms: C_13  and  C_14
REMARK                            x       y       z     vdW  Elec       q    Type
REMARK                         _______ _______ _______ _____ _____    ______ ____
ROOT
ATOM      1  C   UNL     1       1.717   7.263  20.327  0.00  0.00    +0.000 A 
ATOM      2  N   UNL     1       0.964   8.281  20.839  0.00  0.00    +0.000 NA
ATOM      3  C   UNL     1       0.789   9.435  20.142  0.00  0.00    +0.000 A 
ATOM      4  C   UNL     1       1.368   9.722  18.920  0.00  0.00    +0.000 A 
ATOM      5  C   UNL     1       2.131   8.681  18.433  0.00  0.00    +0.000 A 
ATOM      6  O   UNL     1       2.850   8.671  17.272  0.00  0.00    +0.000 OA
ATOM      7  C   UNL     1       3.442   7.435  17.260  0.00  0.00    +0.000 A 
ATOM      8  N   UNL     1       3.157   6.674  18.301  0.00  0.00    +0.000 NA
ATOM      9  C   UNL     1       2.320   7.463  19.065  0.00  0.00    +0.000 A 
ENDROOT
BRANCH   1  10
ATOM     10  N   UNL     1       1.941   6.104  21.079  0.00  0.00    +0.000 N 
ATOM     11  H   UNL     1       2.934   5.886  21.023  0.00  0.00    +0.000 HD
BRANCH  10  12
ATOM     12  C   UNL     1       1.096   4.942  20.738  0.00  0.00    +0.000 C 
BRANCH  12  14
ATOM     13  F   UNL     1       2.560   3.745  22.150  0.00  0.00    +0.000 F 
ATOM     14  C   UNL     1       1.742   3.579  21.067  0.00  0.00    +0.000 C 
ATOM     15  F   UNL     1       0.758   2.727  21.489  0.00  0.00    +0.000 F 
BRANCH  14  16
ATOM     16  C   UNL     1       2.533   2.899  19.911  0.00  0.00    +0.000 C 
ATOM     17  C   UNL     1       3.881   3.613  19.693  0.00  0.00    +0.000 C 
ATOM     18  C   UNL     1       4.706   2.934  18.601  0.00  0.00    +0.000 C 
ATOM     19  C   UNL     1       3.890   2.777  17.324  0.00  0.00    +0.000 C 
ATOM     20  C   UNL     1       2.556   2.096  17.610  0.00  0.00    +0.000 C 
ATOM     21  N   UNL     1       1.802   2.840  18.617  0.00  0.00    +0.000 NA
ATOM     22  H   UNL     1       0.907   2.362  18.774  0.00  0.00    +0.000 HD
ENDBRANCH  14  16
ENDBRANCH  12  14
ENDBRANCH  10  12
ENDBRANCH   1  10
BRANCH   7  23
ATOM     23  C   UNL     1       4.353   7.151  16.119  0.00  0.00    +0.000 C 
BRANCH  23  24
ATOM     24  C   UNL     1       5.508   6.251  16.488  0.00  0.00    +0.000 A 
ATOM     25  C   UNL     1       5.918   5.230  15.618  0.00  0.00    +0.000 A 
ATOM     26  C   UNL     1       6.964   4.375  15.970  0.00  0.00    +0.000 A 
ATOM     27  C   UNL     1       7.617   4.537  17.192  0.00  0.00    +0.000 A 
ATOM     28  C   UNL     1       7.233   5.565  18.049  0.00  0.00    +0.000 A 
ATOM     29 CL   UNL     1       8.044   5.771  19.554  0.00  0.00    +0.000 Cl
ATOM     30  C   UNL     1       6.189   6.424  17.703  0.00  0.00    +0.000 A 
ENDBRANCH  23  24
ENDBRANCH   7  23
TORSDOF 6
ENDMDL
MODEL 7
REMARK VINA RESULT:      -8.4      3.971      8.234
REMARK  Name = 
REMARK  6 active torsions:
REMARK  status: ('A' for Active; 'I' for Inactive)
REMARK    1  A    between atoms: C_2  and  C_4
REMARK    2  A    between atoms: C_2  and  C_23
REMARK    3  A    between atoms: C_4  and  N_5
REMARK    4  A    between atoms: N_5  and  C_6
REMARK    5  A    between atoms: C_12  and  C_13
REMARK    6  A    between atoms: C_13  and  C_14
REMARK                            x       y       z     vdW  Elec       q    Type
REMARK                         _______ _______ _______ _____ _____    ______ ____
ROOT
ATOM      1  C   UNL     1       3.988   3.473  18.438  0.00  0.00    +0.000 A 
ATOM      2  N   UNL     1       3.573   2.188  18.233  0.00  0.00    +0.000 NA
ATOM      3  C   UNL     1       2.354   1.773  18.667  0.00  0.00    +0.000 A 
ATOM      4  C   UNL     1       1.457   2.546  19.381  0.00  0.00    +0.000 A 
ATOM      5  C   UNL     1       1.907   3.835  19.582  0.00  0.00    +0.000 A 
ATOM      6  O   UNL     1       1.266   4.823  20.273  0.00  0.00    +0.000 OA
ATOM      7  C   UNL     1       2.127   5.887  20.206  0.00  0.00    +0.000 A 
ATOM      8  N   UNL     1       3.241   5.656  19.535  0.00  0.00    +0.000 NA
ATOM      9  C   UNL     1       3.116   4.341  19.133  0.00  0.00    +0.000 A 
ENDROOT
BRANCH   1  10
ATOM     10  N   UNL     1       5.269   3.874  18.041  0.00  0.00    +0.000 N 
ATOM     11  H   UNL     1       5.802   4.084  18.883  0.00  0.00    +0.000 HD
BRANCH  10  12
ATOM     12  C   UNL     1       5.324   4.974  17.058  0.00  0.00    +0.000 C 
BRANCH  12  14
ATOM     13  F   UNL     1       7.289   6.242  16.742  0.00  0.00    +0.000 F 
ATOM     14  C   UNL     1       6.678   5.093  16.325  0.00  0.00    +0.000 C 
ATOM     15  F   UNL     1       7.489   4.079  16.756  0.00  0.00    +0.000 F 
BRANCH  14  16
ATOM     16  C   UNL     1       6.619   5.062  14.770  0.00  0.00    +0.000 C 
ATOM     17  C   UNL     1       6.042   3.718  14.283  0.00  0.00    +0.000 C 
ATOM     18  C   UNL     1       5.919   3.679  12.760  0.00  0.00    +0.000 C 
ATOM     19  C   UNL     1       7.242   4.046  12.100  0.00  0.00    +0.000 C 
ATOM     20  C   UNL     1       7.776   5.365  12.647  0.00  0.00    +0.000 C 
ATOM     21  N   UNL     1       7.925   5.300  14.100  0.00  0.00    +0.000 NA
ATOM     22  H   UNL     1       8.298   6.197  14.431  0.00  0.00    +0.000 HD
ENDBRANCH  14  16
ENDBRANCH  12  14
ENDBRANCH  10  12
ENDBRANCH   1  10
BRANCH   7  23
ATOM     23  C   UNL     1       1.715   7.116  20.933  0.00  0.00    +0.000 C 
BRANCH  23  24
ATOM     24  C   UNL     1       1.506   8.305  20.025  0.00  0.00    +0.000 A 
ATOM     25  C   UNL     1       1.990   8.285  18.708  0.00  0.00    +0.000 A 
ATOM     26  C   UNL     1       1.827   9.395  17.876  0.00  0.00    +0.000 A 
ATOM     27  C   UNL     1       1.172  10.532  18.348  0.00  0.00    +0.000 A 
ATOM     28  C   UNL     1       0.666  10.548  19.646  0.00  0.00    +0.000 A 
ATOM     29 CL   UNL     1      -0.150  11.948  20.227  0.00  0.00    +0.000 Cl
ATOM     30  C   UNL     1       0.823   9.442  20.482  0.00  0.00    +0.000 A 
ENDBRANCH  23  24
ENDBRANCH   7  23
TORSDOF 6
ENDMDL
MODEL 8
REMARK VINA RESULT:      -8.3      4.308      6.534
REMARK  Name = 
REMARK  6 active torsions:
REMARK  status: ('A' for Active; 'I' for Inactive)
REMARK    1  A    between atoms: C_2  and  C_4
REMARK    2  A    between atoms: C_2  and  C_23
REMARK    3  A    between atoms: C_4  and  N_5
REMARK    4  A    between atoms: N_5  and  C_6
REMARK    5  A    between atoms: C_12  and  C_13
REMARK    6  A    between atoms: C_13  and  C_14
REMARK                            x       y       z     vdW  Elec       q    Type
REMARK                         _______ _______ _______ _____ _____    ______ ____
ROOT
ATOM      1  C   UNL     1       5.829   4.541  18.215  0.00  0.00    +0.000 A 
ATOM      2  N   UNL     1       7.184   4.613  18.050  0.00  0.00    +0.000 NA
ATOM      3  C   UNL     1       7.782   5.789  17.724  0.00  0.00    +0.000 A 
ATOM      4  C   UNL     1       7.121   6.978  17.478  0.00  0.00    +0.000 A 
ATOM      5  C   UNL     1       5.755   6.872  17.642  0.00  0.00    +0.000 A 
ATOM      6  O   UNL     1       4.832   7.859  17.443  0.00  0.00    +0.000 OA
ATOM      7  C   UNL     1       3.634   7.249  17.709  0.00  0.00    +0.000 A 
ATOM      8  N   UNL     1       3.723   5.978  18.057  0.00  0.00    +0.000 NA
ATOM      9  C   UNL     1       5.080   5.721  18.014  0.00  0.00    +0.000 A 
ENDROOT
BRANCH   1  10
ATOM     10  N   UNL     1       5.217   3.313  18.492  0.00  0.00    +0.000 N 
ATOM     11  H   UNL     1       5.953   2.631  18.662  0.00  0.00    +0.000 HD
BRANCH  10  12
ATOM     12  C   UNL     1       4.240   2.841  17.490  0.00  0.00    +0.000 C 
BRANCH  12  14
ATOM     13  F   UNL     1       2.306   1.561  17.054  0.00  0.00    +0.000 F 
ATOM     14  C   UNL     1       3.191   1.858  18.053  0.00  0.00    +0.000 C 
ATOM     15  F   UNL     1       3.820   0.676  18.338  0.00  0.00    +0.000 F 
BRANCH  14  16
ATOM     16  C   UNL     1       2.417   2.333  19.317  0.00  0.00    +0.000 C 
ATOM     17  C   UNL     1       1.695   3.665  19.033  0.00  0.00    +0.000 C 
ATOM     18  C   UNL     1       0.879   4.130  20.239  0.00  0.00    +0.000 C 
ATOM     19  C   UNL     1       1.739   4.162  21.496  0.00  0.00    +0.000 C 
ATOM     20  C   UNL     1       2.452   2.831  21.702  0.00  0.00    +0.000 C 
ATOM     21  N   UNL     1       3.260   2.488  20.533  0.00  0.00    +0.000 NA
ATOM     22  H   UNL     1       3.734   1.596  20.712  0.00  0.00    +0.000 HD
ENDBRANCH  14  16
ENDBRANCH  12  14
ENDBRANCH  10  12
ENDBRANCH   1  10
BRANCH   7  23
ATOM     23  C   UNL     1       2.415   8.078  17.517  0.00  0.00    +0.000 C 
BRANCH  23  24
ATOM     24  C   UNL     1       1.760   8.485  18.816  0.00  0.00    +0.000 A 
ATOM     25  C   UNL     1       1.935   7.710  19.972  0.00  0.00    +0.000 A 
ATOM     26  C   UNL     1       1.304   8.064  21.167  0.00  0.00    +0.000 A 
ATOM     27  C   UNL     1       0.499   9.202  21.220  0.00  0.00    +0.000 A 
ATOM     28  C   UNL     1       0.342   9.991  20.083  0.00  0.00    +0.000 A 
ATOM     29 CL   UNL     1      -0.644  11.400  20.150  0.00  0.00    +0.000 Cl
ATOM     30  C   UNL     1       0.971   9.643  18.886  0.00  0.00    +0.000 A 
ENDBRANCH  23  24
ENDBRANCH   7  23
TORSDOF 6
ENDMDL
MODEL 9
REMARK VINA RESULT:      -8.3      1.529      2.383
REMARK  Name = 
REMARK  6 active torsions:
REMARK  status: ('A' for Active; 'I' for Inactive)
REMARK    1  A    between atoms: C_2  and  C_4
REMARK    2  A    between atoms: C_2  and  C_23
REMARK    3  A    between atoms: C_4  and  N_5
REMARK    4  A    between atoms: N_5  and  C_6
REMARK    5  A    between atoms: C_12  and  C_13
REMARK    6  A    between atoms: C_13  and  C_14
REMARK                            x       y       z     vdW  Elec       q    Type
REMARK                         _______ _______ _______ _____ _____    ______ ____
ROOT
ATOM      1  C   UNL     1       5.461   3.994  17.811  0.00  0.00    +0.000 A 
ATOM      2  N   UNL     1       5.882   4.503  19.006  0.00  0.00    +0.000 NA
ATOM      3  C   UNL     1       6.849   5.457  19.053  0.00  0.00    +0.000 A 
ATOM      4  C   UNL     1       7.527   5.959  17.958  0.00  0.00    +0.000 A 
ATOM      5  C   UNL     1       7.088   5.418  16.767  0.00  0.00    +0.000 A 
ATOM      6  O   UNL     1       7.579   5.687  15.521  0.00  0.00    +0.000 OA
ATOM      7  C   UNL     1       6.835   4.888  14.693  0.00  0.00    +0.000 A 
ATOM      8  N   UNL     1       5.926   4.150  15.304  0.00  0.00    +0.000 NA
ATOM      9  C   UNL     1       6.081   4.476  16.637  0.00  0.00    +0.000 A 
ENDROOT
BRANCH   1  10
ATOM     10  N   UNL     1       4.508   2.969  17.777  0.00  0.00    +0.000 N 
ATOM     11  H   UNL     1       4.775   2.323  17.036  0.00  0.00    +0.000 HD
BRANCH  10  12
ATOM     12  C   UNL     1       3.102   3.401  17.660  0.00  0.00    +0.000 C 
BRANCH  12  14
ATOM     13  F   UNL     1       1.164   3.522  19.002  0.00  0.00    +0.000 F 
ATOM     14  C   UNL     1       2.482   3.884  18.989  0.00  0.00    +0.000 C 
ATOM     15  F   UNL     1       3.057   3.180  20.012  0.00  0.00    +0.000 F 
BRANCH  14  16
ATOM     16  C   UNL     1       2.612   5.405  19.292  0.00  0.00    +0.000 C 
ATOM     17  C   UNL     1       1.630   5.814  20.408  0.00  0.00    +0.000 C 
ATOM     18  C   UNL     1       1.772   7.292  20.768  0.00  0.00    +0.000 C 
ATOM     19  C   UNL     1       1.674   8.165  19.523  0.00  0.00    +0.000 C 
ATOM     20  C   UNL     1       2.642   7.691  18.446  0.00  0.00    +0.000 C 
ATOM     21  N   UNL     1       2.400   6.288  18.114  0.00  0.00    +0.000 NA
ATOM     22  H   UNL     1       3.059   6.008  17.379  0.00  0.00    +0.000 HD
ENDBRANCH  14  16
ENDBRANCH  12  14
ENDBRANCH  10  12
ENDBRANCH   1  10
BRANCH   7  23
ATOM     23  C   UNL     1       7.188   4.924  13.249  0.00  0.00    +0.000 C 
BRANCH  23  24
ATOM     24  C   UNL     1       6.576   3.793  12.457  0.00  0.00    +0.000 A 
ATOM     25  C   UNL     1       7.362   2.703  12.052  0.00  0.00    +0.000 A 
ATOM     26  C   UNL     1       6.807   1.672  11.292  0.00  0.00    +0.000 A 
ATOM     27  C   UNL     1       5.459   1.714  10.936  0.00  0.00    +0.000 A 
ATOM     28  C   UNL     1       4.667   2.780  11.356  0.00  0.00    +0.000 A 
ATOM     29 CL   UNL     1       3.001   2.829  10.924  0.00  0.00    +0.000 Cl
ATOM     30  C   UNL     1       5.214   3.813  12.117  0.00  0.00    +0.000 A 
ENDBRANCH  23  24
ENDBRANCH   7  23
TORSDOF 6
ENDMDL
