MODEL 1
REMARK VINA RESULT:      -6.7      0.000      0.000
REMARK  Name = 
REMARK  10 active torsions:
REMARK  status: ('A' for Active; 'I' for Inactive)
REMARK    1  A    between atoms: C_1  and  C_2
REMARK    2  A    between atoms: C_5  and  C_6
REMARK    3  A    between atoms: C_6  and  N_7
REMARK    4  A    between atoms: N_7  and  C_8
REMARK    5  A    between atoms: C_8  and  C_9
REMARK    6  A    between atoms: C_9  and  O_10
REMARK    7  A    between atoms: C_11  and  C_13
REMARK    8  A    between atoms: C_13  and  O_14
REMARK    9  A    between atoms: O_14  and  C_15
REMARK   10  A    between atoms: C_15  and  C_16
REMARK                            x       y       z     vdW  Elec       q    Type
REMARK                         _______ _______ _______ _____ _____    ______ ____
ROOT
ATOM      1  N   UNL     1       6.318   5.773  17.785  0.00  0.00    +0.000 N 
ATOM      2  C   UNL     1       7.368   6.507  18.346  0.00  0.00    +0.000 C 
ATOM      3  O   UNL     1       7.910   6.191  19.408  0.00  0.00    +0.000 OA
ENDROOT
BRANCH   1   4
ATOM      4  C   UNL     1       5.951   4.517  18.448  0.00  0.00    +0.000 C 
BRANCH   4   9
ATOM      5  C   UNL     1       0.968   2.993  19.697  0.00  0.00    +0.000 C 
ATOM      6  C   UNL     1       2.229   3.775  19.531  0.00  0.00    +0.000 A 
ATOM      7  C   UNL     1       2.494   5.053  19.968  0.00  0.00    +0.000 A 
ATOM      8  C   UNL     1       3.799   5.493  19.596  0.00  0.00    +0.000 A 
ATOM      9  C   UNL     1       4.519   4.520  18.928  0.00  0.00    +0.000 A 
ATOM     10  S   UNL     1       3.567   3.103  18.705  0.00  0.00    +0.000 S 
ENDBRANCH   4   9
ENDBRANCH   1   4
BRANCH   1  11
ATOM     11  C   UNL     1       5.768   6.122  16.466  0.00  0.00    +0.000 C 
BRANCH  11  12
ATOM     12  C   UNL     1       6.109   5.252  15.253  0.00  0.00    +0.000 C 
BRANCH  12  13
ATOM     13  O   UNL     1       7.467   5.455  14.865  0.00  0.00    +0.000 OA
ATOM     14  H   UNL     1       7.720   4.706  14.298  0.00  0.00    +0.000 HD
ENDBRANCH  12  13
ENDBRANCH  11  12
ENDBRANCH   1  11
BRANCH   2  15
ATOM     15  C   UNL     1       7.852   7.768  17.597  0.00  0.00    +0.000 C 
BRANCH  15  16
ATOM     16  O   UNL     1       8.449   8.784  18.393  0.00  0.00    +0.000 OA
BRANCH  16  17
ATOM     17  C   UNL     1       8.332  10.070  17.778  0.00  0.00    +0.000 C 
BRANCH  17  18
ATOM     18  C   UNL     1       9.245  11.097  18.462  0.00  0.00    +0.000 C 
ATOM     19  C   UNL     1       9.583  10.693  19.902  0.00  0.00    +0.000 C 
ATOM     20  C   UNL     1      10.617  11.638  20.509  0.00  0.00    +0.000 C 
ATOM     21  C   UNL     1      11.816  11.788  19.581  0.00  0.00    +0.000 C 
ATOM     22  C   UNL     1      11.358  12.168  18.181  0.00  0.00    +0.000 C 
ATOM     23  O   UNL     1      10.441  11.201  17.674  0.00  0.00    +0.000 OA
ENDBRANCH  17  18
ENDBRANCH  16  17
ENDBRANCH  15  16
ENDBRANCH   2  15
TORSDOF 9
ENDMDL
MODEL 2
REMARK VINA RESULT:      -6.3      0.855      1.232
REMARK  Name = 
REMARK  10 active torsions:
REMARK  status: ('A' for Active; 'I' for Inactive)
REMARK    1  A    between atoms: C_1  and  C_2
REMARK    2  A    between atoms: C_5  and  C_6
REMARK    3  A    between atoms: C_6  and  N_7
REMARK    4  A    between atoms: N_7  and  C_8
REMARK    5  A    between atoms: C_8  and  C_9
REMARK    6  A    between atoms: C_9  and  O_10
REMARK    7  A    between atoms: C_11  and  C_13
REMARK    8  A    between atoms: C_13  and  O_14
REMARK    9  A    between atoms: O_14  and  C_15
REMARK   10  A    between atoms: C_15  and  C_16
REMARK                            x       y       z     vdW  Elec       q    Type
REMARK                         _______ _______ _______ _____ _____    ______ ____
ROOT
ATOM      1  N   UNL     1       6.283   5.883  17.690  0.00  0.00    +0.000 N 
ATOM      2  C   UNL     1       7.374   6.541  18.267  0.00  0.00    +0.000 C 
ATOM      3  O   UNL     1       7.998   6.081  19.227  0.00  0.00    +0.000 OA
ENDROOT
BRANCH   1   4
ATOM      4  C   UNL     1       5.969   4.541  18.192  0.00  0.00    +0.000 C 
BRANCH   4   9
ATOM      5  C   UNL     1       1.407   2.838  20.427  0.00  0.00    +0.000 C 
ATOM      6  C   UNL     1       2.562   3.673  19.986  0.00  0.00    +0.000 A 
ATOM      7  C   UNL     1       2.815   4.991  20.291  0.00  0.00    +0.000 A 
ATOM      8  C   UNL     1       4.000   5.475  19.659  0.00  0.00    +0.000 A 
ATOM      9  C   UNL     1       4.651   4.499  18.928  0.00  0.00    +0.000 A 
ATOM     10  S   UNL     1       3.770   3.020  18.967  0.00  0.00    +0.000 S 
ENDBRANCH   4   9
ENDBRANCH   1   4
BRANCH   1  11
ATOM     11  C   UNL     1       5.631   6.411  16.481  0.00  0.00    +0.000 C 
BRANCH  11  12
ATOM     12  C   UNL     1       5.756   5.645  15.161  0.00  0.00    +0.000 C 
BRANCH  12  13
ATOM     13  O   UNL     1       7.128   5.519  14.791  0.00  0.00    +0.000 OA
ATOM     14  H   UNL     1       7.157   5.422  13.824  0.00  0.00    +0.000 HD
ENDBRANCH  12  13
ENDBRANCH  11  12
ENDBRANCH   1  11
BRANCH   2  15
ATOM     15  C   UNL     1       7.798   7.900  17.671  0.00  0.00    +0.000 C 
BRANCH  15  16
ATOM     16  O   UNL     1       8.664   8.697  18.471  0.00  0.00    +0.000 OA
BRANCH  16  17
ATOM     17  C   UNL     1       8.466  10.092  18.229  0.00  0.00    +0.000 C 
BRANCH  17  18
ATOM     18  C   UNL     1       9.655  10.918  18.741  0.00  0.00    +0.000 C 
ATOM     19  C   UNL     1       9.901  12.163  17.879  0.00  0.00    +0.000 C 
ATOM     20  C   UNL     1      10.976  13.053  18.495  0.00  0.00    +0.000 C 
ATOM     21  C   UNL     1      10.668  13.332  19.960  0.00  0.00    +0.000 C 
ATOM     22  C   UNL     1      10.422  12.030  20.707  0.00  0.00    +0.000 C 
ATOM     23  O   UNL     1       9.365  11.294  20.097  0.00  0.00    +0.000 OA
ENDBRANCH  17  18
ENDBRANCH  16  17
ENDBRANCH  15  16
ENDBRANCH   2  15
TORSDOF 9
ENDMDL
MODEL 3
REMARK VINA RESULT:      -6.2      4.909      6.384
REMARK  Name = 
REMARK  10 active torsions:
REMARK  status: ('A' for Active; 'I' for Inactive)
REMARK    1  A    between atoms: C_1  and  C_2
REMARK    2  A    between atoms: C_5  and  C_6
REMARK    3  A    between atoms: C_6  and  N_7
REMARK    4  A    between atoms: N_7  and  C_8
REMARK    5  A    between atoms: C_8  and  C_9
REMARK    6  A    between atoms: C_9  and  O_10
REMARK    7  A    between atoms: C_11  and  C_13
REMARK    8  A    between atoms: C_13  and  O_14
REMARK    9  A    between atoms: O_14  and  C_15
REMARK   10  A    between atoms: C_15  and  C_16
REMARK                            x       y       z     vdW  Elec       q    Type
REMARK                         _______ _______ _______ _____ _____    ______ ____
ROOT
ATOM      1  N   UNL     1       4.088   4.441  18.890  0.00  0.00    +0.000 N 
ATOM      2  C   UNL     1       5.442   4.782  18.967  0.00  0.00    +0.000 C 
ATOM      3  O   UNL     1       5.865   5.665  19.716  0.00  0.00    +0.000 OA
ENDROOT
BRANCH   1   4
ATOM      4  C   UNL     1       3.179   5.094  19.837  0.00  0.00    +0.000 C 
BRANCH   4   9
ATOM      5  C   UNL     1       0.915   9.939  19.495  0.00  0.00    +0.000 C 
ATOM      6  C   UNL     1       1.617   8.660  19.182  0.00  0.00    +0.000 A 
ATOM      7  C   UNL     1       2.169   8.271  17.982  0.00  0.00    +0.000 A 
ATOM      8  C   UNL     1       2.729   6.960  18.043  0.00  0.00    +0.000 A 
ATOM      9  C   UNL     1       2.638   6.400  19.303  0.00  0.00    +0.000 A 
ATOM     10  S   UNL     1       1.809   7.456  20.381  0.00  0.00    +0.000 S 
ENDBRANCH   4   9
ENDBRANCH   1   4
BRANCH   1  11
ATOM     11  C   UNL     1       3.636   3.311  18.063  0.00  0.00    +0.000 C 
BRANCH  11  12
ATOM     12  C   UNL     1       3.252   1.990  18.736  0.00  0.00    +0.000 C 
BRANCH  12  13
ATOM     13  O   UNL     1       4.166   0.961  18.361  0.00  0.00    +0.000 OA
ATOM     14  H   UNL     1       4.509   0.567  19.181  0.00  0.00    +0.000 HD
ENDBRANCH  12  13
ENDBRANCH  11  12
ENDBRANCH   1  11
BRANCH   2  15
ATOM     15  C   UNL     1       6.434   4.017  18.064  0.00  0.00    +0.000 C 
BRANCH  15  16
ATOM     16  O   UNL     1       7.098   4.782  17.066  0.00  0.00    +0.000 OA
BRANCH  16  17
ATOM     17  C   UNL     1       6.248   5.028  15.942  0.00  0.00    +0.000 C 
BRANCH  17  18
ATOM     18  C   UNL     1       6.873   4.494  14.646  0.00  0.00    +0.000 C 
ATOM     19  C   UNL     1       5.816   3.919  13.695  0.00  0.00    +0.000 C 
ATOM     20  C   UNL     1       6.432   3.543  12.351  0.00  0.00    +0.000 C 
ATOM     21  C   UNL     1       7.243   4.704  11.790  0.00  0.00    +0.000 C 
ATOM     22  C   UNL     1       8.240   5.203  12.824  0.00  0.00    +0.000 C 
ATOM     23  O   UNL     1       7.569   5.585  14.023  0.00  0.00    +0.000 OA
ENDBRANCH  17  18
ENDBRANCH  16  17
ENDBRANCH  15  16
ENDBRANCH   2  15
TORSDOF 9
ENDMDL
MODEL 4
REMARK VINA RESULT:      -6.2      6.180      9.313
REMARK  Name = 
REMARK  10 active torsions:
REMARK  status: ('A' for Active; 'I' for Inactive)
REMARK    1  A    between atoms: C_1  and  C_2
REMARK    2  A    between atoms: C_5  and  C_6
REMARK    3  A    between atoms: C_6  and  N_7
REMARK    4  A    between atoms: N_7  and  C_8
REMARK    5  A    between atoms: C_8  and  C_9
REMARK    6  A    between atoms: C_9  and  O_10
REMARK    7  A    between atoms: C_11  and  C_13
REMARK    8  A    between atoms: C_13  and  O_14
REMARK    9  A    between atoms: O_14  and  C_15
REMARK   10  A    between atoms: C_15  and  C_16
REMARK                            x       y       z     vdW  Elec       q    Type
REMARK                         _______ _______ _______ _____ _____    ______ ____
ROOT
ATOM      1  N   UNL     1       0.727   9.583  19.297  0.00  0.00    +0.000 N 
ATOM      2  C   UNL     1       1.690   8.985  18.478  0.00  0.00    +0.000 C 
ATOM      3  O   UNL     1       2.011   9.447  17.380  0.00  0.00    +0.000 OA
ENDROOT
BRANCH   1   4
ATOM      4  C   UNL     1       0.184  10.873  18.859  0.00  0.00    +0.000 C 
BRANCH   4   9
ATOM      5  C   UNL     1      -4.970  11.710  17.653  0.00  0.00    +0.000 C 
ATOM      6  C   UNL     1      -3.577  11.175  17.699  0.00  0.00    +0.000 A 
ATOM      7  C   UNL     1      -3.034  10.169  16.933  0.00  0.00    +0.000 A 
ATOM      8  C   UNL     1      -1.676   9.898  17.279  0.00  0.00    +0.000 A 
ATOM      9  C   UNL     1      -1.200  10.740  18.267  0.00  0.00    +0.000 A 
ATOM     10  S   UNL     1      -2.438  11.808  18.806  0.00  0.00    +0.000 S 
ENDBRANCH   4   9
ENDBRANCH   1   4
BRANCH   1  11
ATOM     11  C   UNL     1       0.448   9.062  20.644  0.00  0.00    +0.000 C 
BRANCH  11  12
ATOM     12  C   UNL     1       0.860   9.882  21.870  0.00  0.00    +0.000 C 
BRANCH  12  13
ATOM     13  O   UNL     1       1.917   9.229  22.569  0.00  0.00    +0.000 OA
ATOM     14  H   UNL     1       2.430   8.727  21.912  0.00  0.00    +0.000 HD
ENDBRANCH  12  13
ENDBRANCH  11  12
ENDBRANCH   1  11
BRANCH   2  15
ATOM     15  C   UNL     1       2.365   7.690  18.979  0.00  0.00    +0.000 C 
BRANCH  15  16
ATOM     16  O   UNL     1       3.098   6.946  18.014  0.00  0.00    +0.000 OA
BRANCH  16  17
ATOM     17  C   UNL     1       3.734   5.808  18.600  0.00  0.00    +0.000 C 
BRANCH  17  18
ATOM     18  C   UNL     1       2.700   4.805  19.130  0.00  0.00    +0.000 C 
ATOM     19  C   UNL     1       1.951   4.100  17.993  0.00  0.00    +0.000 C 
ATOM     20  C   UNL     1       1.047   2.995  18.533  0.00  0.00    +0.000 C 
ATOM     21  C   UNL     1       1.824   2.074  19.465  0.00  0.00    +0.000 C 
ATOM     22  C   UNL     1       2.540   2.884  20.535  0.00  0.00    +0.000 C 
ATOM     23  O   UNL     1       3.403   3.849  19.939  0.00  0.00    +0.000 OA
ENDBRANCH  17  18
ENDBRANCH  16  17
ENDBRANCH  15  16
ENDBRANCH   2  15
TORSDOF 9
ENDMDL
MODEL 5
REMARK VINA RESULT:      -6.2      6.228      9.322
REMARK  Name = 
REMARK  10 active torsions:
REMARK  status: ('A' for Active; 'I' for Inactive)
REMARK    1  A    between atoms: C_1  and  C_2
REMARK    2  A    between atoms: C_5  and  C_6
REMARK    3  A    between atoms: C_6  and  N_7
REMARK    4  A    between atoms: N_7  and  C_8
REMARK    5  A    between atoms: C_8  and  C_9
REMARK    6  A    between atoms: C_9  and  O_10
REMARK    7  A    between atoms: C_11  and  C_13
REMARK    8  A    between atoms: C_13  and  O_14
REMARK    9  A    between atoms: O_14  and  C_15
REMARK   10  A    between atoms: C_15  and  C_16
REMARK                            x       y       z     vdW  Elec       q    Type
REMARK                         _______ _______ _______ _____ _____    ______ ____
ROOT
ATOM      1  N   UNL     1       0.806   9.503  19.278  0.00  0.00    +0.000 N 
ATOM      2  C   UNL     1       1.793   8.741  18.645  0.00  0.00    +0.000 C 
ATOM      3  O   UNL     1       2.231   9.015  17.525  0.00  0.00    +0.000 OA
ENDROOT
BRANCH   1   4
ATOM      4  C   UNL     1       0.383  10.738  18.610  0.00  0.00    +0.000 C 
BRANCH   4   9
ATOM      5  C   UNL     1      -4.851  11.816  18.210  0.00  0.00    +0.000 C 
ATOM      6  C   UNL     1      -3.485  11.247  18.012  0.00  0.00    +0.000 A 
ATOM      7  C   UNL     1      -3.086  10.314  17.082  0.00  0.00    +0.000 A 
ATOM      8  C   UNL     1      -1.706   9.977  17.210  0.00  0.00    +0.000 A 
ATOM      9  C   UNL     1      -1.071  10.700  18.203  0.00  0.00    +0.000 A 
ATOM     10  S   UNL     1      -2.186  11.734  19.011  0.00  0.00    +0.000 S 
ENDBRANCH   4   9
ENDBRANCH   1   4
BRANCH   1  11
ATOM     11  C   UNL     1       0.385   9.205  20.657  0.00  0.00    +0.000 C 
BRANCH  11  12
ATOM     12  C   UNL     1       0.926  10.055  21.810  0.00  0.00    +0.000 C 
BRANCH  12  13
ATOM     13  O   UNL     1       1.910   9.325  22.541  0.00  0.00    +0.000 OA
ATOM     14  H   UNL     1       1.622   8.396  22.563  0.00  0.00    +0.000 HD
ENDBRANCH  12  13
ENDBRANCH  11  12
ENDBRANCH   1  11
BRANCH   2  15
ATOM     15  C   UNL     1       2.341   7.503  19.388  0.00  0.00    +0.000 C 
BRANCH  15  16
ATOM     16  O   UNL     1       3.037   6.549  18.595  0.00  0.00    +0.000 OA
BRANCH  16  17
ATOM     17  C   UNL     1       3.806   5.655  19.404  0.00  0.00    +0.000 C 
BRANCH  17  18
ATOM     18  C   UNL     1       3.135   4.278  19.502  0.00  0.00    +0.000 C 
ATOM     19  C   UNL     1       2.221   4.173  20.729  0.00  0.00    +0.000 C 
ATOM     20  C   UNL     1       1.440   2.862  20.722  0.00  0.00    +0.000 C 
ATOM     21  C   UNL     1       0.748   2.658  19.380  0.00  0.00    +0.000 C 
ATOM     22  C   UNL     1       1.745   2.806  18.241  0.00  0.00    +0.000 C 
ATOM     23  O   UNL     1       2.382   4.080  18.295  0.00  0.00    +0.000 OA
ENDBRANCH  17  18
ENDBRANCH  16  17
ENDBRANCH  15  16
ENDBRANCH   2  15
TORSDOF 9
ENDMDL
MODEL 6
REMARK VINA RESULT:      -6.1      4.988      6.675
REMARK  Name = 
REMARK  10 active torsions:
REMARK  status: ('A' for Active; 'I' for Inactive)
REMARK    1  A    between atoms: C_1  and  C_2
REMARK    2  A    between atoms: C_5  and  C_6
REMARK    3  A    between atoms: C_6  and  N_7
REMARK    4  A    between atoms: N_7  and  C_8
REMARK    5  A    between atoms: C_8  and  C_9
REMARK    6  A    between atoms: C_9  and  O_10
REMARK    7  A    between atoms: C_11  and  C_13
REMARK    8  A    between atoms: C_13  and  O_14
REMARK    9  A    between atoms: O_14  and  C_15
REMARK   10  A    between atoms: C_15  and  C_16
REMARK                            x       y       z     vdW  Elec       q    Type
REMARK                         _______ _______ _______ _____ _____    ______ ____
ROOT
ATOM      1  N   UNL     1       3.447   4.753  19.111  0.00  0.00    +0.000 N 
ATOM      2  C   UNL     1       4.823   4.861  18.884  0.00  0.00    +0.000 C 
ATOM      3  O   UNL     1       5.518   5.733  19.411  0.00  0.00    +0.000 OA
ENDROOT
BRANCH   1   4
ATOM      4  C   UNL     1       2.861   5.651  20.112  0.00  0.00    +0.000 C 
BRANCH   4   9
ATOM      5  C   UNL     1       0.667  10.498  19.470  0.00  0.00    +0.000 C 
ATOM      6  C   UNL     1       1.344   9.188  19.235  0.00  0.00    +0.000 A 
ATOM      7  C   UNL     1       1.867   8.708  18.057  0.00  0.00    +0.000 A 
ATOM      8  C   UNL     1       2.408   7.395  18.199  0.00  0.00    +0.000 A 
ATOM      9  C   UNL     1       2.331   6.925  19.497  0.00  0.00    +0.000 A 
ATOM     10  S   UNL     1       1.538   8.068  20.512  0.00  0.00    +0.000 S 
ENDBRANCH   4   9
ENDBRANCH   1   4
BRANCH   1  11
ATOM     11  C   UNL     1       2.670   3.637  18.549  0.00  0.00    +0.000 C 
BRANCH  11  12
ATOM     12  C   UNL     1       1.165   3.556  18.813  0.00  0.00    +0.000 C 
BRANCH  12  13
ATOM     13  O   UNL     1       0.638   2.335  18.300  0.00  0.00    +0.000 OA
ATOM     14  H   UNL     1       1.389   1.815  17.965  0.00  0.00    +0.000 HD
ENDBRANCH  12  13
ENDBRANCH  11  12
ENDBRANCH   1  11
BRANCH   2  15
ATOM     15  C   UNL     1       5.481   3.844  17.927  0.00  0.00    +0.000 C 
BRANCH  15  16
ATOM     16  O   UNL     1       6.587   4.318  17.169  0.00  0.00    +0.000 OA
BRANCH  16  17
ATOM     17  C   UNL     1       6.159   5.051  16.018  0.00  0.00    +0.000 C 
BRANCH  17  18
ATOM     18  C   UNL     1       6.806   4.504  14.738  0.00  0.00    +0.000 C 
ATOM     19  C   UNL     1       5.763   3.941  13.765  0.00  0.00    +0.000 C 
ATOM     20  C   UNL     1       6.405   3.552  12.436  0.00  0.00    +0.000 C 
ATOM     21  C   UNL     1       7.245   4.700  11.890  0.00  0.00    +0.000 C 
ATOM     22  C   UNL     1       8.225   5.188  12.946  0.00  0.00    +0.000 C 
ATOM     23  O   UNL     1       7.532   5.583  14.128  0.00  0.00    +0.000 OA
ENDBRANCH  17  18
ENDBRANCH  16  17
ENDBRANCH  15  16
ENDBRANCH   2  15
TORSDOF 9
ENDMDL
MODEL 7
REMARK VINA RESULT:      -5.9      4.057      6.220
REMARK  Name = 
REMARK  10 active torsions:
REMARK  status: ('A' for Active; 'I' for Inactive)
REMARK    1  A    between atoms: C_1  and  C_2
REMARK    2  A    between atoms: C_5  and  C_6
REMARK    3  A    between atoms: C_6  and  N_7
REMARK    4  A    between atoms: N_7  and  C_8
REMARK    5  A    between atoms: C_8  and  C_9
REMARK    6  A    between atoms: C_9  and  O_10
REMARK    7  A    between atoms: C_11  and  C_13
REMARK    8  A    between atoms: C_13  and  O_14
REMARK    9  A    between atoms: O_14  and  C_15
REMARK   10  A    between atoms: C_15  and  C_16
REMARK                            x       y       z     vdW  Elec       q    Type
REMARK                         _______ _______ _______ _____ _____    ______ ____
ROOT
ATOM      1  N   UNL     1       4.461   5.837  17.970  0.00  0.00    +0.000 N 
ATOM      2  C   UNL     1       5.263   6.492  17.030  0.00  0.00    +0.000 C 
ATOM      3  O   UNL     1       4.802   7.027  16.018  0.00  0.00    +0.000 OA
ENDROOT
BRANCH   1   4
ATOM      4  C   UNL     1       3.008   5.911  17.779  0.00  0.00    +0.000 C 
BRANCH   4   9
ATOM      5  C   UNL     1       0.992   9.051  21.624  0.00  0.00    +0.000 C 
ATOM      6  C   UNL     1       1.499   8.524  20.323  0.00  0.00    +0.000 A 
ATOM      7  C   UNL     1       1.631   9.201  19.132  0.00  0.00    +0.000 A 
ATOM      8  C   UNL     1       2.117   8.364  18.084  0.00  0.00    +0.000 A 
ATOM      9  C   UNL     1       2.394   7.079  18.513  0.00  0.00    +0.000 A 
ATOM     10  S   UNL     1       1.993   6.893  20.177  0.00  0.00    +0.000 S 
ENDBRANCH   4   9
ENDBRANCH   1   4
BRANCH   1  11
ATOM     11  C   UNL     1       5.034   5.305  19.216  0.00  0.00    +0.000 C 
BRANCH  11  12
ATOM     12  C   UNL     1       4.539   3.962  19.761  0.00  0.00    +0.000 C 
BRANCH  12  13
ATOM     13  O   UNL     1       5.351   2.899  19.267  0.00  0.00    +0.000 OA
ATOM     14  H   UNL     1       6.213   3.281  19.029  0.00  0.00    +0.000 HD
ENDBRANCH  12  13
ENDBRANCH  11  12
ENDBRANCH   1  11
BRANCH   2  15
ATOM     15  C   UNL     1       6.786   6.532  17.279  0.00  0.00    +0.000 C 
BRANCH  15  16
ATOM     16  O   UNL     1       7.529   5.411  16.818  0.00  0.00    +0.000 OA
BRANCH  16  17
ATOM     17  C   UNL     1       6.709   4.506  16.075  0.00  0.00    +0.000 C 
BRANCH  17  18
ATOM     18  C   UNL     1       7.244   4.313  14.649  0.00  0.00    +0.000 C 
ATOM     19  C   UNL     1       6.160   3.800  13.695  0.00  0.00    +0.000 C 
ATOM     20  C   UNL     1       6.664   3.770  12.255  0.00  0.00    +0.000 C 
ATOM     21  C   UNL     1       7.279   5.110  11.874  0.00  0.00    +0.000 C 
ATOM     22  C   UNL     1       8.321   5.526  12.900  0.00  0.00    +0.000 C 
ATOM     23  O   UNL     1       7.747   5.583  14.204  0.00  0.00    +0.000 OA
ENDBRANCH  17  18
ENDBRANCH  16  17
ENDBRANCH  15  16
ENDBRANCH   2  15
TORSDOF 9
ENDMDL
MODEL 8
REMARK VINA RESULT:      -5.9      5.278      7.071
REMARK  Name = 
REMARK  10 active torsions:
REMARK  status: ('A' for Active; 'I' for Inactive)
REMARK    1  A    between atoms: C_1  and  C_2
REMARK    2  A    between atoms: C_5  and  C_6
REMARK    3  A    between atoms: C_6  and  N_7
REMARK    4  A    between atoms: N_7  and  C_8
REMARK    5  A    between atoms: C_8  and  C_9
REMARK    6  A    between atoms: C_9  and  O_10
REMARK    7  A    between atoms: C_11  and  C_13
REMARK    8  A    between atoms: C_13  and  O_14
REMARK    9  A    between atoms: O_14  and  C_15
REMARK   10  A    between atoms: C_15  and  C_16
REMARK                            x       y       z     vdW  Elec       q    Type
REMARK                         _______ _______ _______ _____ _____    ______ ____
ROOT
ATOM      1  N   UNL     1       2.981   4.978  18.926  0.00  0.00    +0.000 N 
ATOM      2  C   UNL     1       4.337   4.736  18.684  0.00  0.00    +0.000 C 
ATOM      3  O   UNL     1       5.236   5.386  19.223  0.00  0.00    +0.000 OA
ENDROOT
BRANCH   1   4
ATOM      4  C   UNL     1       2.651   5.968  19.956  0.00  0.00    +0.000 C 
BRANCH   4   9
ATOM      5  C   UNL     1       0.618  10.892  19.379  0.00  0.00    +0.000 C 
ATOM      6  C   UNL     1       1.277   9.576  19.134  0.00  0.00    +0.000 A 
ATOM      7  C   UNL     1       1.866   9.131  17.972  0.00  0.00    +0.000 A 
ATOM      8  C   UNL     1       2.366   7.799  18.094  0.00  0.00    +0.000 A 
ATOM      9  C   UNL     1       2.192   7.280  19.363  0.00  0.00    +0.000 A 
ATOM     10  S   UNL     1       1.361   8.400  20.372  0.00  0.00    +0.000 S 
ENDBRANCH   4   9
ENDBRANCH   1   4
BRANCH   1  11
ATOM     11  C   UNL     1       1.941   4.113  18.347  0.00  0.00    +0.000 C 
BRANCH  11  12
ATOM     12  C   UNL     1       1.271   3.050  19.222  0.00  0.00    +0.000 C 
BRANCH  12  13
ATOM     13  O   UNL     1       1.159   1.821  18.507  0.00  0.00    +0.000 OA
ATOM     14  H   UNL     1       2.041   1.410  18.500  0.00  0.00    +0.000 HD
ENDBRANCH  12  13
ENDBRANCH  11  12
ENDBRANCH   1  11
BRANCH   2  15
ATOM     15  C   UNL     1       4.707   3.611  17.694  0.00  0.00    +0.000 C 
BRANCH  15  16
ATOM     16  O   UNL     1       4.679   3.951  16.314  0.00  0.00    +0.000 OA
BRANCH  16  17
ATOM     17  C   UNL     1       5.796   4.768  15.951  0.00  0.00    +0.000 C 
BRANCH  17  18
ATOM     18  C   UNL     1       5.967   4.830  14.427  0.00  0.00    +0.000 C 
ATOM     19  C   UNL     1       7.412   5.149  14.026  0.00  0.00    +0.000 C 
ATOM     20  C   UNL     1       7.598   5.047  12.514  0.00  0.00    +0.000 C 
ATOM     21  C   UNL     1       7.061   3.718  11.997  0.00  0.00    +0.000 C 
ATOM     22  C   UNL     1       5.633   3.502  12.474  0.00  0.00    +0.000 C 
ATOM     23  O   UNL     1       5.566   3.557  13.897  0.00  0.00    +0.000 OA
ENDBRANCH  17  18
ENDBRANCH  16  17
ENDBRANCH  15  16
ENDBRANCH   2  15
TORSDOF 9
ENDMDL
MODEL 9
REMARK VINA RESULT:      -5.9      1.107      1.359
REMARK  Name = 
REMARK  10 active torsions:
REMARK  status: ('A' for Active; 'I' for Inactive)
REMARK    1  A    between atoms: C_1  and  C_2
REMARK    2  A    between atoms: C_5  and  C_6
REMARK    3  A    between atoms: C_6  and  N_7
REMARK    4  A    between atoms: N_7  and  C_8
REMARK    5  A    between atoms: C_8  and  C_9
REMARK    6  A    between atoms: C_9  and  O_10
REMARK    7  A    between atoms: C_11  and  C_13
REMARK    8  A    between atoms: C_13  and  O_14
REMARK    9  A    between atoms: O_14  and  C_15
REMARK   10  A    between atoms: C_15  and  C_16
REMARK                            x       y       z     vdW  Elec       q    Type
REMARK                         _______ _______ _______ _____ _____    ______ ____
ROOT
ATOM      1  N   UNL     1       6.698   5.708  17.530  0.00  0.00    +0.000 N 
ATOM      2  C   UNL     1       7.559   6.564  18.224  0.00  0.00    +0.000 C 
ATOM      3  O   UNL     1       8.043   6.276  19.321  0.00  0.00    +0.000 OA
ENDROOT
BRANCH   1   4
ATOM      4  C   UNL     1       6.478   4.374  18.099  0.00  0.00    +0.000 C 
BRANCH   4   9
ATOM      5  C   UNL     1       1.449   4.501  19.945  0.00  0.00    +0.000 C 
ATOM      6  C   UNL     1       2.681   4.187  19.164  0.00  0.00    +0.000 A 
ATOM      7  C   UNL     1       2.803   3.349  18.080  0.00  0.00    +0.000 A 
ATOM      8  C   UNL     1       4.148   3.263  17.609  0.00  0.00    +0.000 A 
ATOM      9  C   UNL     1       5.012   4.079  18.315  0.00  0.00    +0.000 A 
ATOM     10  S   UNL     1       4.182   4.891  19.587  0.00  0.00    +0.000 S 
ENDBRANCH   4   9
ENDBRANCH   1   4
BRANCH   1  11
ATOM     11  C   UNL     1       6.226   6.040  16.176  0.00  0.00    +0.000 C 
BRANCH  11  12
ATOM     12  C   UNL     1       4.864   6.716  15.997  0.00  0.00    +0.000 C 
BRANCH  12  13
ATOM     13  O   UNL     1       4.790   7.347  14.720  0.00  0.00    +0.000 OA
ATOM     14  H   UNL     1       4.750   6.642  14.052  0.00  0.00    +0.000 HD
ENDBRANCH  12  13
ENDBRANCH  11  12
ENDBRANCH   1  11
BRANCH   2  15
ATOM     15  C   UNL     1       7.902   7.924  17.580  0.00  0.00    +0.000 C 
BRANCH  15  16
ATOM     16  O   UNL     1       8.608   8.849  18.399  0.00  0.00    +0.000 OA
BRANCH  16  17
ATOM     17  C   UNL     1       8.206  10.196  18.137  0.00  0.00    +0.000 C 
BRANCH  17  18
ATOM     18  C   UNL     1       9.287  11.193  18.576  0.00  0.00    +0.000 C 
ATOM     19  C   UNL     1       9.689  10.994  20.043  0.00  0.00    +0.000 C 
ATOM     20  C   UNL     1      10.874  11.881  20.414  0.00  0.00    +0.000 C 
ATOM     21  C   UNL     1      12.004  11.715  19.406  0.00  0.00    +0.000 C 
ATOM     22  C   UNL     1      11.484  11.914  17.990  0.00  0.00    +0.000 C 
ATOM     23  O   UNL     1      10.421  11.006  17.714  0.00  0.00    +0.000 OA
ENDBRANCH  17  18
ENDBRANCH  16  17
ENDBRANCH  15  16
ENDBRANCH   2  15
TORSDOF 9
ENDMDL
