MODEL 1
REMARK VINA RESULT:      -8.0      0.000      0.000
REMARK  Name = 
REMARK  10 active torsions:
REMARK  status: ('A' for Active; 'I' for Inactive)
REMARK    1  A    between atoms: C_1  and  C_2
REMARK    2  A    between atoms: C_2  and  C_3
REMARK    3  A    between atoms: C_2  and  N_7
REMARK    4  A    between atoms: C_3  and  C_4
REMARK    5  A    between atoms: N_7  and  C_8
REMARK    6  A    between atoms: C_8  and  C_9
REMARK    7  A    between atoms: C_8  and  C_26
REMARK    8  A    between atoms: C_14  and  C_15
REMARK    9  A    between atoms: C_15  and  C_17
REMARK   10  A    between atoms: C_20  and  N_21
REMARK                            x       y       z     vdW  Elec       q    Type
REMARK                         _______ _______ _______ _____ _____    ______ ____
ROOT
ATOM      1  C   UNL     1       2.244   6.251  20.065  0.00  0.00    +0.000 A 
ATOM      2  C   UNL     1       1.077   5.541  20.385  0.00  0.00    +0.000 A 
ATOM      3  C   UNL     1       1.021   4.155  20.220  0.00  0.00    +0.000 A 
ATOM      4  C   UNL     1       2.155   3.441  19.812  0.00  0.00    +0.000 A 
ATOM      5 CL   UNL     1       1.977   1.734  19.628  0.00  0.00    +0.000 Cl
ATOM      6  C   UNL     1       3.356   4.121  19.589  0.00  0.00    +0.000 A 
ATOM      7  C   UNL     1       3.369   5.522  19.664  0.00  0.00    +0.000 A 
ATOM      8  F   UNL     1       4.477   6.196  19.311  0.00  0.00    +0.000 F 
ENDROOT
BRANCH   6   9
ATOM      9  C   UNL     1       4.619   3.417  19.262  0.00  0.00    +0.000 C 
ATOM     10  O   UNL     1       5.015   2.493  19.967  0.00  0.00    +0.000 OA
BRANCH   9  11
ATOM     11  C   UNL     1       5.391   3.823  18.050  0.00  0.00    +0.000 A 
ATOM     12  C   UNL     1       4.780   3.798  16.802  0.00  0.00    +0.000 A 
ATOM     13  C   UNL     1       5.504   4.253  15.699  0.00  0.00    +0.000 A 
ATOM     14  C   UNL     1       6.829   4.669  15.847  0.00  0.00    +0.000 A 
ATOM     15  C   UNL     1       7.334   4.680  17.147  0.00  0.00    +0.000 A 
ATOM     16  N   UNL     1       6.665   4.247  18.242  0.00  0.00    +0.000 NA
BRANCH  14  17
ATOM     17  N   UNL     1       7.511   5.262  14.780  0.00  0.00    +0.000 N 
ATOM     18  H   UNL     1       7.237   6.227  14.608  0.00  0.00    +0.000 HD
ATOM     19  H   UNL     1       7.496   4.709  13.925  0.00  0.00    +0.000 HD
ENDBRANCH  14  17
ENDBRANCH   9  11
ENDBRANCH   6   9
BRANCH   1  20
ATOM     20  C   UNL     1       2.289   7.768  20.086  0.00  0.00    +0.000 C 
BRANCH  20  21
ATOM     21  C   UNL     1       1.622   8.282  18.818  0.00  0.00    +0.000 C 
ATOM     22  C   UNL     1       2.301   9.256  17.882  0.00  0.00    +0.000 C 
ATOM     23  C   UNL     1       2.128   7.822  17.469  0.00  0.00    +0.000 C 
ENDBRANCH  20  21
BRANCH  20  24
ATOM     24  N   UNL     1       1.583   8.373  21.222  0.00  0.00    +0.000 NA
ATOM     25  H   UNL     1       1.249   7.624  21.828  0.00  0.00    +0.000 HD
BRANCH  24  27
ATOM     26  C   UNL     1       0.979  10.693  20.863  0.00  0.00    +0.000 C 
ATOM     27  C   UNL     1       0.436   9.250  20.880  0.00  0.00    +0.000 C 
BRANCH  27  28
ATOM     28  C   UNL     1      -0.750   9.128  21.858  0.00  0.00    +0.000 C 
BRANCH  28  29
ATOM     29  C   UNL     1      -0.573   9.894  23.154  0.00  0.00    +0.000 C 
ATOM     30  N   UNL     1      -1.504  10.877  23.347  0.00  0.00    +0.000 N 
ATOM     31  O   UNL     1       0.302   9.699  23.986  0.00  0.00    +0.000 OA
ATOM     32  H   UNL     1      -2.107  11.206  22.604  0.00  0.00    +0.000 HD
ATOM     33  H   UNL     1      -1.411  11.451  24.175  0.00  0.00    +0.000 HD
ENDBRANCH  28  29
ENDBRANCH  27  28
ENDBRANCH  24  27
ENDBRANCH  20  24
ENDBRANCH   1  20
TORSDOF 9
ENDMDL
MODEL 2
REMARK VINA RESULT:      -7.9      1.109      1.352
REMARK  Name = 
REMARK  10 active torsions:
REMARK  status: ('A' for Active; 'I' for Inactive)
REMARK    1  A    between atoms: C_1  and  C_2
REMARK    2  A    between atoms: C_2  and  C_3
REMARK    3  A    between atoms: C_2  and  N_7
REMARK    4  A    between atoms: C_3  and  C_4
REMARK    5  A    between atoms: N_7  and  C_8
REMARK    6  A    between atoms: C_8  and  C_9
REMARK    7  A    between atoms: C_8  and  C_26
REMARK    8  A    between atoms: C_14  and  C_15
REMARK    9  A    between atoms: C_15  and  C_17
REMARK   10  A    between atoms: C_20  and  N_21
REMARK                            x       y       z     vdW  Elec       q    Type
REMARK                         _______ _______ _______ _____ _____    ______ ____
ROOT
ATOM      1  C   UNL     1       2.010   6.140  20.048  0.00  0.00    +0.000 A 
ATOM      2  C   UNL     1       0.884   5.334  20.274  0.00  0.00    +0.000 A 
ATOM      3  C   UNL     1       0.949   3.952  20.080  0.00  0.00    +0.000 A 
ATOM      4  C   UNL     1       2.159   3.338  19.736  0.00  0.00    +0.000 A 
ATOM      5 CL   UNL     1       2.129   1.627  19.509  0.00  0.00    +0.000 Cl
ATOM      6  C   UNL     1       3.315   4.114  19.608  0.00  0.00    +0.000 A 
ATOM      7  C   UNL     1       3.214   5.509  19.711  0.00  0.00    +0.000 A 
ATOM      8  F   UNL     1       4.285   6.276  19.446  0.00  0.00    +0.000 F 
ENDROOT
BRANCH   6   9
ATOM      9  C   UNL     1       4.649   3.518  19.355  0.00  0.00    +0.000 C 
ATOM     10  O   UNL     1       5.116   2.690  20.131  0.00  0.00    +0.000 OA
BRANCH   9  11
ATOM     11  C   UNL     1       5.406   3.913  18.129  0.00  0.00    +0.000 A 
ATOM     12  C   UNL     1       4.790   3.846  16.885  0.00  0.00    +0.000 A 
ATOM     13  C   UNL     1       5.499   4.291  15.768  0.00  0.00    +0.000 A 
ATOM     14  C   UNL     1       6.816   4.738  15.901  0.00  0.00    +0.000 A 
ATOM     15  C   UNL     1       7.327   4.790  17.198  0.00  0.00    +0.000 A 
ATOM     16  N   UNL     1       6.672   4.368  18.305  0.00  0.00    +0.000 NA
BRANCH  14  17
ATOM     17  N   UNL     1       7.480   5.322  14.817  0.00  0.00    +0.000 N 
ATOM     18  H   UNL     1       7.699   4.664  14.072  0.00  0.00    +0.000 HD
ATOM     19  H   UNL     1       8.294   5.873  15.083  0.00  0.00    +0.000 HD
ENDBRANCH  14  17
ENDBRANCH   9  11
ENDBRANCH   6   9
BRANCH   1  20
ATOM     20  C   UNL     1       1.934   7.655  20.100  0.00  0.00    +0.000 C 
BRANCH  20  21
ATOM     21  C   UNL     1       1.648   8.166  18.695  0.00  0.00    +0.000 C 
ATOM     22  C   UNL     1       2.275   9.428  18.148  0.00  0.00    +0.000 C 
ATOM     23  C   UNL     1       2.725   8.088  17.638  0.00  0.00    +0.000 C 
ENDBRANCH  20  21
BRANCH  20  24
ATOM     24  N   UNL     1       0.874   8.171  20.974  0.00  0.00    +0.000 NA
ATOM     25  H   UNL     1       0.059   8.383  20.399  0.00  0.00    +0.000 HD
BRANCH  24  27
ATOM     26  C   UNL     1       0.417   9.279  23.081  0.00  0.00    +0.000 C 
ATOM     27  C   UNL     1       1.218   9.377  21.768  0.00  0.00    +0.000 C 
BRANCH  27  28
ATOM     28  C   UNL     1       0.912  10.703  21.043  0.00  0.00    +0.000 C 
BRANCH  28  29
ATOM     29  C   UNL     1      -0.500  10.809  20.502  0.00  0.00    +0.000 C 
ATOM     30  N   UNL     1      -1.258  11.768  21.114  0.00  0.00    +0.000 N 
ATOM     31  O   UNL     1      -0.975  10.125  19.606  0.00  0.00    +0.000 OA
ATOM     32  H   UNL     1      -0.979  12.205  21.983  0.00  0.00    +0.000 HD
ATOM     33  H   UNL     1      -2.223  11.856  20.824  0.00  0.00    +0.000 HD
ENDBRANCH  28  29
ENDBRANCH  27  28
ENDBRANCH  24  27
ENDBRANCH  20  24
ENDBRANCH   1  20
TORSDOF 9
ENDMDL
MODEL 3
REMARK VINA RESULT:      -7.9      3.471      8.060
REMARK  Name = 
REMARK  10 active torsions:
REMARK  status: ('A' for Active; 'I' for Inactive)
REMARK    1  A    between atoms: C_1  and  C_2
REMARK    2  A    between atoms: C_2  and  C_3
REMARK    3  A    between atoms: C_2  and  N_7
REMARK    4  A    between atoms: C_3  and  C_4
REMARK    5  A    between atoms: N_7  and  C_8
REMARK    6  A    between atoms: C_8  and  C_9
REMARK    7  A    between atoms: C_8  and  C_26
REMARK    8  A    between atoms: C_14  and  C_15
REMARK    9  A    between atoms: C_15  and  C_17
REMARK   10  A    between atoms: C_20  and  N_21
REMARK                            x       y       z     vdW  Elec       q    Type
REMARK                         _______ _______ _______ _____ _____    ______ ____
ROOT
ATOM      1  C   UNL     1       2.592   6.542  19.302  0.00  0.00    +0.000 A 
ATOM      2  C   UNL     1       2.003   6.415  20.569  0.00  0.00    +0.000 A 
ATOM      3  C   UNL     1       1.327   7.490  21.150  0.00  0.00    +0.000 A 
ATOM      4  C   UNL     1       1.154   8.686  20.443  0.00  0.00    +0.000 A 
ATOM      5 CL   UNL     1       0.313   9.957  21.254  0.00  0.00    +0.000 Cl
ATOM      6  C   UNL     1       1.644   8.795  19.138  0.00  0.00    +0.000 A 
ATOM      7  C   UNL     1       2.404   7.742  18.607  0.00  0.00    +0.000 A 
ATOM      8  F   UNL     1       3.003   7.891  17.413  0.00  0.00    +0.000 F 
ENDROOT
BRANCH   6   9
ATOM      9  C   UNL     1       1.401   9.989  18.294  0.00  0.00    +0.000 C 
ATOM     10  O   UNL     1       2.334  10.542  17.718  0.00  0.00    +0.000 OA
BRANCH   9  11
ATOM     11  C   UNL     1       0.007  10.497  18.128  0.00  0.00    +0.000 A 
ATOM     12  C   UNL     1      -0.979   9.656  17.623  0.00  0.00    +0.000 A 
ATOM     13  C   UNL     1      -2.287  10.137  17.549  0.00  0.00    +0.000 A 
ATOM     14  C   UNL     1      -2.579  11.451  17.923  0.00  0.00    +0.000 A 
ATOM     15  C   UNL     1      -1.521  12.198  18.441  0.00  0.00    +0.000 A 
ATOM     16  N   UNL     1      -0.239  11.769  18.529  0.00  0.00    +0.000 NA
BRANCH  14  17
ATOM     17  N   UNL     1      -3.904  11.892  17.991  0.00  0.00    +0.000 N 
ATOM     18  H   UNL     1      -3.996  12.857  18.302  0.00  0.00    +0.000 HD
ATOM     19  H   UNL     1      -4.517  11.269  18.512  0.00  0.00    +0.000 HD
ENDBRANCH  14  17
ENDBRANCH   9  11
ENDBRANCH   6   9
BRANCH   1  20
ATOM     20  C   UNL     1       3.462   5.448  18.710  0.00  0.00    +0.000 C 
BRANCH  20  21
ATOM     21  C   UNL     1       2.701   4.803  17.560  0.00  0.00    +0.000 C 
ATOM     22  C   UNL     1       2.535   3.306  17.436  0.00  0.00    +0.000 C 
ATOM     23  C   UNL     1       1.360   4.158  17.822  0.00  0.00    +0.000 C 
ENDBRANCH  20  21
BRANCH  20  24
ATOM     24  N   UNL     1       4.740   5.927  18.169  0.00  0.00    +0.000 NA
ATOM     25  H   UNL     1       4.582   6.258  17.218  0.00  0.00    +0.000 HD
BRANCH  24  27
ATOM     26  C   UNL     1       7.093   5.665  18.691  0.00  0.00    +0.000 C 
ATOM     27  C   UNL     1       5.847   4.939  18.147  0.00  0.00    +0.000 C 
BRANCH  27  28
ATOM     28  C   UNL     1       6.126   4.353  16.749  0.00  0.00    +0.000 C 
BRANCH  28  29
ATOM     29  C   UNL     1       6.496   5.385  15.701  0.00  0.00    +0.000 C 
ATOM     30  N   UNL     1       5.472   6.227  15.368  0.00  0.00    +0.000 N 
ATOM     31  O   UNL     1       7.590   5.500  15.167  0.00  0.00    +0.000 OA
ATOM     32  H   UNL     1       4.511   6.039  15.625  0.00  0.00    +0.000 HD
ATOM     33  H   UNL     1       5.647   6.909  14.642  0.00  0.00    +0.000 HD
ENDBRANCH  28  29
ENDBRANCH  27  28
ENDBRANCH  24  27
ENDBRANCH  20  24
ENDBRANCH   1  20
TORSDOF 9
ENDMDL
MODEL 4
REMARK VINA RESULT:      -7.9      3.517      7.947
REMARK  Name = 
REMARK  10 active torsions:
REMARK  status: ('A' for Active; 'I' for Inactive)
REMARK    1  A    between atoms: C_1  and  C_2
REMARK    2  A    between atoms: C_2  and  C_3
REMARK    3  A    between atoms: C_2  and  N_7
REMARK    4  A    between atoms: C_3  and  C_4
REMARK    5  A    between atoms: N_7  and  C_8
REMARK    6  A    between atoms: C_8  and  C_9
REMARK    7  A    between atoms: C_8  and  C_26
REMARK    8  A    between atoms: C_14  and  C_15
REMARK    9  A    between atoms: C_15  and  C_17
REMARK   10  A    between atoms: C_20  and  N_21
REMARK                            x       y       z     vdW  Elec       q    Type
REMARK                         _______ _______ _______ _____ _____    ______ ____
ROOT
ATOM      1  C   UNL     1       2.357   7.137  18.838  0.00  0.00    +0.000 A 
ATOM      2  C   UNL     1       2.080   6.763  20.161  0.00  0.00    +0.000 A 
ATOM      3  C   UNL     1       1.497   7.669  21.049  0.00  0.00    +0.000 A 
ATOM      4  C   UNL     1       1.103   8.940  20.611  0.00  0.00    +0.000 A 
ATOM      5 CL   UNL     1       0.402   9.988  21.790  0.00  0.00    +0.000 Cl
ATOM      6  C   UNL     1       1.276   9.293  19.270  0.00  0.00    +0.000 A 
ATOM      7  C   UNL     1       1.951   8.409  18.415  0.00  0.00    +0.000 A 
ATOM      8  F   UNL     1       2.253   8.794  17.163  0.00  0.00    +0.000 F 
ENDROOT
BRANCH   6   9
ATOM      9  C   UNL     1       0.783  10.577  18.715  0.00  0.00    +0.000 C 
ATOM     10  O   UNL     1       1.566  11.494  18.485  0.00  0.00    +0.000 OA
BRANCH   9  11
ATOM     11  C   UNL     1      -0.670  10.732  18.411  0.00  0.00    +0.000 A 
ATOM     12  C   UNL     1      -1.282   9.875  17.504  0.00  0.00    +0.000 A 
ATOM     13  C   UNL     1      -2.657   9.999  17.296  0.00  0.00    +0.000 A 
ATOM     14  C   UNL     1      -3.382  11.000  17.948  0.00  0.00    +0.000 A 
ATOM     15  C   UNL     1      -2.674  11.786  18.857  0.00  0.00    +0.000 A 
ATOM     16  N   UNL     1      -1.343  11.698  19.086  0.00  0.00    +0.000 NA
BRANCH  14  17
ATOM     17  N   UNL     1      -4.777  11.038  17.860  0.00  0.00    +0.000 N 
ATOM     18  H   UNL     1      -5.128  11.807  17.295  0.00  0.00    +0.000 HD
ATOM     19  H   UNL     1      -5.246  10.990  18.762  0.00  0.00    +0.000 HD
ENDBRANCH  14  17
ENDBRANCH   9  11
ENDBRANCH   6   9
BRANCH   1  20
ATOM     20  C   UNL     1       3.127   6.233  17.893  0.00  0.00    +0.000 C 
BRANCH  20  21
ATOM     21  C   UNL     1       4.441   6.917  17.543  0.00  0.00    +0.000 C 
ATOM     22  C   UNL     1       5.753   6.168  17.478  0.00  0.00    +0.000 C 
ATOM     23  C   UNL     1       5.096   6.637  16.210  0.00  0.00    +0.000 C 
ENDBRANCH  20  21
BRANCH  20  24
ATOM     24  N   UNL     1       3.460   4.920  18.460  0.00  0.00    +0.000 NA
ATOM     25  H   UNL     1       4.474   4.849  18.531  0.00  0.00    +0.000 HD
BRANCH  24  27
ATOM     26  C   UNL     1       1.417   3.808  17.776  0.00  0.00    +0.000 C 
ATOM     27  C   UNL     1       2.955   3.743  17.710  0.00  0.00    +0.000 C 
BRANCH  27  28
ATOM     28  C   UNL     1       3.466   2.395  18.257  0.00  0.00    +0.000 C 
BRANCH  28  29
ATOM     29  C   UNL     1       3.851   2.421  19.723  0.00  0.00    +0.000 C 
ATOM     30  N   UNL     1       5.072   1.864  19.985  0.00  0.00    +0.000 N 
ATOM     31  O   UNL     1       3.174   2.881  20.632  0.00  0.00    +0.000 OA
ATOM     32  H   UNL     1       5.564   1.295  19.308  0.00  0.00    +0.000 HD
ATOM     33  H   UNL     1       5.364   1.814  20.952  0.00  0.00    +0.000 HD
ENDBRANCH  28  29
ENDBRANCH  27  28
ENDBRANCH  24  27
ENDBRANCH  20  24
ENDBRANCH   1  20
TORSDOF 9
ENDMDL
MODEL 5
REMARK VINA RESULT:      -7.8      3.697      8.201
REMARK  Name = 
REMARK  10 active torsions:
REMARK  status: ('A' for Active; 'I' for Inactive)
REMARK    1  A    between atoms: C_1  and  C_2
REMARK    2  A    between atoms: C_2  and  C_3
REMARK    3  A    between atoms: C_2  and  N_7
REMARK    4  A    between atoms: C_3  and  C_4
REMARK    5  A    between atoms: N_7  and  C_8
REMARK    6  A    between atoms: C_8  and  C_9
REMARK    7  A    between atoms: C_8  and  C_26
REMARK    8  A    between atoms: C_14  and  C_15
REMARK    9  A    between atoms: C_15  and  C_17
REMARK   10  A    between atoms: C_20  and  N_21
REMARK                            x       y       z     vdW  Elec       q    Type
REMARK                         _______ _______ _______ _____ _____    ______ ____
ROOT
ATOM      1  C   UNL     1       2.232   7.361  19.266  0.00  0.00    +0.000 A 
ATOM      2  C   UNL     1       1.911   7.107  20.607  0.00  0.00    +0.000 A 
ATOM      3  C   UNL     1       1.267   8.075  21.380  0.00  0.00    +0.000 A 
ATOM      4  C   UNL     1       0.857   9.285  20.807  0.00  0.00    +0.000 A 
ATOM      5 CL   UNL     1       0.080  10.419  21.851  0.00  0.00    +0.000 Cl
ATOM      6  C   UNL     1       1.076   9.514  19.445  0.00  0.00    +0.000 A 
ATOM      7  C   UNL     1       1.810   8.573  18.707  0.00  0.00    +0.000 A 
ATOM      8  F   UNL     1       2.153   8.846  17.436  0.00  0.00    +0.000 F 
ENDROOT
BRANCH   6   9
ATOM      9  C   UNL     1       0.572  10.723  18.750  0.00  0.00    +0.000 C 
ATOM     10  O   UNL     1       1.339  11.635  18.458  0.00  0.00    +0.000 OA
BRANCH   9  11
ATOM     11  C   UNL     1      -0.873  10.806  18.383  0.00  0.00    +0.000 A 
ATOM     12  C   UNL     1      -1.407   9.906  17.469  0.00  0.00    +0.000 A 
ATOM     13  C   UNL     1      -2.775   9.963  17.202  0.00  0.00    +0.000 A 
ATOM     14  C   UNL     1      -3.571  10.943  17.802  0.00  0.00    +0.000 A 
ATOM     15  C   UNL     1      -2.939  11.777  18.723  0.00  0.00    +0.000 A 
ATOM     16  N   UNL     1      -1.615  11.753  19.010  0.00  0.00    +0.000 NA
BRANCH  14  17
ATOM     17  N   UNL     1      -4.961  10.915  17.656  0.00  0.00    +0.000 N 
ATOM     18  H   UNL     1      -5.378  11.838  17.551  0.00  0.00    +0.000 HD
ATOM     19  H   UNL     1      -5.438  10.367  18.369  0.00  0.00    +0.000 HD
ENDBRANCH  14  17
ENDBRANCH   9  11
ENDBRANCH   6   9
BRANCH   1  20
ATOM     20  C   UNL     1       3.065   6.395  18.444  0.00  0.00    +0.000 C 
BRANCH  20  21
ATOM     21  C   UNL     1       2.131   5.358  17.837  0.00  0.00    +0.000 C 
ATOM     22  C   UNL     1       2.576   3.944  17.534  0.00  0.00    +0.000 C 
ATOM     23  C   UNL     1       1.644   4.204  18.684  0.00  0.00    +0.000 C 
ENDBRANCH  20  21
BRANCH  20  24
ATOM     24  N   UNL     1       3.793   7.024  17.336  0.00  0.00    +0.000 NA
ATOM     25  H   UNL     1       3.317   6.791  16.466  0.00  0.00    +0.000 HD
BRANCH  24  27
ATOM     26  C   UNL     1       5.380   5.989  15.823  0.00  0.00    +0.000 C 
ATOM     27  C   UNL     1       5.224   6.652  17.206  0.00  0.00    +0.000 C 
BRANCH  27  28
ATOM     28  C   UNL     1       5.723   5.710  18.320  0.00  0.00    +0.000 C 
BRANCH  28  29
ATOM     29  C   UNL     1       7.232   5.603  18.417  0.00  0.00    +0.000 C 
ATOM     30  N   UNL     1       7.721   4.367  18.096  0.00  0.00    +0.000 N 
ATOM     31  O   UNL     1       7.993   6.501  18.750  0.00  0.00    +0.000 OA
ATOM     32  H   UNL     1       7.126   3.552  18.019  0.00  0.00    +0.000 HD
ATOM     33  H   UNL     1       8.719   4.223  18.184  0.00  0.00    +0.000 HD
ENDBRANCH  28  29
ENDBRANCH  27  28
ENDBRANCH  24  27
ENDBRANCH  20  24
ENDBRANCH   1  20
TORSDOF 9
ENDMDL
MODEL 6
REMARK VINA RESULT:      -7.7      3.513      7.618
REMARK  Name = 
REMARK  10 active torsions:
REMARK  status: ('A' for Active; 'I' for Inactive)
REMARK    1  A    between atoms: C_1  and  C_2
REMARK    2  A    between atoms: C_2  and  C_3
REMARK    3  A    between atoms: C_2  and  N_7
REMARK    4  A    between atoms: C_3  and  C_4
REMARK    5  A    between atoms: N_7  and  C_8
REMARK    6  A    between atoms: C_8  and  C_9
REMARK    7  A    between atoms: C_8  and  C_26
REMARK    8  A    between atoms: C_14  and  C_15
REMARK    9  A    between atoms: C_15  and  C_17
REMARK   10  A    between atoms: C_20  and  N_21
REMARK                            x       y       z     vdW  Elec       q    Type
REMARK                         _______ _______ _______ _____ _____    ______ ____
ROOT
ATOM      1  C   UNL     1       2.353   6.552  18.851  0.00  0.00    +0.000 A 
ATOM      2  C   UNL     1       1.990   6.322  20.186  0.00  0.00    +0.000 A 
ATOM      3  C   UNL     1       1.558   7.374  20.997  0.00  0.00    +0.000 A 
ATOM      4  C   UNL     1       1.401   8.661  20.468  0.00  0.00    +0.000 A 
ATOM      5 CL   UNL     1       0.873   9.892  21.556  0.00  0.00    +0.000 Cl
ATOM      6  C   UNL     1       1.659   8.887  19.113  0.00  0.00    +0.000 A 
ATOM      7  C   UNL     1       2.185   7.844  18.336  0.00  0.00    +0.000 A 
ATOM      8  F   UNL     1       2.574   8.085  17.073  0.00  0.00    +0.000 F 
ENDROOT
BRANCH   6   9
ATOM      9  C   UNL     1       1.410  10.197  18.463  0.00  0.00    +0.000 C 
ATOM     10  O   UNL     1       2.347  10.867  18.039  0.00  0.00    +0.000 OA
BRANCH   9  11
ATOM     11  C   UNL     1       0.006  10.679  18.304  0.00  0.00    +0.000 A 
ATOM     12  C   UNL     1      -0.950   9.846  17.733  0.00  0.00    +0.000 A 
ATOM     13  C   UNL     1      -2.269  10.298  17.665  0.00  0.00    +0.000 A 
ATOM     14  C   UNL     1      -2.599  11.580  18.111  0.00  0.00    +0.000 A 
ATOM     15  C   UNL     1      -1.569  12.320  18.690  0.00  0.00    +0.000 A 
ATOM     16  N   UNL     1      -0.279  11.919  18.775  0.00  0.00    +0.000 NA
BRANCH  14  17
ATOM     17  N   UNL     1      -3.936  11.984  18.182  0.00  0.00    +0.000 N 
ATOM     18  H   UNL     1      -4.325  11.940  19.121  0.00  0.00    +0.000 HD
ATOM     19  H   UNL     1      -4.541  11.524  17.504  0.00  0.00    +0.000 HD
ENDBRANCH  14  17
ENDBRANCH   9  11
ENDBRANCH   6   9
BRANCH   1  20
ATOM     20  C   UNL     1       2.970   5.466  17.989  0.00  0.00    +0.000 C 
BRANCH  20  21
ATOM     21  C   UNL     1       4.239   4.978  18.674  0.00  0.00    +0.000 C 
ATOM     22  C   UNL     1       5.509   4.677  17.909  0.00  0.00    +0.000 C 
ATOM     23  C   UNL     1       5.432   5.901  18.779  0.00  0.00    +0.000 C 
ENDBRANCH  20  21
BRANCH  20  24
ATOM     24  N   UNL     1       2.107   4.295  17.793  0.00  0.00    +0.000 NA
ATOM     25  H   UNL     1       1.142   4.575  17.965  0.00  0.00    +0.000 HD
BRANCH  24  27
ATOM     26  C   UNL     1       2.572   1.918  17.677  0.00  0.00    +0.000 C 
ATOM     27  C   UNL     1       2.414   3.114  18.637  0.00  0.00    +0.000 C 
BRANCH  27  28
ATOM     28  C   UNL     1       1.338   2.817  19.702  0.00  0.00    +0.000 C 
BRANCH  28  29
ATOM     29  C   UNL     1       1.879   2.662  21.110  0.00  0.00    +0.000 C 
ATOM     30  N   UNL     1       3.243   2.604  21.175  0.00  0.00    +0.000 N 
ATOM     31  O   UNL     1       1.207   2.587  22.129  0.00  0.00    +0.000 OA
ATOM     32  H   UNL     1       3.819   2.455  20.357  0.00  0.00    +0.000 HD
ATOM     33  H   UNL     1       3.660   2.458  22.086  0.00  0.00    +0.000 HD
ENDBRANCH  28  29
ENDBRANCH  27  28
ENDBRANCH  24  27
ENDBRANCH  20  24
ENDBRANCH   1  20
TORSDOF 9
ENDMDL
MODEL 7
REMARK VINA RESULT:      -7.6      3.527      7.612
REMARK  Name = 
REMARK  10 active torsions:
REMARK  status: ('A' for Active; 'I' for Inactive)
REMARK    1  A    between atoms: C_1  and  C_2
REMARK    2  A    between atoms: C_2  and  C_3
REMARK    3  A    between atoms: C_2  and  N_7
REMARK    4  A    between atoms: C_3  and  C_4
REMARK    5  A    between atoms: N_7  and  C_8
REMARK    6  A    between atoms: C_8  and  C_9
REMARK    7  A    between atoms: C_8  and  C_26
REMARK    8  A    between atoms: C_14  and  C_15
REMARK    9  A    between atoms: C_15  and  C_17
REMARK   10  A    between atoms: C_20  and  N_21
REMARK                            x       y       z     vdW  Elec       q    Type
REMARK                         _______ _______ _______ _____ _____    ______ ____
ROOT
ATOM      1  C   UNL     1       2.390   6.813  19.064  0.00  0.00    +0.000 A 
ATOM      2  C   UNL     1       1.958   6.585  20.379  0.00  0.00    +0.000 A 
ATOM      3  C   UNL     1       1.402   7.619  21.134  0.00  0.00    +0.000 A 
ATOM      4  C   UNL     1       1.191   8.881  20.565  0.00  0.00    +0.000 A 
ATOM      5 CL   UNL     1       0.508  10.093  21.588  0.00  0.00    +0.000 Cl
ATOM      6  C   UNL     1       1.520   9.098  19.224  0.00  0.00    +0.000 A 
ATOM      7  C   UNL     1       2.166   8.079  18.509  0.00  0.00    +0.000 A 
ATOM      8  F   UNL     1       2.619   8.323  17.267  0.00  0.00    +0.000 F 
ENDROOT
BRANCH   6   9
ATOM      9  C   UNL     1       1.223  10.373  18.529  0.00  0.00    +0.000 C 
ATOM     10  O   UNL     1       2.136  11.080  18.113  0.00  0.00    +0.000 OA
BRANCH   9  11
ATOM     11  C   UNL     1      -0.199  10.775  18.313  0.00  0.00    +0.000 A 
ATOM     12  C   UNL     1      -1.077   9.898  17.686  0.00  0.00    +0.000 A 
ATOM     13  C   UNL     1      -2.416  10.273  17.565  0.00  0.00    +0.000 A 
ATOM     14  C   UNL     1      -2.842  11.525  18.015  0.00  0.00    +0.000 A 
ATOM     15  C   UNL     1      -1.885  12.313  18.653  0.00  0.00    +0.000 A 
ATOM     16  N   UNL     1      -0.578  11.987  18.790  0.00  0.00    +0.000 NA
BRANCH  14  17
ATOM     17  N   UNL     1      -4.202  11.848  18.032  0.00  0.00    +0.000 N 
ATOM     18  H   UNL     1      -4.797  11.089  18.356  0.00  0.00    +0.000 HD
ATOM     19  H   UNL     1      -4.541  12.243  17.156  0.00  0.00    +0.000 HD
ENDBRANCH  14  17
ENDBRANCH   9  11
ENDBRANCH   6   9
BRANCH   1  20
ATOM     20  C   UNL     1       3.136   5.757  18.270  0.00  0.00    +0.000 C 
BRANCH  20  21
ATOM     21  C   UNL     1       4.520   6.298  17.939  0.00  0.00    +0.000 C 
ATOM     22  C   UNL     1       5.618   5.426  17.374  0.00  0.00    +0.000 C 
ATOM     23  C   UNL     1       4.940   6.438  16.494  0.00  0.00    +0.000 C 
ENDBRANCH  20  21
BRANCH  20  24
ATOM     24  N   UNL     1       3.327   4.491  18.989  0.00  0.00    +0.000 NA
ATOM     25  H   UNL     1       4.323   4.370  19.166  0.00  0.00    +0.000 HD
BRANCH  24  27
ATOM     26  C   UNL     1       1.648   3.733  17.414  0.00  0.00    +0.000 C 
ATOM     27  C   UNL     1       2.816   3.275  18.309  0.00  0.00    +0.000 C 
BRANCH  27  28
ATOM     28  C   UNL     1       2.354   2.170  19.281  0.00  0.00    +0.000 C 
BRANCH  28  29
ATOM     29  C   UNL     1       2.131   2.643  20.704  0.00  0.00    +0.000 C 
ATOM     30  N   UNL     1       0.883   3.154  20.928  0.00  0.00    +0.000 N 
ATOM     31  O   UNL     1       2.954   2.599  21.608  0.00  0.00    +0.000 OA
ATOM     32  H   UNL     1       0.254   3.398  20.174  0.00  0.00    +0.000 HD
ATOM     33  H   UNL     1       0.691   3.525  21.850  0.00  0.00    +0.000 HD
ENDBRANCH  28  29
ENDBRANCH  27  28
ENDBRANCH  24  27
ENDBRANCH  20  24
ENDBRANCH   1  20
TORSDOF 9
ENDMDL
MODEL 8
REMARK VINA RESULT:      -7.6      3.562      7.712
REMARK  Name = 
REMARK  10 active torsions:
REMARK  status: ('A' for Active; 'I' for Inactive)
REMARK    1  A    between atoms: C_1  and  C_2
REMARK    2  A    between atoms: C_2  and  C_3
REMARK    3  A    between atoms: C_2  and  N_7
REMARK    4  A    between atoms: C_3  and  C_4
REMARK    5  A    between atoms: N_7  and  C_8
REMARK    6  A    between atoms: C_8  and  C_9
REMARK    7  A    between atoms: C_8  and  C_26
REMARK    8  A    between atoms: C_14  and  C_15
REMARK    9  A    between atoms: C_15  and  C_17
REMARK   10  A    between atoms: C_20  and  N_21
REMARK                            x       y       z     vdW  Elec       q    Type
REMARK                         _______ _______ _______ _____ _____    ______ ____
ROOT
ATOM      1  C   UNL     1       2.359   6.769  18.689  0.00  0.00    +0.000 A 
ATOM      2  C   UNL     1       2.093   6.407  20.018  0.00  0.00    +0.000 A 
ATOM      3  C   UNL     1       1.636   7.356  20.935  0.00  0.00    +0.000 A 
ATOM      4  C   UNL     1       1.356   8.665  20.523  0.00  0.00    +0.000 A 
ATOM      5 CL   UNL     1       0.806   9.763  21.737  0.00  0.00    +0.000 Cl
ATOM      6  C   UNL     1       1.516   9.016  19.180  0.00  0.00    +0.000 A 
ATOM      7  C   UNL     1       2.068   8.080  18.293  0.00  0.00    +0.000 A 
ATOM      8  F   UNL     1       2.363   8.449  17.035  0.00  0.00    +0.000 F 
ENDROOT
BRANCH   6   9
ATOM      9  C   UNL     1       1.136  10.350  18.655  0.00  0.00    +0.000 C 
ATOM     10  O   UNL     1       2.000  11.168  18.356  0.00  0.00    +0.000 OA
BRANCH   9  11
ATOM     11  C   UNL     1      -0.309  10.677  18.467  0.00  0.00    +0.000 A 
ATOM     12  C   UNL     1      -1.096   9.881  17.643  0.00  0.00    +0.000 A 
ATOM     13  C   UNL     1      -2.458  10.168  17.546  0.00  0.00    +0.000 A 
ATOM     14  C   UNL     1      -2.997  11.267  18.220  0.00  0.00    +0.000 A 
ATOM     15  C   UNL     1      -2.124  11.981  19.040  0.00  0.00    +0.000 A 
ATOM     16  N   UNL     1      -0.799  11.734  19.162  0.00  0.00    +0.000 NA
BRANCH  14  17
ATOM     17  N   UNL     1      -4.380  11.475  18.246  0.00  0.00    +0.000 N 
ATOM     18  H   UNL     1      -4.644  12.424  18.500  0.00  0.00    +0.000 HD
ATOM     19  H   UNL     1      -4.888  10.785  18.795  0.00  0.00    +0.000 HD
ENDBRANCH  14  17
ENDBRANCH   9  11
ENDBRANCH   6   9
BRANCH   1  20
ATOM     20  C   UNL     1       3.000   5.803  17.709  0.00  0.00    +0.000 C 
BRANCH  20  21
ATOM     21  C   UNL     1       4.499   5.785  17.971  0.00  0.00    +0.000 C 
ATOM     22  C   UNL     1       5.515   5.655  16.858  0.00  0.00    +0.000 C 
ATOM     23  C   UNL     1       5.343   6.971  17.563  0.00  0.00    +0.000 C 
ENDBRANCH  20  21
BRANCH  20  24
ATOM     24  N   UNL     1       2.522   4.421  17.830  0.00  0.00    +0.000 NA
ATOM     25  H   UNL     1       1.639   4.431  18.340  0.00  0.00    +0.000 HD
BRANCH  24  27
ATOM     26  C   UNL     1       3.805   2.399  17.456  0.00  0.00    +0.000 C 
ATOM     27  C   UNL     1       3.444   3.472  18.502  0.00  0.00    +0.000 C 
BRANCH  27  28
ATOM     28  C   UNL     1       2.849   2.820  19.766  0.00  0.00    +0.000 C 
BRANCH  28  29
ATOM     29  C   UNL     1       1.336   2.721  19.765  0.00  0.00    +0.000 C 
ATOM     30  N   UNL     1       0.756   3.090  20.947  0.00  0.00    +0.000 N 
ATOM     31  O   UNL     1       0.645   2.349  18.827  0.00  0.00    +0.000 OA
ATOM     32  H   UNL     1       1.289   3.202  21.800  0.00  0.00    +0.000 HD
ATOM     33  H   UNL     1      -0.249   3.004  21.020  0.00  0.00    +0.000 HD
ENDBRANCH  28  29
ENDBRANCH  27  28
ENDBRANCH  24  27
ENDBRANCH  20  24
ENDBRANCH   1  20
TORSDOF 9
ENDMDL
MODEL 9
REMARK VINA RESULT:      -7.6      3.764      8.351
REMARK  Name = 
REMARK  10 active torsions:
REMARK  status: ('A' for Active; 'I' for Inactive)
REMARK    1  A    between atoms: C_1  and  C_2
REMARK    2  A    between atoms: C_2  and  C_3
REMARK    3  A    between atoms: C_2  and  N_7
REMARK    4  A    between atoms: C_3  and  C_4
REMARK    5  A    between atoms: N_7  and  C_8
REMARK    6  A    between atoms: C_8  and  C_9
REMARK    7  A    between atoms: C_8  and  C_26
REMARK    8  A    between atoms: C_14  and  C_15
REMARK    9  A    between atoms: C_15  and  C_17
REMARK   10  A    between atoms: C_20  and  N_21
REMARK                            x       y       z     vdW  Elec       q    Type
REMARK                         _______ _______ _______ _____ _____    ______ ____
ROOT
ATOM      1  C   UNL     1       2.310   7.111  19.297  0.00  0.00    +0.000 A 
ATOM      2  C   UNL     1       1.938   6.868  20.628  0.00  0.00    +0.000 A 
ATOM      3  C   UNL     1       1.286   7.852  21.374  0.00  0.00    +0.000 A 
ATOM      4  C   UNL     1       0.919   9.067  20.782  0.00  0.00    +0.000 A 
ATOM      5 CL   UNL     1       0.127  10.220  21.794  0.00  0.00    +0.000 Cl
ATOM      6  C   UNL     1       1.189   9.286  19.428  0.00  0.00    +0.000 A 
ATOM      7  C   UNL     1       1.930   8.328  18.719  0.00  0.00    +0.000 A 
ATOM      8  F   UNL     1       2.322   8.590  17.461  0.00  0.00    +0.000 F 
ENDROOT
BRANCH   6   9
ATOM      9  C   UNL     1       0.732  10.500  18.712  0.00  0.00    +0.000 C 
ATOM     10  O   UNL     1       1.531  11.385  18.419  0.00  0.00    +0.000 OA
BRANCH   9  11
ATOM     11  C   UNL     1      -0.704  10.624  18.324  0.00  0.00    +0.000 A 
ATOM     12  C   UNL     1      -1.503  11.587  18.929  0.00  0.00    +0.000 A 
ATOM     13  C   UNL     1      -2.822  11.727  18.492  0.00  0.00    +0.000 A 
ATOM     14  C   UNL     1      -3.333  10.875  17.510  0.00  0.00    +0.000 A 
ATOM     15  C   UNL     1      -2.438   9.963  16.952  0.00  0.00    +0.000 A 
ATOM     16  N   UNL     1      -1.154   9.797  17.347  0.00  0.00    +0.000 NA
BRANCH  14  17
ATOM     17  N   UNL     1      -4.601  11.102  16.964  0.00  0.00    +0.000 N 
ATOM     18  H   UNL     1      -4.974  12.025  17.171  0.00  0.00    +0.000 HD
ATOM     19  H   UNL     1      -5.275  10.369  17.175  0.00  0.00    +0.000 HD
ENDBRANCH  14  17
ENDBRANCH   9  11
ENDBRANCH   6   9
BRANCH   1  20
ATOM     20  C   UNL     1       3.153   6.126  18.508  0.00  0.00    +0.000 C 
BRANCH  20  21
ATOM     21  C   UNL     1       2.215   5.193  17.754  0.00  0.00    +0.000 C 
ATOM     22  C   UNL     1       2.544   3.738  17.508  0.00  0.00    +0.000 C 
ATOM     23  C   UNL     1       1.481   4.106  18.505  0.00  0.00    +0.000 C 
ENDBRANCH  20  21
BRANCH  20  24
ATOM     24  N   UNL     1       4.033   6.752  17.515  0.00  0.00    +0.000 NA
ATOM     25  H   UNL     1       3.572   6.711  16.607  0.00  0.00    +0.000 HD
BRANCH  24  27
ATOM     26  C   UNL     1       6.384   7.335  17.409  0.00  0.00    +0.000 C 
ATOM     27  C   UNL     1       5.388   6.159  17.383  0.00  0.00    +0.000 C 
BRANCH  27  28
ATOM     28  C   UNL     1       5.574   5.317  16.105  0.00  0.00    +0.000 C 
BRANCH  28  29
ATOM     29  C   UNL     1       7.019   5.006  15.767  0.00  0.00    +0.000 C 
ATOM     30  N   UNL     1       7.655   4.244  16.707  0.00  0.00    +0.000 N 
ATOM     31  O   UNL     1       7.614   5.377  14.765  0.00  0.00    +0.000 OA
ATOM     32  H   UNL     1       7.273   4.093  17.631  0.00  0.00    +0.000 HD
ATOM     33  H   UNL     1       8.634   4.040  16.556  0.00  0.00    +0.000 HD
ENDBRANCH  28  29
ENDBRANCH  27  28
ENDBRANCH  24  27
ENDBRANCH  20  24
ENDBRANCH   1  20
TORSDOF 9
ENDMDL
