MODEL 1
REMARK VINA RESULT:      -8.9      0.000      0.000
REMARK  Name = 
REMARK  5 active torsions:
REMARK  status: ('A' for Active; 'I' for Inactive)
REMARK    1  A    between atoms: C_1  and  C_2
REMARK    2  A    between atoms: C_4  and  N_5
REMARK    3  A    between atoms: C_6  and  C_8
REMARK    4  A    between atoms: N_11  and  S_12
REMARK    5  A    between atoms: S_12  and  C_15
REMARK                            x       y       z     vdW  Elec       q    Type
REMARK                         _______ _______ _______ _____ _____    ______ ____
ROOT
ATOM      1  C   UNL     1       2.604   3.024  19.789  0.00  0.00    +0.000 C 
ATOM      2  C   UNL     1       4.087   3.275  20.110  0.00  0.00    +0.000 C 
ATOM      3  C   UNL     1       4.803   4.048  18.999  0.00  0.00    +0.000 C 
ATOM      4  N   UNL     1       4.651   3.355  17.683  0.00  0.00    +0.000 NA
ATOM      5  C   UNL     1       3.221   3.096  17.338  0.00  0.00    +0.000 C 
ATOM      6  C   UNL     1       2.520   2.308  18.442  0.00  0.00    +0.000 C 
ENDROOT
BRANCH   1   8
ATOM      7  N   UNL     1       2.574   5.484  19.721  0.00  0.00    +0.000 N 
ATOM      8  C   UNL     1       1.807   4.333  19.832  0.00  0.00    +0.000 C 
ATOM      9  O   UNL     1       0.585   4.306  19.951  0.00  0.00    +0.000 OA
ATOM     10  H   UNL     1       3.580   5.388  19.677  0.00  0.00    +0.000 HD
BRANCH   7  14
ATOM     11  C   UNL     1       0.633   9.241  22.322  0.00  0.00    +0.000 C 
ATOM     12  C   UNL     1       1.139   8.714  21.009  0.00  0.00    +0.000 A 
ATOM     13  C   UNL     1       1.567   7.377  20.952  0.00  0.00    +0.000 A 
ATOM     14  C   UNL     1       2.079   6.810  19.781  0.00  0.00    +0.000 A 
ATOM     15  C   UNL     1       2.117   7.592  18.624  0.00  0.00    +0.000 A 
ATOM     16  C   UNL     1       1.693   8.927  18.659  0.00  0.00    +0.000 A 
ATOM     17  C   UNL     1       1.212   9.487  19.847  0.00  0.00    +0.000 A 
ATOM     18 BR   UNL     1       0.673  11.306  19.820  0.00  0.00    +0.000 Br
ENDBRANCH   7  14
ENDBRANCH   1   8
BRANCH   4  19
ATOM     19  S   UNL     1       5.448   4.179  16.384  0.00  0.00    +0.000 S 
ATOM     20  O   UNL     1       6.292   3.224  15.697  0.00  0.00    +0.000 OA
ATOM     21  O   UNL     1       4.447   4.937  15.669  0.00  0.00    +0.000 OA
BRANCH  19  22
ATOM     22  C   UNL     1       6.535   5.325  17.204  0.00  0.00    +0.000 A 
ATOM     23  C   UNL     1       7.322   4.886  18.294  0.00  0.00    +0.000 A 
ATOM     24  C   UNL     1       8.129   5.792  18.990  0.00  0.00    +0.000 A 
ATOM     25  C   UNL     1       8.110   7.096  18.554  0.00  0.00    +0.000 A 
ATOM     26  N   UNL     1       8.770   8.198  19.015  0.00  0.00    +0.000 N 
ATOM     27  C   UNL     1       8.402   9.267  18.231  0.00  0.00    +0.000 A 
ATOM     28  O   UNL     1       8.817  10.408  18.373  0.00  0.00    +0.000 OA
ATOM     29  O   UNL     1       7.492   8.881  17.239  0.00  0.00    +0.000 OA
ATOM     30  C   UNL     1       7.345   7.526  17.485  0.00  0.00    +0.000 A 
ATOM     31  C   UNL     1       6.534   6.661  16.785  0.00  0.00    +0.000 A 
ATOM     32  H   UNL     1       9.413   8.265  19.787  0.00  0.00    +0.000 HD
ENDBRANCH  19  22
ENDBRANCH   4  19
TORSDOF 4
ENDMDL
MODEL 2
REMARK VINA RESULT:      -8.7      5.557      8.300
REMARK  Name = 
REMARK  5 active torsions:
REMARK  status: ('A' for Active; 'I' for Inactive)
REMARK    1  A    between atoms: C_1  and  C_2
REMARK    2  A    between atoms: C_4  and  N_5
REMARK    3  A    between atoms: C_6  and  C_8
REMARK    4  A    between atoms: N_11  and  S_12
REMARK    5  A    between atoms: S_12  and  C_15
REMARK                            x       y       z     vdW  Elec       q    Type
REMARK                         _______ _______ _______ _____ _____    ______ ____
ROOT
ATOM      1  C   UNL     1      -2.225  11.954  17.837  0.00  0.00    +0.000 C 
ATOM      2  C   UNL     1      -1.860  10.518  17.426  0.00  0.00    +0.000 C 
ATOM      3  C   UNL     1      -1.292   9.703  18.592  0.00  0.00    +0.000 C 
ATOM      4  N   UNL     1      -0.119  10.397  19.207  0.00  0.00    +0.000 NA
ATOM      5  C   UNL     1      -0.439  11.797  19.619  0.00  0.00    +0.000 C 
ATOM      6  C   UNL     1      -0.986  12.607  18.447  0.00  0.00    +0.000 C 
ENDROOT
BRANCH   1   8
ATOM      7  N   UNL     1      -3.384  12.905  19.790  0.00  0.00    +0.000 N 
ATOM      8  C   UNL     1      -3.440  11.963  18.773  0.00  0.00    +0.000 C 
ATOM      9  O   UNL     1      -4.365  11.177  18.587  0.00  0.00    +0.000 OA
ATOM     10  H   UNL     1      -2.548  13.468  19.876  0.00  0.00    +0.000 HD
BRANCH   7  14
ATOM     11  C   UNL     1      -4.754  12.521  24.546  0.00  0.00    +0.000 C 
ATOM     12  C   UNL     1      -5.091  12.935  23.141  0.00  0.00    +0.000 A 
ATOM     13  C   UNL     1      -4.140  12.699  22.134  0.00  0.00    +0.000 A 
ATOM     14  C   UNL     1      -4.356  13.077  20.806  0.00  0.00    +0.000 A 
ATOM     15  C   UNL     1      -5.579  13.663  20.470  0.00  0.00    +0.000 A 
ATOM     16  C   UNL     1      -6.541  13.905  21.459  0.00  0.00    +0.000 A 
ATOM     17  C   UNL     1      -6.296  13.548  22.789  0.00  0.00    +0.000 A 
ATOM     18 BR   UNL     1      -7.640  13.923  24.074  0.00  0.00    +0.000 Br
ENDBRANCH   7  14
ENDBRANCH   1   8
BRANCH   4  19
ATOM     19  S   UNL     1       0.575   9.519  20.529  0.00  0.00    +0.000 S 
ATOM     20  O   UNL     1       1.418  10.426  21.278  0.00  0.00    +0.000 OA
ATOM     21  O   UNL     1      -0.492   8.788  21.175  0.00  0.00    +0.000 OA
BRANCH  19  22
ATOM     22  C   UNL     1       1.658   8.345  19.744  0.00  0.00    +0.000 A 
ATOM     23  C   UNL     1       2.153   8.608  18.446  0.00  0.00    +0.000 A 
ATOM     24  C   UNL     1       2.950   7.663  17.791  0.00  0.00    +0.000 A 
ATOM     25  C   UNL     1       3.214   6.499  18.474  0.00  0.00    +0.000 A 
ATOM     26  N   UNL     1       3.942   5.402  18.115  0.00  0.00    +0.000 N 
ATOM     27  C   UNL     1       3.894   4.506  19.157  0.00  0.00    +0.000 A 
ATOM     28  O   UNL     1       4.448   3.416  19.163  0.00  0.00    +0.000 OA
ATOM     29  O   UNL     1       3.133   5.004  20.221  0.00  0.00    +0.000 OA
ATOM     30  C   UNL     1       2.735   6.242  19.745  0.00  0.00    +0.000 A 
ATOM     31  C   UNL     1       1.941   7.147  20.413  0.00  0.00    +0.000 A 
ATOM     32  H   UNL     1       4.434   5.233  17.253  0.00  0.00    +0.000 HD
ENDBRANCH  19  22
ENDBRANCH   4  19
TORSDOF 4
ENDMDL
MODEL 3
REMARK VINA RESULT:      -8.7      5.350      8.337
REMARK  Name = 
REMARK  5 active torsions:
REMARK  status: ('A' for Active; 'I' for Inactive)
REMARK    1  A    between atoms: C_1  and  C_2
REMARK    2  A    between atoms: C_4  and  N_5
REMARK    3  A    between atoms: C_6  and  C_8
REMARK    4  A    between atoms: N_11  and  S_12
REMARK    5  A    between atoms: S_12  and  C_15
REMARK                            x       y       z     vdW  Elec       q    Type
REMARK                         _______ _______ _______ _____ _____    ______ ____
ROOT
ATOM      1  C   UNL     1      -0.541  12.927  19.173  0.00  0.00    +0.000 C 
ATOM      2  C   UNL     1      -0.971  11.590  18.547  0.00  0.00    +0.000 C 
ATOM      3  C   UNL     1      -0.814  10.413  19.515  0.00  0.00    +0.000 C 
ATOM      4  N   UNL     1       0.585  10.334  20.036  0.00  0.00    +0.000 NA
ATOM      5  C   UNL     1       1.036  11.617  20.654  0.00  0.00    +0.000 C 
ATOM      6  C   UNL     1       0.894  12.781  19.676  0.00  0.00    +0.000 C 
ENDROOT
BRANCH   1   8
ATOM      7  N   UNL     1      -2.722  12.656  20.283  0.00  0.00    +0.000 N 
ATOM      8  C   UNL     1      -1.526  13.360  20.266  0.00  0.00    +0.000 C 
ATOM      9  O   UNL     1      -1.225  14.262  21.043  0.00  0.00    +0.000 OA
ATOM     10  H   UNL     1      -2.881  11.965  19.562  0.00  0.00    +0.000 HD
BRANCH   7  14
ATOM     11  C   UNL     1      -4.713  12.452  24.826  0.00  0.00    +0.000 C 
ATOM     12  C   UNL     1      -4.843  12.849  23.383  0.00  0.00    +0.000 A 
ATOM     13  C   UNL     1      -3.784  12.543  22.512  0.00  0.00    +0.000 A 
ATOM     14  C   UNL     1      -3.806  12.900  21.161  0.00  0.00    +0.000 A 
ATOM     15  C   UNL     1      -4.944  13.536  20.658  0.00  0.00    +0.000 A 
ATOM     16  C   UNL     1      -6.012  13.848  21.510  0.00  0.00    +0.000 A 
ATOM     17  C   UNL     1      -5.960  13.511  22.866  0.00  0.00    +0.000 A 
ATOM     18 BR   UNL     1      -7.438  13.982  23.959  0.00  0.00    +0.000 Br
ENDBRANCH   7  14
ENDBRANCH   1   8
BRANCH   4  19
ATOM     19  S   UNL     1       0.828   9.015  21.132  0.00  0.00    +0.000 S 
ATOM     20  O   UNL     1       1.729   9.458  22.176  0.00  0.00    +0.000 OA
ATOM     21  O   UNL     1      -0.471   8.468  21.453  0.00  0.00    +0.000 OA
BRANCH  19  22
ATOM     22  C   UNL     1       1.716   7.811  20.167  0.00  0.00    +0.000 A 
ATOM     23  C   UNL     1       2.178   8.153  18.875  0.00  0.00    +0.000 A 
ATOM     24  C   UNL     1       2.817   7.196  18.079  0.00  0.00    +0.000 A 
ATOM     25  C   UNL     1       2.965   5.941  18.623  0.00  0.00    +0.000 A 
ATOM     26  N   UNL     1       3.530   4.811  18.110  0.00  0.00    +0.000 N 
ATOM     27  C   UNL     1       3.420   3.819  19.056  0.00  0.00    +0.000 A 
ATOM     28  O   UNL     1       3.832   2.676  18.917  0.00  0.00    +0.000 OA
ATOM     29  O   UNL     1       2.779   4.286  20.210  0.00  0.00    +0.000 OA
ATOM     30  C   UNL     1       2.518   5.607  19.888  0.00  0.00    +0.000 A 
ATOM     31  C   UNL     1       1.878   6.523  20.692  0.00  0.00    +0.000 A 
ATOM     32  H   UNL     1       3.955   4.678  17.207  0.00  0.00    +0.000 HD
ENDBRANCH  19  22
ENDBRANCH   4  19
TORSDOF 4
ENDMDL
MODEL 4
REMARK VINA RESULT:      -8.7      6.535     10.879
REMARK  Name = 
REMARK  5 active torsions:
REMARK  status: ('A' for Active; 'I' for Inactive)
REMARK    1  A    between atoms: C_1  and  C_2
REMARK    2  A    between atoms: C_4  and  N_5
REMARK    3  A    between atoms: C_6  and  C_8
REMARK    4  A    between atoms: N_11  and  S_12
REMARK    5  A    between atoms: S_12  and  C_15
REMARK                            x       y       z     vdW  Elec       q    Type
REMARK                         _______ _______ _______ _____ _____    ______ ____
ROOT
ATOM      1  C   UNL     1       0.617  10.642  18.569  0.00  0.00    +0.000 C 
ATOM      2  C   UNL     1       1.333  11.923  19.027  0.00  0.00    +0.000 C 
ATOM      3  C   UNL     1       1.087  12.233  20.507  0.00  0.00    +0.000 C 
ATOM      4  N   UNL     1      -0.377  12.305  20.802  0.00  0.00    +0.000 NA
ATOM      5  C   UNL     1      -1.105  11.074  20.370  0.00  0.00    +0.000 C 
ATOM      6  C   UNL     1      -0.870  10.783  18.890  0.00  0.00    +0.000 C 
ENDROOT
BRANCH   1   8
ATOM      7  N   UNL     1       1.872   8.541  18.302  0.00  0.00    +0.000 N 
ATOM      8  C   UNL     1       1.259   9.401  19.202  0.00  0.00    +0.000 C 
ATOM      9  O   UNL     1       1.210   9.236  20.417  0.00  0.00    +0.000 OA
ATOM     10  H   UNL     1       1.808   8.754  17.315  0.00  0.00    +0.000 HD
BRANCH   7  14
ATOM     11  C   UNL     1       2.073   4.434  21.084  0.00  0.00    +0.000 C 
ATOM     12  C   UNL     1       2.636   5.250  19.955  0.00  0.00    +0.000 A 
ATOM     13  C   UNL     1       2.051   6.497  19.681  0.00  0.00    +0.000 A 
ATOM     14  C   UNL     1       2.490   7.310  18.632  0.00  0.00    +0.000 A 
ATOM     15  C   UNL     1       3.579   6.882  17.869  0.00  0.00    +0.000 A 
ATOM     16  C   UNL     1       4.178   5.642  18.127  0.00  0.00    +0.000 A 
ATOM     17  C   UNL     1       3.706   4.828  19.161  0.00  0.00    +0.000 A 
ATOM     18 BR   UNL     1       4.557   3.155  19.437  0.00  0.00    +0.000 Br
ENDBRANCH   7  14
ENDBRANCH   1   8
BRANCH   4  19
ATOM     19  S   UNL     1      -0.720  12.661  22.462  0.00  0.00    +0.000 S 
ATOM     20  O   UNL     1      -0.598  11.434  23.219  0.00  0.00    +0.000 OA
ATOM     21  O   UNL     1       0.040  13.837  22.822  0.00  0.00    +0.000 OA
BRANCH  19  22
ATOM     22  C   UNL     1      -2.446  13.093  22.461  0.00  0.00    +0.000 A 
ATOM     23  C   UNL     1      -2.902  14.156  21.648  0.00  0.00    +0.000 A 
ATOM     24  C   UNL     1      -4.244  14.549  21.688  0.00  0.00    +0.000 A 
ATOM     25  C   UNL     1      -5.066  13.852  22.543  0.00  0.00    +0.000 A 
ATOM     26  N   UNL     1      -6.396  13.992  22.810  0.00  0.00    +0.000 N 
ATOM     27  C   UNL     1      -6.739  13.046  23.748  0.00  0.00    +0.000 A 
ATOM     28  O   UNL     1      -7.862  12.895  24.205  0.00  0.00    +0.000 OA
ATOM     29  O   UNL     1      -5.634  12.267  24.112  0.00  0.00    +0.000 OA
ATOM     30  C   UNL     1      -4.622  12.809  23.336  0.00  0.00    +0.000 A 
ATOM     31  C   UNL     1      -3.307  12.404  23.325  0.00  0.00    +0.000 A 
ATOM     32  H   UNL     1      -7.045  14.655  22.421  0.00  0.00    +0.000 HD
ENDBRANCH  19  22
ENDBRANCH   4  19
TORSDOF 4
ENDMDL
MODEL 5
REMARK VINA RESULT:      -8.6      6.195     10.534
REMARK  Name = 
REMARK  5 active torsions:
REMARK  status: ('A' for Active; 'I' for Inactive)
REMARK    1  A    between atoms: C_1  and  C_2
REMARK    2  A    between atoms: C_4  and  N_5
REMARK    3  A    between atoms: C_6  and  C_8
REMARK    4  A    between atoms: N_11  and  S_12
REMARK    5  A    between atoms: S_12  and  C_15
REMARK                            x       y       z     vdW  Elec       q    Type
REMARK                         _______ _______ _______ _____ _____    ______ ____
ROOT
ATOM      1  C   UNL     1       0.856  10.065  18.169  0.00  0.00    +0.000 C 
ATOM      2  C   UNL     1       1.592  11.345  18.600  0.00  0.00    +0.000 C 
ATOM      3  C   UNL     1       1.349  11.692  20.072  0.00  0.00    +0.000 C 
ATOM      4  N   UNL     1      -0.115  11.794  20.362  0.00  0.00    +0.000 NA
ATOM      5  C   UNL     1      -0.862  10.566  19.955  0.00  0.00    +0.000 C 
ATOM      6  C   UNL     1      -0.629  10.238  18.483  0.00  0.00    +0.000 C 
ENDROOT
BRANCH   1   8
ATOM      7  N   UNL     1       2.037   7.916  17.950  0.00  0.00    +0.000 N 
ATOM      8  C   UNL     1       1.477   8.829  18.832  0.00  0.00    +0.000 C 
ATOM      9  O   UNL     1       1.456   8.711  20.054  0.00  0.00    +0.000 OA
ATOM     10  H   UNL     1       1.952   8.093  16.958  0.00  0.00    +0.000 HD
BRANCH   7  14
ATOM     11  C   UNL     1       6.031   5.258  19.224  0.00  0.00    +0.000 C 
ATOM     12  C   UNL     1       4.552   5.310  18.965  0.00  0.00    +0.000 A 
ATOM     13  C   UNL     1       3.995   6.530  18.547  0.00  0.00    +0.000 A 
ATOM     14  C   UNL     1       2.625   6.679  18.311  0.00  0.00    +0.000 A 
ATOM     15  C   UNL     1       1.799   5.560  18.451  0.00  0.00    +0.000 A 
ATOM     16  C   UNL     1       2.336   4.334  18.865  0.00  0.00    +0.000 A 
ATOM     17  C   UNL     1       3.704   4.211  19.127  0.00  0.00    +0.000 A 
ATOM     18 BR   UNL     1       4.353   2.523  19.701  0.00  0.00    +0.000 Br
ENDBRANCH   7  14
ENDBRANCH   1   8
BRANCH   4  19
ATOM     19  S   UNL     1      -0.456  12.194  22.012  0.00  0.00    +0.000 S 
ATOM     20  O   UNL     1      -0.225  11.013  22.817  0.00  0.00    +0.000 OA
ATOM     21  O   UNL     1       0.216  13.440  22.307  0.00  0.00    +0.000 OA
BRANCH  19  22
ATOM     22  C   UNL     1      -2.211  12.490  22.029  0.00  0.00    +0.000 A 
ATOM     23  C   UNL     1      -2.835  13.064  20.897  0.00  0.00    +0.000 A 
ATOM     24  C   UNL     1      -4.201  13.364  20.922  0.00  0.00    +0.000 A 
ATOM     25  C   UNL     1      -4.876  13.070  22.085  0.00  0.00    +0.000 A 
ATOM     26  N   UNL     1      -6.187  13.243  22.420  0.00  0.00    +0.000 N 
ATOM     27  C   UNL     1      -6.355  12.788  23.707  0.00  0.00    +0.000 A 
ATOM     28  O   UNL     1      -7.417  12.794  24.313  0.00  0.00    +0.000 OA
ATOM     29  O   UNL     1      -5.152  12.306  24.237  0.00  0.00    +0.000 OA
ATOM     30  C   UNL     1      -4.268  12.505  23.190  0.00  0.00    +0.000 A 
ATOM     31  C   UNL     1      -2.924  12.205  23.200  0.00  0.00    +0.000 A 
ATOM     32  H   UNL     1      -6.929  13.633  21.863  0.00  0.00    +0.000 HD
ENDBRANCH  19  22
ENDBRANCH   4  19
TORSDOF 4
ENDMDL
MODEL 6
REMARK VINA RESULT:      -8.6      0.530      1.301
REMARK  Name = 
REMARK  5 active torsions:
REMARK  status: ('A' for Active; 'I' for Inactive)
REMARK    1  A    between atoms: C_1  and  C_2
REMARK    2  A    between atoms: C_4  and  N_5
REMARK    3  A    between atoms: C_6  and  C_8
REMARK    4  A    between atoms: N_11  and  S_12
REMARK    5  A    between atoms: S_12  and  C_15
REMARK                            x       y       z     vdW  Elec       q    Type
REMARK                         _______ _______ _______ _____ _____    ______ ____
ROOT
ATOM      1  C   UNL     1       2.584   2.926  19.126  0.00  0.00    +0.000 C 
ATOM      2  C   UNL     1       4.057   3.107  19.531  0.00  0.00    +0.000 C 
ATOM      3  C   UNL     1       4.840   3.957  18.525  0.00  0.00    +0.000 C 
ATOM      4  N   UNL     1       4.731   3.388  17.147  0.00  0.00    +0.000 NA
ATOM      5  C   UNL     1       3.311   3.199  16.720  0.00  0.00    +0.000 C 
ATOM      6  C   UNL     1       2.544   2.336  17.718  0.00  0.00    +0.000 C 
ENDROOT
BRANCH   1   8
ATOM      7  N   UNL     1       2.609   5.358  19.509  0.00  0.00    +0.000 N 
ATOM      8  C   UNL     1       1.817   4.248  19.252  0.00  0.00    +0.000 C 
ATOM      9  O   UNL     1       0.596   4.265  19.122  0.00  0.00    +0.000 OA
ATOM     10  H   UNL     1       3.601   5.218  19.647  0.00  0.00    +0.000 HD
BRANCH   7  14
ATOM     11  C   UNL     1       1.859   9.973  17.841  0.00  0.00    +0.000 C 
ATOM     12  C   UNL     1       1.715   8.968  18.948  0.00  0.00    +0.000 A 
ATOM     13  C   UNL     1       2.247   7.683  18.752  0.00  0.00    +0.000 A 
ATOM     14  C   UNL     1       2.134   6.677  19.715  0.00  0.00    +0.000 A 
ATOM     15  C   UNL     1       1.512   6.982  20.929  0.00  0.00    +0.000 A 
ATOM     16  C   UNL     1       0.976   8.259  21.145  0.00  0.00    +0.000 A 
ATOM     17  C   UNL     1       1.072   9.245  20.158  0.00  0.00    +0.000 A 
ATOM     18 BR   UNL     1       0.306  10.943  20.518  0.00  0.00    +0.000 Br
ENDBRANCH   7  14
ENDBRANCH   1   8
BRANCH   4  19
ATOM     19  S   UNL     1       5.604   4.301  15.962  0.00  0.00    +0.000 S 
ATOM     20  O   UNL     1       6.486   3.395  15.256  0.00  0.00    +0.000 OA
ATOM     21  O   UNL     1       4.647   5.117  15.248  0.00  0.00    +0.000 OA
BRANCH  19  22
ATOM     22  C   UNL     1       6.642   5.377  16.928  0.00  0.00    +0.000 A 
ATOM     23  C   UNL     1       7.362   4.854  18.027  0.00  0.00    +0.000 A 
ATOM     24  C   UNL     1       8.128   5.701  18.835  0.00  0.00    +0.000 A 
ATOM     25  C   UNL     1       8.137   7.034  18.497  0.00  0.00    +0.000 A 
ATOM     26  N   UNL     1       8.770   8.094  19.076  0.00  0.00    +0.000 N 
ATOM     27  C   UNL     1       8.451   9.220  18.354  0.00  0.00    +0.000 A 
ATOM     28  O   UNL     1       8.858  10.346  18.604  0.00  0.00    +0.000 OA
ATOM     29  O   UNL     1       7.601   8.915  17.284  0.00  0.00    +0.000 OA
ATOM     30  C   UNL     1       7.438   7.546  17.419  0.00  0.00    +0.000 A 
ATOM     31  C   UNL     1       6.668   6.741  16.610  0.00  0.00    +0.000 A 
ATOM     32  H   UNL     1       9.365   8.100  19.888  0.00  0.00    +0.000 HD
ENDBRANCH  19  22
ENDBRANCH   4  19
TORSDOF 4
ENDMDL
MODEL 7
REMARK VINA RESULT:      -8.4      5.540      8.528
REMARK  Name = 
REMARK  5 active torsions:
REMARK  status: ('A' for Active; 'I' for Inactive)
REMARK    1  A    between atoms: C_1  and  C_2
REMARK    2  A    between atoms: C_4  and  N_5
REMARK    3  A    between atoms: C_6  and  C_8
REMARK    4  A    between atoms: N_11  and  S_12
REMARK    5  A    between atoms: S_12  and  C_15
REMARK                            x       y       z     vdW  Elec       q    Type
REMARK                         _______ _______ _______ _____ _____    ______ ____
ROOT
ATOM      1  C   UNL     1      -0.626  12.983  19.185  0.00  0.00    +0.000 C 
ATOM      2  C   UNL     1      -1.030  11.638  18.559  0.00  0.00    +0.000 C 
ATOM      3  C   UNL     1      -0.865  10.467  19.533  0.00  0.00    +0.000 C 
ATOM      4  N   UNL     1       0.530  10.410  20.068  0.00  0.00    +0.000 NA
ATOM      5  C   UNL     1       0.956  11.703  20.685  0.00  0.00    +0.000 C 
ATOM      6  C   UNL     1       0.806  12.860  19.702  0.00  0.00    +0.000 C 
ENDROOT
BRANCH   1   8
ATOM      7  N   UNL     1      -2.832  12.715  20.245  0.00  0.00    +0.000 N 
ATOM      8  C   UNL     1      -1.628  13.405  20.267  0.00  0.00    +0.000 C 
ATOM      9  O   UNL     1      -1.333  14.287  21.069  0.00  0.00    +0.000 OA
ATOM     10  H   UNL     1      -2.985  12.041  19.506  0.00  0.00    +0.000 HD
BRANCH   7  14
ATOM     11  C   UNL     1      -7.547  14.112  20.921  0.00  0.00    +0.000 C 
ATOM     12  C   UNL     1      -6.259  13.611  21.510  0.00  0.00    +0.000 A 
ATOM     13  C   UNL     1      -5.160  13.441  20.652  0.00  0.00    +0.000 A 
ATOM     14  C   UNL     1      -3.931  12.953  21.106  0.00  0.00    +0.000 A 
ATOM     15  C   UNL     1      -3.787  12.674  22.468  0.00  0.00    +0.000 A 
ATOM     16  C   UNL     1      -4.871  12.838  23.340  0.00  0.00    +0.000 A 
ATOM     17  C   UNL     1      -6.102  13.299  22.863  0.00  0.00    +0.000 A 
ATOM     18 BR   UNL     1      -7.527  13.479  24.102  0.00  0.00    +0.000 Br
ENDBRANCH   7  14
ENDBRANCH   1   8
BRANCH   4  19
ATOM     19  S   UNL     1       0.784   9.099  21.171  0.00  0.00    +0.000 S 
ATOM     20  O   UNL     1       1.697   9.548  22.201  0.00  0.00    +0.000 OA
ATOM     21  O   UNL     1      -0.513   8.558  21.510  0.00  0.00    +0.000 OA
BRANCH  19  22
ATOM     22  C   UNL     1       1.658   7.887  20.205  0.00  0.00    +0.000 A 
ATOM     23  C   UNL     1       2.123   8.224  18.912  0.00  0.00    +0.000 A 
ATOM     24  C   UNL     1       2.751   7.261  18.117  0.00  0.00    +0.000 A 
ATOM     25  C   UNL     1       2.886   6.004  18.659  0.00  0.00    +0.000 A 
ATOM     26  N   UNL     1       3.439   4.868  18.145  0.00  0.00    +0.000 N 
ATOM     27  C   UNL     1       3.319   3.877  19.091  0.00  0.00    +0.000 A 
ATOM     28  O   UNL     1       3.719   2.730  18.952  0.00  0.00    +0.000 OA
ATOM     29  O   UNL     1       2.684   4.350  20.246  0.00  0.00    +0.000 OA
ATOM     30  C   UNL     1       2.436   5.674  19.925  0.00  0.00    +0.000 A 
ATOM     31  C   UNL     1       1.807   6.596  20.729  0.00  0.00    +0.000 A 
ATOM     32  H   UNL     1       3.863   4.731  17.242  0.00  0.00    +0.000 HD
ENDBRANCH  19  22
ENDBRANCH   4  19
TORSDOF 4
ENDMDL
MODEL 8
REMARK VINA RESULT:      -8.4      5.348      8.050
REMARK  Name = 
REMARK  5 active torsions:
REMARK  status: ('A' for Active; 'I' for Inactive)
REMARK    1  A    between atoms: C_1  and  C_2
REMARK    2  A    between atoms: C_4  and  N_5
REMARK    3  A    between atoms: C_6  and  C_8
REMARK    4  A    between atoms: N_11  and  S_12
REMARK    5  A    between atoms: S_12  and  C_15
REMARK                            x       y       z     vdW  Elec       q    Type
REMARK                         _______ _______ _______ _____ _____    ______ ____
ROOT
ATOM      1  C   UNL     1      -0.775  12.550  18.749  0.00  0.00    +0.000 C 
ATOM      2  C   UNL     1      -1.273  11.146  18.365  0.00  0.00    +0.000 C 
ATOM      3  C   UNL     1      -1.025  10.115  19.471  0.00  0.00    +0.000 C 
ATOM      4  N   UNL     1       0.420  10.083  19.856  0.00  0.00    +0.000 NA
ATOM      5  C   UNL     1       0.937  11.433  20.235  0.00  0.00    +0.000 C 
ATOM      6  C   UNL     1       0.703  12.448  19.121  0.00  0.00    +0.000 C 
ENDROOT
BRANCH   1   8
ATOM      7  N   UNL     1      -2.915  12.609  19.966  0.00  0.00    +0.000 N 
ATOM      8  C   UNL     1      -1.642  13.152  19.862  0.00  0.00    +0.000 C 
ATOM      9  O   UNL     1      -1.191  14.040  20.580  0.00  0.00    +0.000 OA
ATOM     10  H   UNL     1      -3.196  11.914  19.287  0.00  0.00    +0.000 HD
BRANCH   7  14
ATOM     11  C   UNL     1      -4.852  12.589  24.536  0.00  0.00    +0.000 C 
ATOM     12  C   UNL     1      -4.914  13.077  23.117  0.00  0.00    +0.000 A 
ATOM     13  C   UNL     1      -3.952  12.604  22.210  0.00  0.00    +0.000 A 
ATOM     14  C   UNL     1      -3.915  13.026  20.878  0.00  0.00    +0.000 A 
ATOM     15  C   UNL     1      -4.901  13.910  20.431  0.00  0.00    +0.000 A 
ATOM     16  C   UNL     1      -5.871  14.393  21.320  0.00  0.00    +0.000 A 
ATOM     17  C   UNL     1      -5.874  13.983  22.657  0.00  0.00    +0.000 A 
ATOM     18 BR   UNL     1      -7.208  14.694  23.803  0.00  0.00    +0.000 Br
ENDBRANCH   7  14
ENDBRANCH   1   8
BRANCH   4  19
ATOM     19  S   UNL     1       0.767   8.928  21.099  0.00  0.00    +0.000 S 
ATOM     20  O   UNL     1       1.715   9.526  22.015  0.00  0.00    +0.000 OA
ATOM     21  O   UNL     1      -0.494   8.402  21.570  0.00  0.00    +0.000 OA
BRANCH  19  22
ATOM     22  C   UNL     1       1.631   7.626  20.247  0.00  0.00    +0.000 A 
ATOM     23  C   UNL     1       1.668   6.328  20.807  0.00  0.00    +0.000 A 
ATOM     24  C   UNL     1       2.399   5.312  20.183  0.00  0.00    +0.000 A 
ATOM     25  C   UNL     1       3.056   5.649  19.022  0.00  0.00    +0.000 A 
ATOM     26  N   UNL     1       3.842   4.901  18.195  0.00  0.00    +0.000 N 
ATOM     27  C   UNL     1       4.263   5.712  17.167  0.00  0.00    +0.000 A 
ATOM     28  O   UNL     1       4.981   5.351  16.246  0.00  0.00    +0.000 OA
ATOM     29  O   UNL     1       3.758   7.010  17.304  0.00  0.00    +0.000 OA
ATOM     30  C   UNL     1       3.017   6.917  18.471  0.00  0.00    +0.000 A 
ATOM     31  C   UNL     1       2.313   7.939  19.065  0.00  0.00    +0.000 A 
ATOM     32  H   UNL     1       4.098   3.931  18.284  0.00  0.00    +0.000 HD
ENDBRANCH  19  22
ENDBRANCH   4  19
TORSDOF 4
ENDMDL
MODEL 9
REMARK VINA RESULT:      -8.3      5.419      8.135
REMARK  Name = 
REMARK  5 active torsions:
REMARK  status: ('A' for Active; 'I' for Inactive)
REMARK    1  A    between atoms: C_1  and  C_2
REMARK    2  A    between atoms: C_4  and  N_5
REMARK    3  A    between atoms: C_6  and  C_8
REMARK    4  A    between atoms: N_11  and  S_12
REMARK    5  A    between atoms: S_12  and  C_15
REMARK                            x       y       z     vdW  Elec       q    Type
REMARK                         _______ _______ _______ _____ _____    ______ ____
ROOT
ATOM      1  C   UNL     1      -0.746  12.458  18.708  0.00  0.00    +0.000 C 
ATOM      2  C   UNL     1      -1.163  11.034  18.302  0.00  0.00    +0.000 C 
ATOM      3  C   UNL     1      -0.936  10.016  19.424  0.00  0.00    +0.000 C 
ATOM      4  N   UNL     1       0.484  10.044  19.891  0.00  0.00    +0.000 NA
ATOM      5  C   UNL     1       0.923  11.414  20.295  0.00  0.00    +0.000 C 
ATOM      6  C   UNL     1       0.711  12.418  19.165  0.00  0.00    +0.000 C 
ENDROOT
BRANCH   1   8
ATOM      7  N   UNL     1      -2.918  12.369  19.863  0.00  0.00    +0.000 N 
ATOM      8  C   UNL     1      -1.699  13.025  19.767  0.00  0.00    +0.000 C 
ATOM      9  O   UNL     1      -1.356  13.983  20.453  0.00  0.00    +0.000 OA
ATOM     10  H   UNL     1      -3.113  11.620  19.210  0.00  0.00    +0.000 HD
BRANCH   7  14
ATOM     11  C   UNL     1      -7.654  13.697  20.540  0.00  0.00    +0.000 C 
ATOM     12  C   UNL     1      -6.313  13.369  21.135  0.00  0.00    +0.000 A 
ATOM     13  C   UNL     1      -5.254  13.074  20.261  0.00  0.00    +0.000 A 
ATOM     14  C   UNL     1      -3.981  12.731  20.726  0.00  0.00    +0.000 A 
ATOM     15  C   UNL     1      -3.752  12.732  22.105  0.00  0.00    +0.000 A 
ATOM     16  C   UNL     1      -4.796  13.025  22.993  0.00  0.00    +0.000 A 
ATOM     17  C   UNL     1      -6.071  13.337  22.511  0.00  0.00    +0.000 A 
ATOM     18 BR   UNL     1      -7.436  13.706  23.776  0.00  0.00    +0.000 Br
ENDBRANCH   7  14
ENDBRANCH   1   8
BRANCH   4  19
ATOM     19  S   UNL     1       0.806   8.906  21.157  0.00  0.00    +0.000 S 
ATOM     20  O   UNL     1       1.793   9.486  22.042  0.00  0.00    +0.000 OA
ATOM     21  O   UNL     1      -0.467   8.443  21.662  0.00  0.00    +0.000 OA
BRANCH  19  22
ATOM     22  C   UNL     1       1.601   7.549  20.323  0.00  0.00    +0.000 A 
ATOM     23  C   UNL     1       1.553   6.254  20.889  0.00  0.00    +0.000 A 
ATOM     24  C   UNL     1       2.230   5.193  20.280  0.00  0.00    +0.000 A 
ATOM     25  C   UNL     1       2.922   5.484  19.127  0.00  0.00    +0.000 A 
ATOM     26  N   UNL     1       3.672   4.685  18.315  0.00  0.00    +0.000 N 
ATOM     27  C   UNL     1       4.157   5.463  17.290  0.00  0.00    +0.000 A 
ATOM     28  O   UNL     1       4.865   5.055  16.381  0.00  0.00    +0.000 OA
ATOM     29  O   UNL     1       3.729   6.791  17.414  0.00  0.00    +0.000 OA
ATOM     30  C   UNL     1       2.967   6.748  18.570  0.00  0.00    +0.000 A 
ATOM     31  C   UNL     1       2.318   7.815  19.150  0.00  0.00    +0.000 A 
ATOM     32  H   UNL     1       3.869   3.702  18.412  0.00  0.00    +0.000 HD
ENDBRANCH  19  22
ENDBRANCH   4  19
TORSDOF 4
ENDMDL
