MODEL 1
REMARK VINA RESULT:      -7.8      0.000      0.000
REMARK  Name = 
REMARK  10 active torsions:
REMARK  status: ('A' for Active; 'I' for Inactive)
REMARK    1  A    between atoms: C_1  and  C_2
REMARK    2  A    between atoms: C_2  and  N_3
REMARK    3  A    between atoms: C_4  and  C_6
REMARK    4  A    between atoms: C_9  and  C_10
REMARK    5  A    between atoms: C_12  and  C_13
REMARK    6  A    between atoms: C_13  and  C_14
REMARK    7  A    between atoms: C_13  and  C_15
REMARK    8  A    between atoms: C_16  and  O_17
REMARK    9  A    between atoms: C_19  and  O_20
REMARK   10  A    between atoms: C_21  and  C_22
REMARK                            x       y       z     vdW  Elec       q    Type
REMARK                         _______ _______ _______ _____ _____    ______ ____
ROOT
ATOM      1  C   UNL     1       5.406   5.696  16.273  0.00  0.00    +0.000 A 
ATOM      2  N   UNL     1       5.660   7.019  16.259  0.00  0.00    +0.000 NA
ATOM      3  O   UNL     1       4.725   7.595  17.099  0.00  0.00    +0.000 OA
ATOM      4  C   UNL     1       3.933   6.632  17.656  0.00  0.00    +0.000 A 
ATOM      5  C   UNL     1       4.346   5.401  17.176  0.00  0.00    +0.000 A 
ENDROOT
BRANCH   4   6
ATOM      6  C   UNL     1       2.953   7.102  18.640  0.00  0.00    +0.000 A 
ATOM      7  C   UNL     1       2.200   8.259  18.362  0.00  0.00    +0.000 A 
ATOM      8  C   UNL     1       1.280   8.823  19.271  0.00  0.00    +0.000 A 
ATOM      9  C   UNL     1       1.115   8.158  20.493  0.00  0.00    +0.000 A 
ATOM     10  C   UNL     1       1.823   6.989  20.786  0.00  0.00    +0.000 A 
ATOM     11  C   UNL     1       2.735   6.467  19.867  0.00  0.00    +0.000 A 
BRANCH   8  12
ATOM     12  C   UNL     1       0.589  10.138  18.931  0.00  0.00    +0.000 C 
ATOM     13  C   UNL     1       1.614  11.173  18.455  0.00  0.00    +0.000 C 
ATOM     14  C   UNL     1      -0.537  10.020  17.892  0.00  0.00    +0.000 C 
ENDBRANCH   8  12
BRANCH   9  15
ATOM     15  O   UNL     1       0.277   8.586  21.484  0.00  0.00    +0.000 OA
ATOM     16  H   UNL     1       0.705   9.279  22.007  0.00  0.00    +0.000 HD
ENDBRANCH   9  15
BRANCH  11  17
ATOM     17  O   UNL     1       3.435   5.336  20.192  0.00  0.00    +0.000 OA
ATOM     18  H   UNL     1       4.335   5.406  19.839  0.00  0.00    +0.000 HD
ENDBRANCH  11  17
ENDBRANCH   4   6
BRANCH   5  19
ATOM     19  C   UNL     1       3.841   4.077  17.536  0.00  0.00    +0.000 A 
ATOM     20  C   UNL     1       2.618   3.514  17.104  0.00  0.00    +0.000 A 
ATOM     21  C   UNL     1       2.599   2.245  17.629  0.00  0.00    +0.000 A 
ATOM     22  N   UNL     1       3.775   2.106  18.307  0.00  0.00    +0.000 N 
ATOM     23  N   UNL     1       4.551   3.198  18.254  0.00  0.00    +0.000 NA
ATOM     24  H   UNL     1       4.117   1.298  18.812  0.00  0.00    +0.000 HD
ENDBRANCH   5  19
BRANCH   1  26
ATOM     25  N   UNL     1       5.583   4.382  14.281  0.00  0.00    +0.000 N 
ATOM     26  C   UNL     1       6.202   4.778  15.452  0.00  0.00    +0.000 C 
ATOM     27  O   UNL     1       7.336   4.416  15.748  0.00  0.00    +0.000 OA
ATOM     28  H   UNL     1       4.612   4.654  14.155  0.00  0.00    +0.000 HD
BRANCH  25  30
ATOM     29  C   UNL     1       5.380   3.302  12.091  0.00  0.00    +0.000 C 
ATOM     30  C   UNL     1       6.247   3.547  13.310  0.00  0.00    +0.000 C 
ENDBRANCH  25  30
ENDBRANCH   1  26
TORSDOF 7
ENDMDL
MODEL 2
REMARK VINA RESULT:      -7.7      0.874      1.146
REMARK  Name = 
REMARK  10 active torsions:
REMARK  status: ('A' for Active; 'I' for Inactive)
REMARK    1  A    between atoms: C_1  and  C_2
REMARK    2  A    between atoms: C_2  and  N_3
REMARK    3  A    between atoms: C_4  and  C_6
REMARK    4  A    between atoms: C_9  and  C_10
REMARK    5  A    between atoms: C_12  and  C_13
REMARK    6  A    between atoms: C_13  and  C_14
REMARK    7  A    between atoms: C_13  and  C_15
REMARK    8  A    between atoms: C_16  and  O_17
REMARK    9  A    between atoms: C_19  and  O_20
REMARK   10  A    between atoms: C_21  and  C_22
REMARK                            x       y       z     vdW  Elec       q    Type
REMARK                         _______ _______ _______ _____ _____    ______ ____
ROOT
ATOM      1  C   UNL     1       5.125   5.461  16.218  0.00  0.00    +0.000 A 
ATOM      2  N   UNL     1       5.556   6.736  16.182  0.00  0.00    +0.000 NA
ATOM      3  O   UNL     1       4.692   7.455  16.988  0.00  0.00    +0.000 OA
ATOM      4  C   UNL     1       3.765   6.621  17.546  0.00  0.00    +0.000 A 
ATOM      5  C   UNL     1       4.016   5.335  17.103  0.00  0.00    +0.000 A 
ENDROOT
BRANCH   4   6
ATOM      6  C   UNL     1       2.839   7.244  18.497  0.00  0.00    +0.000 A 
ATOM      7  C   UNL     1       2.129   8.398  18.111  0.00  0.00    +0.000 A 
ATOM      8  C   UNL     1       1.265   9.103  18.974  0.00  0.00    +0.000 A 
ATOM      9  C   UNL     1       1.109   8.586  20.267  0.00  0.00    +0.000 A 
ATOM     10  C   UNL     1       1.774   7.424  20.671  0.00  0.00    +0.000 A 
ATOM     11  C   UNL     1       2.632   6.761  19.793  0.00  0.00    +0.000 A 
BRANCH   8  12
ATOM     12  C   UNL     1       0.621  10.403  18.507  0.00  0.00    +0.000 C 
ATOM     13  C   UNL     1      -0.905  10.262  18.479  0.00  0.00    +0.000 C 
ATOM     14  C   UNL     1       1.005  11.641  19.331  0.00  0.00    +0.000 C 
ENDBRANCH   8  12
BRANCH   9  15
ATOM     15  O   UNL     1       0.323   9.161  21.226  0.00  0.00    +0.000 OA
ATOM     16  H   UNL     1       0.600   8.867  22.105  0.00  0.00    +0.000 HD
ENDBRANCH   9  15
BRANCH  11  17
ATOM     17  O   UNL     1       3.291   5.642  20.225  0.00  0.00    +0.000 OA
ATOM     18  H   UNL     1       4.093   5.519  19.693  0.00  0.00    +0.000 HD
ENDBRANCH  11  17
ENDBRANCH   4   6
BRANCH   5  19
ATOM     19  C   UNL     1       3.328   4.101  17.479  0.00  0.00    +0.000 A 
ATOM     20  C   UNL     1       3.927   2.976  18.092  0.00  0.00    +0.000 A 
ATOM     21  C   UNL     1       2.897   2.097  18.319  0.00  0.00    +0.000 A 
ATOM     22  N   UNL     1       1.771   2.721  17.868  0.00  0.00    +0.000 N 
ATOM     23  N   UNL     1       2.003   3.942  17.367  0.00  0.00    +0.000 NA
ATOM     24  H   UNL     1       0.816   2.382  17.883  0.00  0.00    +0.000 HD
ENDBRANCH   5  19
BRANCH   1  26
ATOM     25  N   UNL     1       5.500   4.439  14.088  0.00  0.00    +0.000 N 
ATOM     26  C   UNL     1       5.805   4.424  15.436  0.00  0.00    +0.000 C 
ATOM     27  O   UNL     1       6.607   3.630  15.917  0.00  0.00    +0.000 OA
ATOM     28  H   UNL     1       4.760   5.067  13.787  0.00  0.00    +0.000 HD
BRANCH  25  30
ATOM     29  C   UNL     1       5.228   3.213  11.984  0.00  0.00    +0.000 C 
ATOM     30  C   UNL     1       6.137   3.546  13.151  0.00  0.00    +0.000 C 
ENDBRANCH  25  30
ENDBRANCH   1  26
TORSDOF 7
ENDMDL
MODEL 3
REMARK VINA RESULT:      -7.6      1.188      1.263
REMARK  Name = 
REMARK  10 active torsions:
REMARK  status: ('A' for Active; 'I' for Inactive)
REMARK    1  A    between atoms: C_1  and  C_2
REMARK    2  A    between atoms: C_2  and  N_3
REMARK    3  A    between atoms: C_4  and  C_6
REMARK    4  A    between atoms: C_9  and  C_10
REMARK    5  A    between atoms: C_12  and  C_13
REMARK    6  A    between atoms: C_13  and  C_14
REMARK    7  A    between atoms: C_13  and  C_15
REMARK    8  A    between atoms: C_16  and  O_17
REMARK    9  A    between atoms: C_19  and  O_20
REMARK   10  A    between atoms: C_21  and  C_22
REMARK                            x       y       z     vdW  Elec       q    Type
REMARK                         _______ _______ _______ _____ _____    ______ ____
ROOT
ATOM      1  C   UNL     1       4.424   5.635  16.909  0.00  0.00    +0.000 A 
ATOM      2  N   UNL     1       4.864   6.901  16.773  0.00  0.00    +0.000 NA
ATOM      3  O   UNL     1       4.032   7.680  17.556  0.00  0.00    +0.000 OA
ATOM      4  C   UNL     1       3.118   6.895  18.199  0.00  0.00    +0.000 A 
ATOM      5  C   UNL     1       3.345   5.579  17.836  0.00  0.00    +0.000 A 
ENDROOT
BRANCH   4   6
ATOM      6  C   UNL     1       2.228   7.589  19.135  0.00  0.00    +0.000 A 
ATOM      7  C   UNL     1       1.621   8.797  18.740  0.00  0.00    +0.000 A 
ATOM      8  C   UNL     1       0.801   9.568  19.591  0.00  0.00    +0.000 A 
ATOM      9  C   UNL     1       0.581   9.064  20.879  0.00  0.00    +0.000 A 
ATOM     10  C   UNL     1       1.142   7.851  21.291  0.00  0.00    +0.000 A 
ATOM     11  C   UNL     1       1.960   7.122  20.426  0.00  0.00    +0.000 A 
BRANCH   8  12
ATOM     12  C   UNL     1       0.274  10.917  19.116  0.00  0.00    +0.000 C 
ATOM     13  C   UNL     1       1.401  11.736  18.479  0.00  0.00    +0.000 C 
ATOM     14  C   UNL     1      -0.911  10.835  18.141  0.00  0.00    +0.000 C 
ENDBRANCH   8  12
BRANCH   9  15
ATOM     15  O   UNL     1      -0.173   9.699  21.826  0.00  0.00    +0.000 OA
ATOM     16  H   UNL     1       0.000  10.650  21.807  0.00  0.00    +0.000 HD
ENDBRANCH   9  15
BRANCH  11  17
ATOM     17  O   UNL     1       2.518   5.952  20.865  0.00  0.00    +0.000 OA
ATOM     18  H   UNL     1       3.367   6.145  21.292  0.00  0.00    +0.000 HD
ENDBRANCH  11  17
ENDBRANCH   4   6
BRANCH   5  19
ATOM     19  C   UNL     1       2.661   4.379  18.317  0.00  0.00    +0.000 A 
ATOM     20  C   UNL     1       1.429   3.881  17.835  0.00  0.00    +0.000 A 
ATOM     21  C   UNL     1       1.217   2.713  18.525  0.00  0.00    +0.000 A 
ATOM     22  N   UNL     1       2.299   2.562  19.340  0.00  0.00    +0.000 N 
ATOM     23  N   UNL     1       3.196   3.552  19.224  0.00  0.00    +0.000 NA
ATOM     24  H   UNL     1       2.498   1.808  19.988  0.00  0.00    +0.000 HD
ENDBRANCH   5  19
BRANCH   1  26
ATOM     25  N   UNL     1       5.593   4.910  14.951  0.00  0.00    +0.000 N 
ATOM     26  C   UNL     1       5.071   4.541  16.177  0.00  0.00    +0.000 C 
ATOM     27  O   UNL     1       5.181   3.403  16.619  0.00  0.00    +0.000 OA
ATOM     28  H   UNL     1       5.380   5.847  14.620  0.00  0.00    +0.000 HD
BRANCH  25  30
ATOM     29  C   UNL     1       5.591   3.645  12.853  0.00  0.00    +0.000 C 
ATOM     30  C   UNL     1       6.336   3.987  14.128  0.00  0.00    +0.000 C 
ENDBRANCH  25  30
ENDBRANCH   1  26
TORSDOF 7
ENDMDL
MODEL 4
REMARK VINA RESULT:      -7.5      2.467      7.046
REMARK  Name = 
REMARK  10 active torsions:
REMARK  status: ('A' for Active; 'I' for Inactive)
REMARK    1  A    between atoms: C_1  and  C_2
REMARK    2  A    between atoms: C_2  and  N_3
REMARK    3  A    between atoms: C_4  and  C_6
REMARK    4  A    between atoms: C_9  and  C_10
REMARK    5  A    between atoms: C_12  and  C_13
REMARK    6  A    between atoms: C_13  and  C_14
REMARK    7  A    between atoms: C_13  and  C_15
REMARK    8  A    between atoms: C_16  and  O_17
REMARK    9  A    between atoms: C_19  and  O_20
REMARK   10  A    between atoms: C_21  and  C_22
REMARK                            x       y       z     vdW  Elec       q    Type
REMARK                         _______ _______ _______ _____ _____    ______ ____
ROOT
ATOM      1  C   UNL     1       3.493   6.159  18.092  0.00  0.00    +0.000 A 
ATOM      2  N   UNL     1       3.949   7.323  17.591  0.00  0.00    +0.000 NA
ATOM      3  O   UNL     1       4.749   6.988  16.514  0.00  0.00    +0.000 OA
ATOM      4  C   UNL     1       4.750   5.635  16.330  0.00  0.00    +0.000 A 
ATOM      5  C   UNL     1       3.943   5.065  17.299  0.00  0.00    +0.000 A 
ENDROOT
BRANCH   4   6
ATOM      6  C   UNL     1       5.491   5.151  15.161  0.00  0.00    +0.000 A 
ATOM      7  C   UNL     1       4.812   4.411  14.174  0.00  0.00    +0.000 A 
ATOM      8  C   UNL     1       5.450   3.851  13.048  0.00  0.00    +0.000 A 
ATOM      9  C   UNL     1       6.825   4.085  12.923  0.00  0.00    +0.000 A 
ATOM     10  C   UNL     1       7.523   4.844  13.868  0.00  0.00    +0.000 A 
ATOM     11  C   UNL     1       6.860   5.371  14.977  0.00  0.00    +0.000 A 
BRANCH   8  12
ATOM     12  C   UNL     1       4.657   2.972  12.087  0.00  0.00    +0.000 C 
ATOM     13  C   UNL     1       4.000   3.830  10.999  0.00  0.00    +0.000 C 
ATOM     14  C   UNL     1       5.469   1.847  11.428  0.00  0.00    +0.000 C 
ENDBRANCH   8  12
BRANCH   9  15
ATOM     15  O   UNL     1       7.590   3.598  11.899  0.00  0.00    +0.000 OA
ATOM     16  H   UNL     1       7.702   2.642  11.993  0.00  0.00    +0.000 HD
ENDBRANCH   9  15
BRANCH  11  17
ATOM     17  O   UNL     1       7.573   6.086  15.901  0.00  0.00    +0.000 OA
ATOM     18  H   UNL     1       7.871   6.918  15.499  0.00  0.00    +0.000 HD
ENDBRANCH  11  17
ENDBRANCH   4   6
BRANCH   5  19
ATOM     19  C   UNL     1       3.587   3.657  17.464  0.00  0.00    +0.000 A 
ATOM     20  C   UNL     1       4.376   2.676  18.109  0.00  0.00    +0.000 A 
ATOM     21  C   UNL     1       3.619   1.531  18.085  0.00  0.00    +0.000 A 
ATOM     22  N   UNL     1       2.451   1.871  17.470  0.00  0.00    +0.000 N 
ATOM     23  N   UNL     1       2.400   3.157  17.096  0.00  0.00    +0.000 NA
ATOM     24  H   UNL     1       1.644   1.286  17.284  0.00  0.00    +0.000 HD
ENDBRANCH   5  19
BRANCH   1  26
ATOM     25  N   UNL     1       2.192   4.889  19.647  0.00  0.00    +0.000 N 
ATOM     26  C   UNL     1       2.630   6.148  19.277  0.00  0.00    +0.000 C 
ATOM     27  O   UNL     1       2.345   7.154  19.917  0.00  0.00    +0.000 OA
ATOM     28  H   UNL     1       2.397   4.122  19.014  0.00  0.00    +0.000 HD
BRANCH  25  30
ATOM     29  C   UNL     1       1.656   3.309  21.441  0.00  0.00    +0.000 C 
ATOM     30  C   UNL     1       1.401   4.675  20.835  0.00  0.00    +0.000 C 
ENDBRANCH  25  30
ENDBRANCH   1  26
TORSDOF 7
ENDMDL
MODEL 5
REMARK VINA RESULT:      -7.3      1.907      2.548
REMARK  Name = 
REMARK  10 active torsions:
REMARK  status: ('A' for Active; 'I' for Inactive)
REMARK    1  A    between atoms: C_1  and  C_2
REMARK    2  A    between atoms: C_2  and  N_3
REMARK    3  A    between atoms: C_4  and  C_6
REMARK    4  A    between atoms: C_9  and  C_10
REMARK    5  A    between atoms: C_12  and  C_13
REMARK    6  A    between atoms: C_13  and  C_14
REMARK    7  A    between atoms: C_13  and  C_15
REMARK    8  A    between atoms: C_16  and  O_17
REMARK    9  A    between atoms: C_19  and  O_20
REMARK   10  A    between atoms: C_21  and  C_22
REMARK                            x       y       z     vdW  Elec       q    Type
REMARK                         _______ _______ _______ _____ _____    ______ ____
ROOT
ATOM      1  C   UNL     1       3.977   6.081  17.604  0.00  0.00    +0.000 A 
ATOM      2  N   UNL     1       4.410   7.293  17.207  0.00  0.00    +0.000 NA
ATOM      3  O   UNL     1       3.486   8.204  17.683  0.00  0.00    +0.000 OA
ATOM      4  C   UNL     1       2.518   7.562  18.402  0.00  0.00    +0.000 A 
ATOM      5  C   UNL     1       2.802   6.208  18.399  0.00  0.00    +0.000 A 
ENDROOT
BRANCH   4   6
ATOM      6  C   UNL     1       1.521   8.426  19.041  0.00  0.00    +0.000 A 
ATOM      7  C   UNL     1       0.697   9.238  18.237  0.00  0.00    +0.000 A 
ATOM      8  C   UNL     1      -0.247  10.146  18.761  0.00  0.00    +0.000 A 
ATOM      9  C   UNL     1      -0.361  10.199  20.156  0.00  0.00    +0.000 A 
ATOM     10  C   UNL     1       0.418   9.382  20.981  0.00  0.00    +0.000 A 
ATOM     11  C   UNL     1       1.351   8.505  20.427  0.00  0.00    +0.000 A 
BRANCH   8  12
ATOM     12  C   UNL     1      -1.019  11.063  17.820  0.00  0.00    +0.000 C 
ATOM     13  C   UNL     1      -2.480  10.611  17.714  0.00  0.00    +0.000 C 
ATOM     14  C   UNL     1      -0.971  12.553  18.194  0.00  0.00    +0.000 C 
ENDBRANCH   8  12
BRANCH   9  15
ATOM     15  O   UNL     1      -1.215  11.037  20.818  0.00  0.00    +0.000 OA
ATOM     16  H   UNL     1      -1.301  11.872  20.337  0.00  0.00    +0.000 HD
ENDBRANCH   9  15
BRANCH  11  17
ATOM     17  O   UNL     1       2.120   7.738  21.260  0.00  0.00    +0.000 OA
ATOM     18  H   UNL     1       2.299   6.885  20.833  0.00  0.00    +0.000 HD
ENDBRANCH  11  17
ENDBRANCH   4   6
BRANCH   5  19
ATOM     19  C   UNL     1       2.087   5.134  19.087  0.00  0.00    +0.000 A 
ATOM     20  C   UNL     1       1.407   4.063  18.464  0.00  0.00    +0.000 A 
ATOM     21  C   UNL     1       0.954   3.276  19.492  0.00  0.00    +0.000 A 
ATOM     22  N   UNL     1       1.384   3.877  20.638  0.00  0.00    +0.000 N 
ATOM     23  N   UNL     1       2.085   4.999  20.419  0.00  0.00    +0.000 NA
ATOM     24  H   UNL     1       1.249   3.575  21.596  0.00  0.00    +0.000 HD
ENDBRANCH   5  19
BRANCH   1  26
ATOM     25  N   UNL     1       5.111   4.828  15.910  0.00  0.00    +0.000 N 
ATOM     26  C   UNL     1       4.716   4.870  17.235  0.00  0.00    +0.000 C 
ATOM     27  O   UNL     1       5.000   3.981  18.031  0.00  0.00    +0.000 OA
ATOM     28  H   UNL     1       4.758   5.558  15.299  0.00  0.00    +0.000 HD
BRANCH  25  30
ATOM     29  C   UNL     1       6.127   3.882  13.892  0.00  0.00    +0.000 C 
ATOM     30  C   UNL     1       5.918   3.753  15.388  0.00  0.00    +0.000 C 
ENDBRANCH  25  30
ENDBRANCH   1  26
TORSDOF 7
ENDMDL
MODEL 6
REMARK VINA RESULT:      -7.3      2.078      7.145
REMARK  Name = 
REMARK  10 active torsions:
REMARK  status: ('A' for Active; 'I' for Inactive)
REMARK    1  A    between atoms: C_1  and  C_2
REMARK    2  A    between atoms: C_2  and  N_3
REMARK    3  A    between atoms: C_4  and  C_6
REMARK    4  A    between atoms: C_9  and  C_10
REMARK    5  A    between atoms: C_12  and  C_13
REMARK    6  A    between atoms: C_13  and  C_14
REMARK    7  A    between atoms: C_13  and  C_15
REMARK    8  A    between atoms: C_16  and  O_17
REMARK    9  A    between atoms: C_19  and  O_20
REMARK   10  A    between atoms: C_21  and  C_22
REMARK                            x       y       z     vdW  Elec       q    Type
REMARK                         _______ _______ _______ _____ _____    ______ ____
ROOT
ATOM      1  C   UNL     1       3.328   6.156  18.204  0.00  0.00    +0.000 A 
ATOM      2  N   UNL     1       3.772   7.326  17.705  0.00  0.00    +0.000 NA
ATOM      3  O   UNL     1       4.603   7.000  16.649  0.00  0.00    +0.000 OA
ATOM      4  C   UNL     1       4.635   5.645  16.475  0.00  0.00    +0.000 A 
ATOM      5  C   UNL     1       3.817   5.066  17.429  0.00  0.00    +0.000 A 
ENDROOT
BRANCH   4   6
ATOM      6  C   UNL     1       5.413   5.169  15.327  0.00  0.00    +0.000 A 
ATOM      7  C   UNL     1       4.764   4.441  14.311  0.00  0.00    +0.000 A 
ATOM      8  C   UNL     1       5.437   3.889  13.201  0.00  0.00    +0.000 A 
ATOM      9  C   UNL     1       6.817   4.118  13.124  0.00  0.00    +0.000 A 
ATOM     10  C   UNL     1       7.485   4.865  14.099  0.00  0.00    +0.000 A 
ATOM     11  C   UNL     1       6.788   5.384  15.191  0.00  0.00    +0.000 A 
BRANCH   8  12
ATOM     12  C   UNL     1       4.673   3.023  12.206  0.00  0.00    +0.000 C 
ATOM     13  C   UNL     1       4.013   3.898  11.135  0.00  0.00    +0.000 C 
ATOM     14  C   UNL     1       5.515   1.933  11.526  0.00  0.00    +0.000 C 
ENDBRANCH   8  12
BRANCH   9  15
ATOM     15  O   UNL     1       7.613   3.637  12.123  0.00  0.00    +0.000 OA
ATOM     16  H   UNL     1       7.132   3.641  11.283  0.00  0.00    +0.000 HD
ENDBRANCH   9  15
BRANCH  11  17
ATOM     17  O   UNL     1       7.473   6.088  16.145  0.00  0.00    +0.000 OA
ATOM     18  H   UNL     1       7.048   6.950  16.271  0.00  0.00    +0.000 HD
ENDBRANCH  11  17
ENDBRANCH   4   6
BRANCH   5  19
ATOM     19  C   UNL     1       3.487   3.652  17.596  0.00  0.00    +0.000 A 
ATOM     20  C   UNL     1       4.167   2.737  18.433  0.00  0.00    +0.000 A 
ATOM     21  C   UNL     1       3.471   1.560  18.322  0.00  0.00    +0.000 A 
ATOM     22  N   UNL     1       2.436   1.818  17.473  0.00  0.00    +0.000 N 
ATOM     23  N   UNL     1       2.415   3.083  17.029  0.00  0.00    +0.000 NA
ATOM     24  H   UNL     1       1.703   1.189  17.165  0.00  0.00    +0.000 HD
ENDBRANCH   5  19
BRANCH   1  26
ATOM     25  N   UNL     1       2.291   7.360  19.992  0.00  0.00    +0.000 N 
ATOM     26  C   UNL     1       2.438   6.135  19.369  0.00  0.00    +0.000 C 
ATOM     27  O   UNL     1       1.839   5.133  19.746  0.00  0.00    +0.000 OA
ATOM     28  H   UNL     1       2.890   8.117  19.674  0.00  0.00    +0.000 HD
BRANCH  25  30
ATOM     29  C   UNL     1       1.015   9.007  21.283  0.00  0.00    +0.000 C 
ATOM     30  C   UNL     1       1.391   7.549  21.104  0.00  0.00    +0.000 C 
ENDBRANCH  25  30
ENDBRANCH   1  26
TORSDOF 7
ENDMDL
MODEL 7
REMARK VINA RESULT:      -7.2      4.526      8.810
REMARK  Name = 
REMARK  10 active torsions:
REMARK  status: ('A' for Active; 'I' for Inactive)
REMARK    1  A    between atoms: C_1  and  C_2
REMARK    2  A    between atoms: C_2  and  N_3
REMARK    3  A    between atoms: C_4  and  C_6
REMARK    4  A    between atoms: C_9  and  C_10
REMARK    5  A    between atoms: C_12  and  C_13
REMARK    6  A    between atoms: C_13  and  C_14
REMARK    7  A    between atoms: C_13  and  C_15
REMARK    8  A    between atoms: C_16  and  O_17
REMARK    9  A    between atoms: C_19  and  O_20
REMARK   10  A    between atoms: C_21  and  C_22
REMARK                            x       y       z     vdW  Elec       q    Type
REMARK                         _______ _______ _______ _____ _____    ______ ____
ROOT
ATOM      1  C   UNL     1       0.095  10.615  21.960  0.00  0.00    +0.000 A 
ATOM      2  N   UNL     1       0.854   9.908  22.819  0.00  0.00    +0.000 NA
ATOM      3  O   UNL     1       1.416   8.884  22.080  0.00  0.00    +0.000 OA
ATOM      4  C   UNL     1       1.040   8.986  20.770  0.00  0.00    +0.000 A 
ATOM      5  C   UNL     1       0.216  10.091  20.641  0.00  0.00    +0.000 A 
ENDROOT
BRANCH   4   6
ATOM      6  C   UNL     1       1.640   8.010  19.857  0.00  0.00    +0.000 A 
ATOM      7  C   UNL     1       1.640   6.647  20.209  0.00  0.00    +0.000 A 
ATOM      8  C   UNL     1       2.248   5.642  19.427  0.00  0.00    +0.000 A 
ATOM      9  C   UNL     1       2.851   6.055  18.232  0.00  0.00    +0.000 A 
ATOM     10  C   UNL     1       2.839   7.396  17.836  0.00  0.00    +0.000 A 
ATOM     11  C   UNL     1       2.240   8.364  18.643  0.00  0.00    +0.000 A 
BRANCH   8  12
ATOM     12  C   UNL     1       2.295   4.207  19.939  0.00  0.00    +0.000 C 
ATOM     13  C   UNL     1       2.270   4.187  21.472  0.00  0.00    +0.000 C 
ATOM     14  C   UNL     1       1.182   3.297  19.399  0.00  0.00    +0.000 C 
ENDBRANCH   8  12
BRANCH   9  15
ATOM     15  O   UNL     1       3.495   5.208  17.374  0.00  0.00    +0.000 OA
ATOM     16  H   UNL     1       2.938   4.441  17.181  0.00  0.00    +0.000 HD
ENDBRANCH   9  15
BRANCH  11  17
ATOM     17  O   UNL     1       2.268   9.673  18.245  0.00  0.00    +0.000 OA
ATOM     18  H   UNL     1       2.594  10.222  18.975  0.00  0.00    +0.000 HD
ENDBRANCH  11  17
ENDBRANCH   4   6
BRANCH   5  19
ATOM     19  C   UNL     1      -0.378  10.636  19.422  0.00  0.00    +0.000 A 
ATOM     20  C   UNL     1      -1.524  10.132  18.764  0.00  0.00    +0.000 A 
ATOM     21  C   UNL     1      -1.748  10.993  17.719  0.00  0.00    +0.000 A 
ATOM     22  N   UNL     1      -0.777  11.946  17.807  0.00  0.00    +0.000 N 
ATOM     23  N   UNL     1       0.059  11.760  18.839  0.00  0.00    +0.000 NA
ATOM     24  H   UNL     1      -0.632  12.752  17.212  0.00  0.00    +0.000 HD
ENDBRANCH   5  19
BRANCH   1  26
ATOM     25  N   UNL     1      -1.940  11.453  22.897  0.00  0.00    +0.000 N 
ATOM     26  C   UNL     1      -0.679  11.769  22.428  0.00  0.00    +0.000 C 
ATOM     27  O   UNL     1      -0.243  12.916  22.443  0.00  0.00    +0.000 OA
ATOM     28  H   UNL     1      -2.257  10.497  22.766  0.00  0.00    +0.000 HD
BRANCH  25  30
ATOM     29  C   UNL     1      -3.996  12.746  22.574  0.00  0.00    +0.000 C 
ATOM     30  C   UNL     1      -2.812  12.447  23.473  0.00  0.00    +0.000 C 
ENDBRANCH  25  30
ENDBRANCH   1  26
TORSDOF 7
ENDMDL
MODEL 8
REMARK VINA RESULT:      -7.1      2.208      4.260
REMARK  Name = 
REMARK  10 active torsions:
REMARK  status: ('A' for Active; 'I' for Inactive)
REMARK    1  A    between atoms: C_1  and  C_2
REMARK    2  A    between atoms: C_2  and  N_3
REMARK    3  A    between atoms: C_4  and  C_6
REMARK    4  A    between atoms: C_9  and  C_10
REMARK    5  A    between atoms: C_12  and  C_13
REMARK    6  A    between atoms: C_13  and  C_14
REMARK    7  A    between atoms: C_13  and  C_15
REMARK    8  A    between atoms: C_16  and  O_17
REMARK    9  A    between atoms: C_19  and  O_20
REMARK   10  A    between atoms: C_21  and  C_22
REMARK                            x       y       z     vdW  Elec       q    Type
REMARK                         _______ _______ _______ _____ _____    ______ ____
ROOT
ATOM      1  C   UNL     1       5.579   4.645  15.407  0.00  0.00    +0.000 A 
ATOM      2  N   UNL     1       4.451   3.948  15.173  0.00  0.00    +0.000 NA
ATOM      3  O   UNL     1       3.614   4.205  16.244  0.00  0.00    +0.000 OA
ATOM      4  C   UNL     1       4.208   5.083  17.106  0.00  0.00    +0.000 A 
ATOM      5  C   UNL     1       5.453   5.411  16.601  0.00  0.00    +0.000 A 
ENDROOT
BRANCH   4   6
ATOM      6  C   UNL     1       3.388   5.511  18.244  0.00  0.00    +0.000 A 
ATOM      7  C   UNL     1       2.805   4.536  19.077  0.00  0.00    +0.000 A 
ATOM      8  C   UNL     1       1.952   4.847  20.156  0.00  0.00    +0.000 A 
ATOM      9  C   UNL     1       1.715   6.206  20.400  0.00  0.00    +0.000 A 
ATOM     10  C   UNL     1       2.306   7.199  19.613  0.00  0.00    +0.000 A 
ATOM     11  C   UNL     1       3.134   6.853  18.544  0.00  0.00    +0.000 A 
BRANCH   8  12
ATOM     12  C   UNL     1       1.277   3.724  20.936  0.00  0.00    +0.000 C 
ATOM     13  C   UNL     1       0.640   2.715  19.975  0.00  0.00    +0.000 C 
ATOM     14  C   UNL     1       2.198   2.983  21.918  0.00  0.00    +0.000 C 
ENDBRANCH   8  12
BRANCH   9  15
ATOM     15  O   UNL     1       0.901   6.670  21.395  0.00  0.00    +0.000 OA
ATOM     16  H   UNL     1       1.412   6.815  22.203  0.00  0.00    +0.000 HD
ENDBRANCH   9  15
BRANCH  11  17
ATOM     17  O   UNL     1       3.677   7.846  17.773  0.00  0.00    +0.000 OA
ATOM     18  H   UNL     1       2.967   8.302  17.295  0.00  0.00    +0.000 HD
ENDBRANCH  11  17
ENDBRANCH   4   6
BRANCH   5  19
ATOM     19  C   UNL     1       6.424   6.362  17.141  0.00  0.00    +0.000 A 
ATOM     20  C   UNL     1       7.410   6.074  18.112  0.00  0.00    +0.000 A 
ATOM     21  C   UNL     1       8.125   7.237  18.257  0.00  0.00    +0.000 A 
ATOM     22  N   UNL     1       7.570   8.126  17.384  0.00  0.00    +0.000 N 
ATOM     23  N   UNL     1       6.545   7.616  16.686  0.00  0.00    +0.000 NA
ATOM     24  H   UNL     1       7.844   9.084  17.204  0.00  0.00    +0.000 HD
ENDBRANCH   5  19
BRANCH   1  26
ATOM     25  N   UNL     1       6.433   3.870  13.311  0.00  0.00    +0.000 N 
ATOM     26  C   UNL     1       6.705   4.573  14.471  0.00  0.00    +0.000 C 
ATOM     27  O   UNL     1       7.787   5.115  14.669  0.00  0.00    +0.000 OA
ATOM     28  H   UNL     1       5.546   3.376  13.266  0.00  0.00    +0.000 HD
BRANCH  25  30
ATOM     29  C   UNL     1       7.173   2.515  11.409  0.00  0.00    +0.000 C 
ATOM     30  C   UNL     1       7.393   3.764  12.240  0.00  0.00    +0.000 C 
ENDBRANCH  25  30
ENDBRANCH   1  26
TORSDOF 7
ENDMDL
MODEL 9
REMARK VINA RESULT:      -7.1      1.612      2.936
REMARK  Name = 
REMARK  10 active torsions:
REMARK  status: ('A' for Active; 'I' for Inactive)
REMARK    1  A    between atoms: C_1  and  C_2
REMARK    2  A    between atoms: C_2  and  N_3
REMARK    3  A    between atoms: C_4  and  C_6
REMARK    4  A    between atoms: C_9  and  C_10
REMARK    5  A    between atoms: C_12  and  C_13
REMARK    6  A    between atoms: C_13  and  C_14
REMARK    7  A    between atoms: C_13  and  C_15
REMARK    8  A    between atoms: C_16  and  O_17
REMARK    9  A    between atoms: C_19  and  O_20
REMARK   10  A    between atoms: C_21  and  C_22
REMARK                            x       y       z     vdW  Elec       q    Type
REMARK                         _______ _______ _______ _____ _____    ______ ____
ROOT
ATOM      1  C   UNL     1       5.187   4.491  15.951  0.00  0.00    +0.000 A 
ATOM      2  N   UNL     1       4.022   3.821  15.865  0.00  0.00    +0.000 NA
ATOM      3  O   UNL     1       3.238   4.283  16.907  0.00  0.00    +0.000 OA
ATOM      4  C   UNL     1       3.900   5.257  17.599  0.00  0.00    +0.000 A 
ATOM      5  C   UNL     1       5.139   5.441  17.011  0.00  0.00    +0.000 A 
ENDROOT
BRANCH   4   6
ATOM      6  C   UNL     1       3.143   5.898  18.678  0.00  0.00    +0.000 A 
ATOM      7  C   UNL     1       2.670   7.212  18.501  0.00  0.00    +0.000 A 
ATOM      8  C   UNL     1       1.987   7.934  19.503  0.00  0.00    +0.000 A 
ATOM      9  C   UNL     1       1.763   7.268  20.715  0.00  0.00    +0.000 A 
ATOM     10  C   UNL     1       2.190   5.951  20.911  0.00  0.00    +0.000 A 
ATOM     11  C   UNL     1       2.875   5.274  19.901  0.00  0.00    +0.000 A 
BRANCH   8  12
ATOM     12  C   UNL     1       1.607   9.390  19.262  0.00  0.00    +0.000 C 
ATOM     13  C   UNL     1       1.932   9.794  17.820  0.00  0.00    +0.000 C 
ATOM     14  C   UNL     1       0.141   9.729  19.570  0.00  0.00    +0.000 C 
ENDBRANCH   8  12
BRANCH   9  15
ATOM     15  O   UNL     1       1.133   7.834  21.788  0.00  0.00    +0.000 OA
ATOM     16  H   UNL     1       0.705   7.150  22.321  0.00  0.00    +0.000 HD
ENDBRANCH   9  15
BRANCH  11  17
ATOM     17  O   UNL     1       3.306   3.995  20.131  0.00  0.00    +0.000 OA
ATOM     18  H   UNL     1       2.889   3.398  19.491  0.00  0.00    +0.000 HD
ENDBRANCH  11  17
ENDBRANCH   4   6
BRANCH   5  19
ATOM     19  C   UNL     1       6.169   6.417  17.363  0.00  0.00    +0.000 A 
ATOM     20  C   UNL     1       7.201   6.224  18.309  0.00  0.00    +0.000 A 
ATOM     21  C   UNL     1       7.959   7.367  18.254  0.00  0.00    +0.000 A 
ATOM     22  N   UNL     1       7.380   8.152  17.301  0.00  0.00    +0.000 N 
ATOM     23  N   UNL     1       6.301   7.594  16.736  0.00  0.00    +0.000 NA
ATOM     24  H   UNL     1       7.673   9.067  16.978  0.00  0.00    +0.000 HD
ENDBRANCH   5  19
BRANCH   1  26
ATOM     25  N   UNL     1       5.846   3.901  13.728  0.00  0.00    +0.000 N 
ATOM     26  C   UNL     1       6.273   4.217  15.005  0.00  0.00    +0.000 C 
ATOM     27  O   UNL     1       7.462   4.295  15.297  0.00  0.00    +0.000 OA
ATOM     28  H   UNL     1       4.848   3.768  13.593  0.00  0.00    +0.000 HD
BRANCH  25  30
ATOM     29  C   UNL     1       6.281   2.611  11.691  0.00  0.00    +0.000 C 
ATOM     30  C   UNL     1       6.774   3.681  12.646  0.00  0.00    +0.000 C 
ENDBRANCH  25  30
ENDBRANCH   1  26
TORSDOF 7
ENDMDL
