MODEL 1
REMARK VINA RESULT:      -6.4      0.000      0.000
REMARK  Name = 
REMARK  8 active torsions:
REMARK  status: ('A' for Active; 'I' for Inactive)
REMARK    1  A    between atoms: C_1  and  C_2
REMARK    2  A    between atoms: C_2  and  C_3
REMARK    3  A    between atoms: C_3  and  C_4
REMARK    4  A    between atoms: C_4  and  C_10
REMARK    5  A    between atoms: N_5  and  N_6
REMARK    6  A    between atoms: N_6  and  C_7
REMARK    7  A    between atoms: C_7  and  N_8
REMARK    8  A    between atoms: C_13  and  C_14
REMARK                            x       y       z     vdW  Elec       q    Type
REMARK                         _______ _______ _______ _____ _____    ______ ____
ROOT
ATOM      1  C   UNL     1       5.697   5.307  16.779  0.00  0.00    +0.000 C 
ATOM      2  N   UNL     1       5.858   6.549  17.148  0.00  0.00    +0.000 NA
ENDROOT
BRANCH   1   3
ATOM      3  C   UNL     1       4.424   4.617  17.204  0.00  0.00    +0.000 A 
ATOM      4  C   UNL     1       3.363   5.406  17.672  0.00  0.00    +0.000 A 
ATOM      5  C   UNL     1       2.185   4.817  18.144  0.00  0.00    +0.000 A 
ATOM      6  C   UNL     1       2.045   3.426  18.156  0.00  0.00    +0.000 A 
ATOM      7  C   UNL     1       0.796   2.780  18.683  0.00  0.00    +0.000 C 
ATOM      8  C   UNL     1       3.093   2.637  17.668  0.00  0.00    +0.000 A 
ATOM      9  C   UNL     1       4.274   3.226  17.190  0.00  0.00    +0.000 A 
ENDBRANCH   1   3
BRANCH   2  10
ATOM     10  N   UNL     1       7.047   7.166  16.898  0.00  0.00    +0.000 N 
ATOM     11  H   UNL     1       7.427   7.209  15.962  0.00  0.00    +0.000 HD
BRANCH  10  12
ATOM     12  C   UNL     1       7.820   7.677  17.901  0.00  0.00    +0.000 C 
ATOM     13  S   UNL     1       8.259   9.276  17.940  0.00  0.00    +0.000 S 
BRANCH  12  14
ATOM     14  N   UNL     1       8.203   6.804  18.859  0.00  0.00    +0.000 N 
ATOM     15  H   UNL     1       7.868   5.853  18.779  0.00  0.00    +0.000 HD
ATOM     16  H   UNL     1       8.867   7.066  19.573  0.00  0.00    +0.000 HD
ENDBRANCH  12  14
ENDBRANCH  10  12
ENDBRANCH   2  10
BRANCH   1  17
ATOM     17  C   UNL     1       6.750   4.484  16.025  0.00  0.00    +0.000 C 
BRANCH  17  19
ATOM     18  C   UNL     1       5.804   3.909  13.717  0.00  0.00    +0.000 C 
ATOM     19  C   UNL     1       6.817   4.713  14.512  0.00  0.00    +0.000 C 
ENDBRANCH  17  19
ENDBRANCH   1  17
TORSDOF 6
ENDMDL
MODEL 2
REMARK VINA RESULT:      -6.3      2.595      3.511
REMARK  Name = 
REMARK  8 active torsions:
REMARK  status: ('A' for Active; 'I' for Inactive)
REMARK    1  A    between atoms: C_1  and  C_2
REMARK    2  A    between atoms: C_2  and  C_3
REMARK    3  A    between atoms: C_3  and  C_4
REMARK    4  A    between atoms: C_4  and  C_10
REMARK    5  A    between atoms: N_5  and  N_6
REMARK    6  A    between atoms: N_6  and  C_7
REMARK    7  A    between atoms: C_7  and  N_8
REMARK    8  A    between atoms: C_13  and  C_14
REMARK                            x       y       z     vdW  Elec       q    Type
REMARK                         _______ _______ _______ _____ _____    ______ ____
ROOT
ATOM      1  C   UNL     1       5.895   4.683  17.229  0.00  0.00    +0.000 C 
ATOM      2  N   UNL     1       5.748   5.044  15.982  0.00  0.00    +0.000 NA
ENDROOT
BRANCH   1   3
ATOM      3  C   UNL     1       4.643   4.387  18.018  0.00  0.00    +0.000 A 
ATOM      4  C   UNL     1       3.430   4.934  17.572  0.00  0.00    +0.000 A 
ATOM      5  C   UNL     1       2.250   4.751  18.301  0.00  0.00    +0.000 A 
ATOM      6  C   UNL     1       2.260   4.015  19.489  0.00  0.00    +0.000 A 
ATOM      7  C   UNL     1       1.005   3.832  20.294  0.00  0.00    +0.000 C 
ATOM      8  C   UNL     1       3.464   3.449  19.925  0.00  0.00    +0.000 A 
ATOM      9  C   UNL     1       4.648   3.628  19.193  0.00  0.00    +0.000 A 
ENDBRANCH   1   3
BRANCH   2  10
ATOM     10  N   UNL     1       6.841   5.446  15.276  0.00  0.00    +0.000 N 
ATOM     11  H   UNL     1       7.476   6.142  15.644  0.00  0.00    +0.000 HD
BRANCH  10  12
ATOM     12  C   UNL     1       7.087   4.997  14.010  0.00  0.00    +0.000 C 
ATOM     13  S   UNL     1       6.215   3.758  13.334  0.00  0.00    +0.000 S 
BRANCH  12  14
ATOM     14  N   UNL     1       8.082   5.622  13.342  0.00  0.00    +0.000 N 
ATOM     15  H   UNL     1       7.966   6.609  13.156  0.00  0.00    +0.000 HD
ATOM     16  H   UNL     1       8.944   5.146  13.118  0.00  0.00    +0.000 HD
ENDBRANCH  12  14
ENDBRANCH  10  12
ENDBRANCH   2  10
BRANCH   1  17
ATOM     17  C   UNL     1       7.242   4.630  17.962  0.00  0.00    +0.000 C 
BRANCH  17  19
ATOM     18  C   UNL     1       7.846   7.106  18.206  0.00  0.00    +0.000 C 
ATOM     19  C   UNL     1       7.530   5.798  18.911  0.00  0.00    +0.000 C 
ENDBRANCH  17  19
ENDBRANCH   1  17
TORSDOF 6
ENDMDL
MODEL 3
REMARK VINA RESULT:      -6.3      2.496      3.528
REMARK  Name = 
REMARK  8 active torsions:
REMARK  status: ('A' for Active; 'I' for Inactive)
REMARK    1  A    between atoms: C_1  and  C_2
REMARK    2  A    between atoms: C_2  and  C_3
REMARK    3  A    between atoms: C_3  and  C_4
REMARK    4  A    between atoms: C_4  and  C_10
REMARK    5  A    between atoms: N_5  and  N_6
REMARK    6  A    between atoms: N_6  and  C_7
REMARK    7  A    between atoms: C_7  and  N_8
REMARK    8  A    between atoms: C_13  and  C_14
REMARK                            x       y       z     vdW  Elec       q    Type
REMARK                         _______ _______ _______ _____ _____    ______ ____
ROOT
ATOM      1  C   UNL     1       5.708   5.273  17.183  0.00  0.00    +0.000 C 
ATOM      2  N   UNL     1       6.327   4.349  16.499  0.00  0.00    +0.000 NA
ENDROOT
BRANCH   1   3
ATOM      3  C   UNL     1       4.455   4.869  17.920  0.00  0.00    +0.000 A 
ATOM      4  C   UNL     1       4.295   5.299  19.246  0.00  0.00    +0.000 A 
ATOM      5  C   UNL     1       3.187   4.898  20.001  0.00  0.00    +0.000 A 
ATOM      6  C   UNL     1       2.217   4.060  19.443  0.00  0.00    +0.000 A 
ATOM      7  C   UNL     1       1.037   3.602  20.250  0.00  0.00    +0.000 C 
ATOM      8  C   UNL     1       2.363   3.648  18.114  0.00  0.00    +0.000 A 
ATOM      9  C   UNL     1       3.471   4.053  17.353  0.00  0.00    +0.000 A 
ENDBRANCH   1   3
BRANCH   2  10
ATOM     10  N   UNL     1       7.384   4.700  15.716  0.00  0.00    +0.000 N 
ATOM     11  H   UNL     1       8.260   5.004  16.123  0.00  0.00    +0.000 HD
BRANCH  10  12
ATOM     12  C   UNL     1       7.291   4.742  14.354  0.00  0.00    +0.000 C 
ATOM     13  S   UNL     1       6.210   3.799  13.520  0.00  0.00    +0.000 S 
BRANCH  12  14
ATOM     14  N   UNL     1       8.131   5.596  13.728  0.00  0.00    +0.000 N 
ATOM     15  H   UNL     1       8.287   6.495  14.165  0.00  0.00    +0.000 HD
ATOM     16  H   UNL     1       8.649   5.317  12.908  0.00  0.00    +0.000 HD
ENDBRANCH  12  14
ENDBRANCH  10  12
ENDBRANCH   2  10
BRANCH   1  17
ATOM     17  C   UNL     1       6.118   6.752  17.209  0.00  0.00    +0.000 C 
BRANCH  17  19
ATOM     18  C   UNL     1       7.981   8.438  17.694  0.00  0.00    +0.000 C 
ATOM     19  C   UNL     1       7.380   7.080  18.011  0.00  0.00    +0.000 C 
ENDBRANCH  17  19
ENDBRANCH   1  17
TORSDOF 6
ENDMDL
MODEL 4
REMARK VINA RESULT:      -6.2      0.521      1.310
REMARK  Name = 
REMARK  8 active torsions:
REMARK  status: ('A' for Active; 'I' for Inactive)
REMARK    1  A    between atoms: C_1  and  C_2
REMARK    2  A    between atoms: C_2  and  C_3
REMARK    3  A    between atoms: C_3  and  C_4
REMARK    4  A    between atoms: C_4  and  C_10
REMARK    5  A    between atoms: N_5  and  N_6
REMARK    6  A    between atoms: N_6  and  C_7
REMARK    7  A    between atoms: C_7  and  N_8
REMARK    8  A    between atoms: C_13  and  C_14
REMARK                            x       y       z     vdW  Elec       q    Type
REMARK                         _______ _______ _______ _____ _____    ______ ____
ROOT
ATOM      1  C   UNL     1       5.216   5.330  16.817  0.00  0.00    +0.000 C 
ATOM      2  N   UNL     1       5.470   6.521  17.290  0.00  0.00    +0.000 NA
ENDROOT
BRANCH   1   3
ATOM      3  C   UNL     1       4.030   4.595  17.391  0.00  0.00    +0.000 A 
ATOM      4  C   UNL     1       4.041   3.191  17.366  0.00  0.00    +0.000 A 
ATOM      5  C   UNL     1       2.940   2.458  17.822  0.00  0.00    +0.000 A 
ATOM      6  C   UNL     1       1.807   3.114  18.312  0.00  0.00    +0.000 A 
ATOM      7  C   UNL     1       0.609   2.339  18.780  0.00  0.00    +0.000 C 
ATOM      8  C   UNL     1       1.802   4.512  18.359  0.00  0.00    +0.000 A 
ATOM      9  C   UNL     1       2.908   5.251  17.907  0.00  0.00    +0.000 A 
ENDBRANCH   1   3
BRANCH   2  10
ATOM     10  N   UNL     1       6.604   7.162  16.894  0.00  0.00    +0.000 N 
ATOM     11  H   UNL     1       6.799   7.324  15.914  0.00  0.00    +0.000 HD
BRANCH  10  12
ATOM     12  C   UNL     1       7.568   7.541  17.784  0.00  0.00    +0.000 C 
ATOM     13  S   UNL     1       8.140   9.097  17.846  0.00  0.00    +0.000 S 
BRANCH  12  14
ATOM     14  N   UNL     1       8.024   6.575  18.611  0.00  0.00    +0.000 N 
ATOM     15  H   UNL     1       8.981   6.273  18.487  0.00  0.00    +0.000 HD
ATOM     16  H   UNL     1       7.463   6.231  19.377  0.00  0.00    +0.000 HD
ENDBRANCH  12  14
ENDBRANCH  10  12
ENDBRANCH   2  10
BRANCH   1  17
ATOM     17  C   UNL     1       6.092   4.601  15.790  0.00  0.00    +0.000 C 
BRANCH  17  19
ATOM     18  C   UNL     1       6.172   3.673  13.405  0.00  0.00    +0.000 C 
ATOM     19  C   UNL     1       5.692   4.784  14.323  0.00  0.00    +0.000 C 
ENDBRANCH  17  19
ENDBRANCH   1  17
TORSDOF 6
ENDMDL
MODEL 5
REMARK VINA RESULT:      -6.2      2.544      3.694
REMARK  Name = 
REMARK  8 active torsions:
REMARK  status: ('A' for Active; 'I' for Inactive)
REMARK    1  A    between atoms: C_1  and  C_2
REMARK    2  A    between atoms: C_2  and  C_3
REMARK    3  A    between atoms: C_3  and  C_4
REMARK    4  A    between atoms: C_4  and  C_10
REMARK    5  A    between atoms: N_5  and  N_6
REMARK    6  A    between atoms: N_6  and  C_7
REMARK    7  A    between atoms: C_7  and  N_8
REMARK    8  A    between atoms: C_13  and  C_14
REMARK                            x       y       z     vdW  Elec       q    Type
REMARK                         _______ _______ _______ _____ _____    ______ ____
ROOT
ATOM      1  C   UNL     1       5.793   5.595  17.090  0.00  0.00    +0.000 C 
ATOM      2  N   UNL     1       6.200   4.801  16.137  0.00  0.00    +0.000 NA
ENDROOT
BRANCH   1   3
ATOM      3  C   UNL     1       4.560   5.183  17.857  0.00  0.00    +0.000 A 
ATOM      4  C   UNL     1       4.649   4.079  18.718  0.00  0.00    +0.000 A 
ATOM      5  C   UNL     1       3.522   3.611  19.402  0.00  0.00    +0.000 A 
ATOM      6  C   UNL     1       2.283   4.237  19.237  0.00  0.00    +0.000 A 
ATOM      7  C   UNL     1       1.061   3.728  19.946  0.00  0.00    +0.000 C 
ATOM      8  C   UNL     1       2.196   5.353  18.396  0.00  0.00    +0.000 A 
ATOM      9  C   UNL     1       3.327   5.828  17.713  0.00  0.00    +0.000 A 
ENDBRANCH   1   3
BRANCH   2  10
ATOM     10  N   UNL     1       7.228   5.199  15.337  0.00  0.00    +0.000 N 
ATOM     11  H   UNL     1       7.989   5.757  15.702  0.00  0.00    +0.000 HD
BRANCH  10  12
ATOM     12  C   UNL     1       7.242   4.939  13.996  0.00  0.00    +0.000 C 
ATOM     13  S   UNL     1       6.215   3.834  13.307  0.00  0.00    +0.000 S 
BRANCH  12  14
ATOM     14  N   UNL     1       8.141   5.637  13.267  0.00  0.00    +0.000 N 
ATOM     15  H   UNL     1       8.350   6.579  13.568  0.00  0.00    +0.000 HD
ATOM     16  H   UNL     1       8.648   5.207  12.508  0.00  0.00    +0.000 HD
ENDBRANCH  12  14
ENDBRANCH  10  12
ENDBRANCH   2  10
BRANCH   1  17
ATOM     17  C   UNL     1       6.428   6.953  17.417  0.00  0.00    +0.000 C 
BRANCH  17  19
ATOM     18  C   UNL     1       7.843   5.839  19.237  0.00  0.00    +0.000 C 
ATOM     19  C   UNL     1       7.770   6.901  18.153  0.00  0.00    +0.000 C 
ENDBRANCH  17  19
ENDBRANCH   1  17
TORSDOF 6
ENDMDL
MODEL 6
REMARK VINA RESULT:      -6.1      2.637      3.454
REMARK  Name = 
REMARK  8 active torsions:
REMARK  status: ('A' for Active; 'I' for Inactive)
REMARK    1  A    between atoms: C_1  and  C_2
REMARK    2  A    between atoms: C_2  and  C_3
REMARK    3  A    between atoms: C_3  and  C_4
REMARK    4  A    between atoms: C_4  and  C_10
REMARK    5  A    between atoms: N_5  and  N_6
REMARK    6  A    between atoms: N_6  and  C_7
REMARK    7  A    between atoms: C_7  and  N_8
REMARK    8  A    between atoms: C_13  and  C_14
REMARK                            x       y       z     vdW  Elec       q    Type
REMARK                         _______ _______ _______ _____ _____    ______ ____
ROOT
ATOM      1  C   UNL     1       5.080   5.604  17.013  0.00  0.00    +0.000 C 
ATOM      2  N   UNL     1       5.016   5.197  15.773  0.00  0.00    +0.000 NA
ENDROOT
BRANCH   1   3
ATOM      3  C   UNL     1       4.054   5.060  17.975  0.00  0.00    +0.000 A 
ATOM      4  C   UNL     1       3.118   4.130  17.496  0.00  0.00    +0.000 A 
ATOM      5  C   UNL     1       2.102   3.643  18.325  0.00  0.00    +0.000 A 
ATOM      6  C   UNL     1       2.002   4.076  19.650  0.00  0.00    +0.000 A 
ATOM      7  C   UNL     1       0.901   3.580  20.543  0.00  0.00    +0.000 C 
ATOM      8  C   UNL     1       2.947   4.986  20.138  0.00  0.00    +0.000 A 
ATOM      9  C   UNL     1       3.971   5.472  19.309  0.00  0.00    +0.000 A 
ENDBRANCH   1   3
BRANCH   2  10
ATOM     10  N   UNL     1       5.838   5.763  14.847  0.00  0.00    +0.000 N 
ATOM     11  H   UNL     1       5.769   6.746  14.616  0.00  0.00    +0.000 HD
BRANCH  10  12
ATOM     12  C   UNL     1       6.732   5.024  14.127  0.00  0.00    +0.000 C 
ATOM     13  S   UNL     1       6.261   3.715  13.224  0.00  0.00    +0.000 S 
BRANCH  12  14
ATOM     14  N   UNL     1       8.022   5.423  14.194  0.00  0.00    +0.000 N 
ATOM     15  H   UNL     1       8.338   5.823  15.067  0.00  0.00    +0.000 HD
ATOM     16  H   UNL     1       8.666   5.248  13.437  0.00  0.00    +0.000 HD
ENDBRANCH  12  14
ENDBRANCH  10  12
ENDBRANCH   2  10
BRANCH   1  17
ATOM     17  C   UNL     1       6.065   6.662  17.527  0.00  0.00    +0.000 C 
BRANCH  17  19
ATOM     18  C   UNL     1       7.626   4.650  17.794  0.00  0.00    +0.000 C 
ATOM     19  C   UNL     1       7.396   6.127  18.063  0.00  0.00    +0.000 C 
ENDBRANCH  17  19
ENDBRANCH   1  17
TORSDOF 6
ENDMDL
MODEL 7
REMARK VINA RESULT:      -6.1      2.640      3.682
REMARK  Name = 
REMARK  8 active torsions:
REMARK  status: ('A' for Active; 'I' for Inactive)
REMARK    1  A    between atoms: C_1  and  C_2
REMARK    2  A    between atoms: C_2  and  C_3
REMARK    3  A    between atoms: C_3  and  C_4
REMARK    4  A    between atoms: C_4  and  C_10
REMARK    5  A    between atoms: N_5  and  N_6
REMARK    6  A    between atoms: N_6  and  C_7
REMARK    7  A    between atoms: C_7  and  N_8
REMARK    8  A    between atoms: C_13  and  C_14
REMARK                            x       y       z     vdW  Elec       q    Type
REMARK                         _______ _______ _______ _____ _____    ______ ____
ROOT
ATOM      1  C   UNL     1       5.254   5.012  16.653  0.00  0.00    +0.000 C 
ATOM      2  N   UNL     1       5.402   4.849  15.365  0.00  0.00    +0.000 NA
ENDROOT
BRANCH   1   3
ATOM      3  C   UNL     1       4.047   4.377  17.298  0.00  0.00    +0.000 A 
ATOM      4  C   UNL     1       4.008   2.978  17.405  0.00  0.00    +0.000 A 
ATOM      5  C   UNL     1       2.885   2.331  17.932  0.00  0.00    +0.000 A 
ATOM      6  C   UNL     1       1.780   3.070  18.364  0.00  0.00    +0.000 A 
ATOM      7  C   UNL     1       0.559   2.386  18.908  0.00  0.00    +0.000 C 
ATOM      8  C   UNL     1       1.826   4.466  18.280  0.00  0.00    +0.000 A 
ATOM      9  C   UNL     1       2.953   5.118  17.756  0.00  0.00    +0.000 A 
ENDBRANCH   1   3
BRANCH   2  10
ATOM     10  N   UNL     1       6.403   5.513  14.724  0.00  0.00    +0.000 N 
ATOM     11  H   UNL     1       6.660   6.455  14.989  0.00  0.00    +0.000 HD
BRANCH  10  12
ATOM     12  C   UNL     1       7.047   4.980  13.644  0.00  0.00    +0.000 C 
ATOM     13  S   UNL     1       6.422   3.700  12.795  0.00  0.00    +0.000 S 
BRANCH  12  14
ATOM     14  N   UNL     1       8.222   5.559  13.310  0.00  0.00    +0.000 N 
ATOM     15  H   UNL     1       8.593   6.253  13.944  0.00  0.00    +0.000 HD
ATOM     16  H   UNL     1       8.751   5.249  12.508  0.00  0.00    +0.000 HD
ENDBRANCH  12  14
ENDBRANCH  10  12
ENDBRANCH   2  10
BRANCH   1  17
ATOM     17  C   UNL     1       6.171   5.878  17.527  0.00  0.00    +0.000 C 
BRANCH  17  19
ATOM     18  C   UNL     1       7.881   5.760  19.428  0.00  0.00    +0.000 C 
ATOM     19  C   UNL     1       7.393   5.168  18.117  0.00  0.00    +0.000 C 
ENDBRANCH  17  19
ENDBRANCH   1  17
TORSDOF 6
ENDMDL
MODEL 8
REMARK VINA RESULT:      -6.1      3.706      5.796
REMARK  Name = 
REMARK  8 active torsions:
REMARK  status: ('A' for Active; 'I' for Inactive)
REMARK    1  A    between atoms: C_1  and  C_2
REMARK    2  A    between atoms: C_2  and  C_3
REMARK    3  A    between atoms: C_3  and  C_4
REMARK    4  A    between atoms: C_4  and  C_10
REMARK    5  A    between atoms: N_5  and  N_6
REMARK    6  A    between atoms: N_6  and  C_7
REMARK    7  A    between atoms: C_7  and  N_8
REMARK    8  A    between atoms: C_13  and  C_14
REMARK                            x       y       z     vdW  Elec       q    Type
REMARK                         _______ _______ _______ _____ _____    ______ ____
ROOT
ATOM      1  C   UNL     1       2.804   5.935  19.563  0.00  0.00    +0.000 C 
ATOM      2  N   UNL     1       2.401   7.156  19.791  0.00  0.00    +0.000 NA
ENDROOT
BRANCH   1   3
ATOM      3  C   UNL     1       3.566   5.683  18.285  0.00  0.00    +0.000 A 
ATOM      4  C   UNL     1       3.735   4.356  17.861  0.00  0.00    +0.000 A 
ATOM      5  C   UNL     1       4.490   4.059  16.721  0.00  0.00    +0.000 A 
ATOM      6  C   UNL     1       5.090   5.083  15.983  0.00  0.00    +0.000 A 
ATOM      7  C   UNL     1       5.924   4.775  14.772  0.00  0.00    +0.000 C 
ATOM      8  C   UNL     1       4.904   6.409  16.391  0.00  0.00    +0.000 A 
ATOM      9  C   UNL     1       4.143   6.710  17.531  0.00  0.00    +0.000 A 
ENDBRANCH   1   3
BRANCH   2  10
ATOM     10  N   UNL     1       1.600   7.399  20.865  0.00  0.00    +0.000 N 
ATOM     11  H   UNL     1       1.169   6.642  21.380  0.00  0.00    +0.000 HD
BRANCH  10  12
ATOM     12  C   UNL     1       1.271   8.668  21.248  0.00  0.00    +0.000 C 
ATOM     13  S   UNL     1       0.442   9.699  20.246  0.00  0.00    +0.000 S 
BRANCH  12  14
ATOM     14  N   UNL     1       1.660   9.033  22.490  0.00  0.00    +0.000 N 
ATOM     15  H   UNL     1       1.059   9.670  22.994  0.00  0.00    +0.000 HD
ATOM     16  H   UNL     1       2.467   8.617  22.930  0.00  0.00    +0.000 HD
ENDBRANCH  12  14
ENDBRANCH  10  12
ENDBRANCH   2  10
BRANCH   1  17
ATOM     17  C   UNL     1       2.475   4.733  20.458  0.00  0.00    +0.000 C 
BRANCH  17  19
ATOM     18  C   UNL     1       1.015   2.708  19.892  0.00  0.00    +0.000 C 
ATOM     19  C   UNL     1       1.060   4.165  20.318  0.00  0.00    +0.000 C 
ENDBRANCH  17  19
ENDBRANCH   1  17
TORSDOF 6
ENDMDL
MODEL 9
REMARK VINA RESULT:      -6.1      4.071      6.116
REMARK  Name = 
REMARK  8 active torsions:
REMARK  status: ('A' for Active; 'I' for Inactive)
REMARK    1  A    between atoms: C_1  and  C_2
REMARK    2  A    between atoms: C_2  and  C_3
REMARK    3  A    between atoms: C_3  and  C_4
REMARK    4  A    between atoms: C_4  and  C_10
REMARK    5  A    between atoms: N_5  and  N_6
REMARK    6  A    between atoms: N_6  and  C_7
REMARK    7  A    between atoms: C_7  and  N_8
REMARK    8  A    between atoms: C_13  and  C_14
REMARK                            x       y       z     vdW  Elec       q    Type
REMARK                         _______ _______ _______ _____ _____    ______ ____
ROOT
ATOM      1  C   UNL     1       2.821   6.073  19.819  0.00  0.00    +0.000 C 
ATOM      2  N   UNL     1       3.945   5.838  19.196  0.00  0.00    +0.000 NA
ENDROOT
BRANCH   1   3
ATOM      3  C   UNL     1       2.140   7.392  19.549  0.00  0.00    +0.000 A 
ATOM      4  C   UNL     1       2.243   7.943  18.262  0.00  0.00    +0.000 A 
ATOM      5  C   UNL     1       1.690   9.195  17.973  0.00  0.00    +0.000 A 
ATOM      6  C   UNL     1       1.023   9.920  18.964  0.00  0.00    +0.000 A 
ATOM      7  C   UNL     1       0.447  11.276  18.672  0.00  0.00    +0.000 C 
ATOM      8  C   UNL     1       0.898   9.363  20.241  0.00  0.00    +0.000 A 
ATOM      9  C   UNL     1       1.448   8.104  20.533  0.00  0.00    +0.000 A 
ENDBRANCH   1   3
BRANCH   2  10
ATOM     10  N   UNL     1       4.656   4.721  19.511  0.00  0.00    +0.000 N 
ATOM     11  H   UNL     1       5.311   4.717  20.282  0.00  0.00    +0.000 HD
BRANCH  10  12
ATOM     12  C   UNL     1       4.585   3.584  18.757  0.00  0.00    +0.000 C 
ATOM     13  S   UNL     1       4.141   3.617  17.159  0.00  0.00    +0.000 S 
BRANCH  12  14
ATOM     14  N   UNL     1       4.900   2.432  19.391  0.00  0.00    +0.000 N 
ATOM     15  H   UNL     1       5.024   2.474  20.394  0.00  0.00    +0.000 HD
ATOM     16  H   UNL     1       4.922   1.551  18.899  0.00  0.00    +0.000 HD
ENDBRANCH  12  14
ENDBRANCH  10  12
ENDBRANCH   2  10
BRANCH   1  17
ATOM     17  C   UNL     1       2.202   5.141  20.869  0.00  0.00    +0.000 C 
BRANCH  17  19
ATOM     18  C   UNL     1       1.290   2.749  20.847  0.00  0.00    +0.000 C 
ATOM     19  C   UNL     1       1.129   4.177  20.355  0.00  0.00    +0.000 C 
ENDBRANCH  17  19
ENDBRANCH   1  17
TORSDOF 6
ENDMDL
