MODEL 1
REMARK VINA RESULT:      -7.9      0.000      0.000
REMARK  Name = 
REMARK  9 active torsions:
REMARK  status: ('A' for Active; 'I' for Inactive)
REMARK    1  A    between atoms: C_1  and  C_2
REMARK    2  A    between atoms: C_2  and  O_3
REMARK    3  A    between atoms: O_3  and  C_4
REMARK    4  A    between atoms: C_4  and  C_6
REMARK    5  A    between atoms: C_11  and  N_12
REMARK    6  A    between atoms: C_15  and  N_16
REMARK    7  A    between atoms: C_17  and  C_19
REMARK    8  A    between atoms: C_22  and  O_23
REMARK    9  A    between atoms: O_23  and  C_24
REMARK                            x       y       z     vdW  Elec       q    Type
REMARK                         _______ _______ _______ _____ _____    ______ ____
ROOT
ATOM      1  C   UNL     1       2.773   4.395  18.377  0.00  0.00    +0.000 A 
ATOM      2  S   UNL     1       3.656   3.454  17.251  0.00  0.00    +0.000 S 
ATOM      3  C   UNL     1       4.892   4.622  17.095  0.00  0.00    +0.000 A 
ATOM      4  C   UNL     1       6.012   4.531  16.247  0.00  0.00    +0.000 A 
ATOM      5  C   UNL     1       6.957   5.556  16.262  0.00  0.00    +0.000 A 
ATOM      6  C   UNL     1       6.831   6.631  17.131  0.00  0.00    +0.000 A 
ATOM      7  C   UNL     1       5.671   6.739  17.912  0.00  0.00    +0.000 A 
ATOM      8  C   UNL     1       4.669   5.726  17.924  0.00  0.00    +0.000 A 
ATOM      9  C   UNL     1       3.418   5.598  18.659  0.00  0.00    +0.000 A 
ENDROOT
BRANCH   9  10
ATOM     10  N   UNL     1       2.889   6.547  19.560  0.00  0.00    +0.000 N 
ATOM     11  C   UNL     1       2.200   7.659  19.101  0.00  0.00    +0.000 C 
ATOM     12  O   UNL     1       2.017   7.939  17.920  0.00  0.00    +0.000 OA
ATOM     13  H   UNL     1       2.564   6.174  20.449  0.00  0.00    +0.000 HD
BRANCH  11  14
ATOM     14  C   UNL     1       1.526   8.505  20.131  0.00  0.00    +0.000 A 
ATOM     15  C   UNL     1       1.435   8.146  21.479  0.00  0.00    +0.000 A 
ATOM     16  C   UNL     1       0.805   9.014  22.388  0.00  0.00    +0.000 A 
ATOM     17  C   UNL     1       0.279  10.243  21.971  0.00  0.00    +0.000 A 
ATOM     18  C   UNL     1       0.383  10.603  20.629  0.00  0.00    +0.000 A 
ATOM     19  C   UNL     1       1.004   9.741  19.718  0.00  0.00    +0.000 A 
BRANCH  17  20
ATOM     20  O   UNL     1      -0.352  10.971  22.941  0.00  0.00    +0.000 OA
ATOM     21  C   UNL     1      -1.515  11.698  22.554  0.00  0.00    +0.000 C 
ENDBRANCH  17  20
ENDBRANCH  11  14
ENDBRANCH   9  10
BRANCH   6  22
ATOM     22  N   UNL     1       7.737   7.696  17.054  0.00  0.00    +0.000 N 
ATOM     23  H   UNL     1       8.393   7.739  17.826  0.00  0.00    +0.000 HD
ATOM     24  H   UNL     1       7.301   8.592  16.861  0.00  0.00    +0.000 HD
ENDBRANCH   6  22
BRANCH   1  25
ATOM     25  C   UNL     1       1.464   3.891  18.748  0.00  0.00    +0.000 C 
ATOM     26  O   UNL     1       0.647   3.372  18.002  0.00  0.00    +0.000 OA
BRANCH  25  27
ATOM     27  O   UNL     1       1.207   4.179  20.062  0.00  0.00    +0.000 OA
BRANCH  27  29
ATOM     28  C   UNL     1       2.398   2.822  21.623  0.00  0.00    +0.000 C 
ATOM     29  C   UNL     1       1.072   3.029  20.911  0.00  0.00    +0.000 C 
ENDBRANCH  27  29
ENDBRANCH  25  27
ENDBRANCH   1  25
TORSDOF 7
ENDMDL
MODEL 2
REMARK VINA RESULT:      -7.2      3.044      7.502
REMARK  Name = 
REMARK  9 active torsions:
REMARK  status: ('A' for Active; 'I' for Inactive)
REMARK    1  A    between atoms: C_1  and  C_2
REMARK    2  A    between atoms: C_2  and  O_3
REMARK    3  A    between atoms: O_3  and  C_4
REMARK    4  A    between atoms: C_4  and  C_6
REMARK    5  A    between atoms: C_11  and  N_12
REMARK    6  A    between atoms: C_15  and  N_16
REMARK    7  A    between atoms: C_17  and  C_19
REMARK    8  A    between atoms: C_22  and  O_23
REMARK    9  A    between atoms: O_23  and  C_24
REMARK                            x       y       z     vdW  Elec       q    Type
REMARK                         _______ _______ _______ _____ _____    ______ ____
ROOT
ATOM      1  C   UNL     1       3.195   4.758  19.444  0.00  0.00    +0.000 A 
ATOM      2  S   UNL     1       2.411   5.389  20.830  0.00  0.00    +0.000 S 
ATOM      3  C   UNL     1       2.079   6.888  20.081  0.00  0.00    +0.000 A 
ATOM      4  C   UNL     1       1.442   7.988  20.684  0.00  0.00    +0.000 A 
ATOM      5  C   UNL     1       1.208   9.134  19.925  0.00  0.00    +0.000 A 
ATOM      6  C   UNL     1       1.550   9.182  18.580  0.00  0.00    +0.000 A 
ATOM      7  C   UNL     1       2.251   8.103  18.020  0.00  0.00    +0.000 A 
ATOM      8  C   UNL     1       2.527   6.915  18.757  0.00  0.00    +0.000 A 
ATOM      9  C   UNL     1       3.196   5.674  18.393  0.00  0.00    +0.000 A 
ENDROOT
BRANCH   9  10
ATOM     10  N   UNL     1       3.782   5.387  17.141  0.00  0.00    +0.000 N 
ATOM     11  C   UNL     1       5.117   5.671  16.897  0.00  0.00    +0.000 C 
ATOM     12  O   UNL     1       5.883   6.205  17.694  0.00  0.00    +0.000 OA
ATOM     13  H   UNL     1       3.421   4.564  16.666  0.00  0.00    +0.000 HD
BRANCH  11  14
ATOM     14  C   UNL     1       5.688   5.168  15.612  0.00  0.00    +0.000 A 
ATOM     15  C   UNL     1       6.975   5.482  15.170  0.00  0.00    +0.000 A 
ATOM     16  C   UNL     1       7.444   4.944  13.958  0.00  0.00    +0.000 A 
ATOM     17  C   UNL     1       6.648   4.083  13.191  0.00  0.00    +0.000 A 
ATOM     18  C   UNL     1       5.371   3.762  13.643  0.00  0.00    +0.000 A 
ATOM     19  C   UNL     1       4.897   4.298  14.845  0.00  0.00    +0.000 A 
BRANCH  17  20
ATOM     20  O   UNL     1       7.200   3.668  12.011  0.00  0.00    +0.000 OA
ATOM     21  C   UNL     1       6.740   2.429  11.479  0.00  0.00    +0.000 C 
ENDBRANCH  17  20
ENDBRANCH  11  14
ENDBRANCH   9  10
BRANCH   6  22
ATOM     22  N   UNL     1       1.400  10.378  17.867  0.00  0.00    +0.000 N 
ATOM     23  H   UNL     1       0.450  10.563  17.566  0.00  0.00    +0.000 HD
ATOM     24  H   UNL     1       2.078  10.500  17.123  0.00  0.00    +0.000 HD
ENDBRANCH   6  22
BRANCH   1  25
ATOM     25  C   UNL     1       3.846   3.471  19.604  0.00  0.00    +0.000 C 
ATOM     26  O   UNL     1       5.041   3.242  19.489  0.00  0.00    +0.000 OA
BRANCH  25  27
ATOM     27  O   UNL     1       2.908   2.493  19.798  0.00  0.00    +0.000 OA
BRANCH  27  29
ATOM     28  C   UNL     1       0.740   2.312  18.817  0.00  0.00    +0.000 C 
ATOM     29  C   UNL     1       2.226   2.074  18.607  0.00  0.00    +0.000 C 
ENDBRANCH  27  29
ENDBRANCH  25  27
ENDBRANCH   1  25
TORSDOF 7
ENDMDL
MODEL 3
REMARK VINA RESULT:      -7.2      1.080      1.429
REMARK  Name = 
REMARK  9 active torsions:
REMARK  status: ('A' for Active; 'I' for Inactive)
REMARK    1  A    between atoms: C_1  and  C_2
REMARK    2  A    between atoms: C_2  and  O_3
REMARK    3  A    between atoms: O_3  and  C_4
REMARK    4  A    between atoms: C_4  and  C_6
REMARK    5  A    between atoms: C_11  and  N_12
REMARK    6  A    between atoms: C_15  and  N_16
REMARK    7  A    between atoms: C_17  and  C_19
REMARK    8  A    between atoms: C_22  and  O_23
REMARK    9  A    between atoms: O_23  and  C_24
REMARK                            x       y       z     vdW  Elec       q    Type
REMARK                         _______ _______ _______ _____ _____    ______ ____
ROOT
ATOM      1  C   UNL     1       2.930   4.410  17.767  0.00  0.00    +0.000 A 
ATOM      2  S   UNL     1       4.185   3.364  17.251  0.00  0.00    +0.000 S 
ATOM      3  C   UNL     1       5.332   4.626  17.158  0.00  0.00    +0.000 A 
ATOM      4  C   UNL     1       6.669   4.496  16.737  0.00  0.00    +0.000 A 
ATOM      5  C   UNL     1       7.495   5.619  16.754  0.00  0.00    +0.000 A 
ATOM      6  C   UNL     1       7.031   6.841  17.222  0.00  0.00    +0.000 A 
ATOM      7  C   UNL     1       5.676   6.965  17.566  0.00  0.00    +0.000 A 
ATOM      8  C   UNL     1       4.787   5.851  17.553  0.00  0.00    +0.000 A 
ATOM      9  C   UNL     1       3.376   5.724  17.891  0.00  0.00    +0.000 A 
ENDROOT
BRANCH   9  10
ATOM     10  N   UNL     1       2.528   6.775  18.305  0.00  0.00    +0.000 N 
ATOM     11  C   UNL     1       2.235   6.969  19.646  0.00  0.00    +0.000 C 
ATOM     12  O   UNL     1       2.636   6.262  20.566  0.00  0.00    +0.000 OA
ATOM     13  H   UNL     1       2.576   7.622  17.746  0.00  0.00    +0.000 HD
BRANCH  11  14
ATOM     14  C   UNL     1       1.480   8.208  19.997  0.00  0.00    +0.000 A 
ATOM     15  C   UNL     1       1.327   9.287  19.121  0.00  0.00    +0.000 A 
ATOM     16  C   UNL     1       0.576  10.406  19.523  0.00  0.00    +0.000 A 
ATOM     17  C   UNL     1      -0.037  10.455  20.781  0.00  0.00    +0.000 A 
ATOM     18  C   UNL     1       0.107   9.371  21.645  0.00  0.00    +0.000 A 
ATOM     19  C   UNL     1       0.856   8.257  21.254  0.00  0.00    +0.000 A 
BRANCH  17  20
ATOM     20  O   UNL     1      -0.695  11.617  21.069  0.00  0.00    +0.000 OA
ATOM     21  C   UNL     1      -1.008  11.865  22.438  0.00  0.00    +0.000 C 
ENDBRANCH  17  20
ENDBRANCH  11  14
ENDBRANCH   9  10
BRANCH   6  22
ATOM     22  N   UNL     1       7.846   7.975  17.132  0.00  0.00    +0.000 N 
ATOM     23  H   UNL     1       7.828   8.428  16.225  0.00  0.00    +0.000 HD
ATOM     24  H   UNL     1       8.789   7.832  17.479  0.00  0.00    +0.000 HD
ENDBRANCH   6  22
BRANCH   1  25
ATOM     25  C   UNL     1       1.604   3.827  17.856  0.00  0.00    +0.000 C 
ATOM     26  O   UNL     1       0.613   4.179  17.234  0.00  0.00    +0.000 OA
BRANCH  25  27
ATOM     27  O   UNL     1       1.577   2.873  18.838  0.00  0.00    +0.000 OA
BRANCH  27  29
ATOM     28  C   UNL     1       1.749   2.886  21.218  0.00  0.00    +0.000 C 
ATOM     29  C   UNL     1       0.879   3.261  20.030  0.00  0.00    +0.000 C 
ENDBRANCH  27  29
ENDBRANCH  25  27
ENDBRANCH   1  25
TORSDOF 7
ENDMDL
MODEL 4
REMARK VINA RESULT:      -7.2      1.318      1.493
REMARK  Name = 
REMARK  9 active torsions:
REMARK  status: ('A' for Active; 'I' for Inactive)
REMARK    1  A    between atoms: C_1  and  C_2
REMARK    2  A    between atoms: C_2  and  O_3
REMARK    3  A    between atoms: O_3  and  C_4
REMARK    4  A    between atoms: C_4  and  C_6
REMARK    5  A    between atoms: C_11  and  N_12
REMARK    6  A    between atoms: C_15  and  N_16
REMARK    7  A    between atoms: C_17  and  C_19
REMARK    8  A    between atoms: C_22  and  O_23
REMARK    9  A    between atoms: O_23  and  C_24
REMARK                            x       y       z     vdW  Elec       q    Type
REMARK                         _______ _______ _______ _____ _____    ______ ____
ROOT
ATOM      1  C   UNL     1       2.911   4.433  17.874  0.00  0.00    +0.000 A 
ATOM      2  S   UNL     1       4.190   3.352  17.514  0.00  0.00    +0.000 S 
ATOM      3  C   UNL     1       5.339   4.606  17.363  0.00  0.00    +0.000 A 
ATOM      4  C   UNL     1       6.694   4.446  17.019  0.00  0.00    +0.000 A 
ATOM      5  C   UNL     1       7.518   5.570  16.974  0.00  0.00    +0.000 A 
ATOM      6  C   UNL     1       7.031   6.827  17.309  0.00  0.00    +0.000 A 
ATOM      7  C   UNL     1       5.661   6.974  17.575  0.00  0.00    +0.000 A 
ATOM      8  C   UNL     1       4.775   5.859  17.620  0.00  0.00    +0.000 A 
ATOM      9  C   UNL     1       3.349   5.755  17.901  0.00  0.00    +0.000 A 
ENDROOT
BRANCH   9  10
ATOM     10  N   UNL     1       2.481   6.834  18.178  0.00  0.00    +0.000 N 
ATOM     11  C   UNL     1       2.215   7.217  19.483  0.00  0.00    +0.000 C 
ATOM     12  O   UNL     1       2.656   6.665  20.486  0.00  0.00    +0.000 OA
ATOM     13  H   UNL     1       2.492   7.590  17.499  0.00  0.00    +0.000 HD
BRANCH  11  14
ATOM     14  C   UNL     1       1.432   8.476  19.667  0.00  0.00    +0.000 A 
ATOM     15  C   UNL     1       0.874   8.860  20.889  0.00  0.00    +0.000 A 
ATOM     16  C   UNL     1       0.174  10.076  20.982  0.00  0.00    +0.000 A 
ATOM     17  C   UNL     1       0.038  10.921  19.873  0.00  0.00    +0.000 A 
ATOM     18  C   UNL     1       0.609  10.541  18.660  0.00  0.00    +0.000 A 
ATOM     19  C   UNL     1       1.302   9.330  18.560  0.00  0.00    +0.000 A 
BRANCH  17  20
ATOM     20  O   UNL     1      -0.707  12.048  20.080  0.00  0.00    +0.000 OA
ATOM     21  C   UNL     1      -1.720  12.342  19.122  0.00  0.00    +0.000 C 
ENDBRANCH  17  20
ENDBRANCH  11  14
ENDBRANCH   9  10
BRANCH   6  22
ATOM     22  N   UNL     1       7.849   7.953  17.156  0.00  0.00    +0.000 N 
ATOM     23  H   UNL     1       8.840   7.760  17.248  0.00  0.00    +0.000 HD
ATOM     24  H   UNL     1       7.553   8.753  17.705  0.00  0.00    +0.000 HD
ENDBRANCH   6  22
BRANCH   1  25
ATOM     25  C   UNL     1       1.583   3.853  17.952  0.00  0.00    +0.000 C 
ATOM     26  O   UNL     1       0.624   4.139  17.251  0.00  0.00    +0.000 OA
BRANCH  25  27
ATOM     27  O   UNL     1       1.508   2.996  19.018  0.00  0.00    +0.000 OA
BRANCH  27  29
ATOM     28  C   UNL     1       1.564   2.814  21.397  0.00  0.00    +0.000 C 
ATOM     29  C   UNL     1       0.986   3.582  20.220  0.00  0.00    +0.000 C 
ENDBRANCH  27  29
ENDBRANCH  25  27
ENDBRANCH   1  25
TORSDOF 7
ENDMDL
MODEL 5
REMARK VINA RESULT:      -7.1      1.411      1.861
REMARK  Name = 
REMARK  9 active torsions:
REMARK  status: ('A' for Active; 'I' for Inactive)
REMARK    1  A    between atoms: C_1  and  C_2
REMARK    2  A    between atoms: C_2  and  O_3
REMARK    3  A    between atoms: O_3  and  C_4
REMARK    4  A    between atoms: C_4  and  C_6
REMARK    5  A    between atoms: C_11  and  N_12
REMARK    6  A    between atoms: C_15  and  N_16
REMARK    7  A    between atoms: C_17  and  C_19
REMARK    8  A    between atoms: C_22  and  O_23
REMARK    9  A    between atoms: O_23  and  C_24
REMARK                            x       y       z     vdW  Elec       q    Type
REMARK                         _______ _______ _______ _____ _____    ______ ____
ROOT
ATOM      1  C   UNL     1       2.842   4.544  18.306  0.00  0.00    +0.000 A 
ATOM      2  S   UNL     1       4.126   3.426  18.122  0.00  0.00    +0.000 S 
ATOM      3  C   UNL     1       5.271   4.647  17.781  0.00  0.00    +0.000 A 
ATOM      4  C   UNL     1       6.628   4.443  17.471  0.00  0.00    +0.000 A 
ATOM      5  C   UNL     1       7.447   5.550  17.254  0.00  0.00    +0.000 A 
ATOM      6  C   UNL     1       6.953   6.841  17.388  0.00  0.00    +0.000 A 
ATOM      7  C   UNL     1       5.582   7.021  17.624  0.00  0.00    +0.000 A 
ATOM      8  C   UNL     1       4.700   5.922  17.840  0.00  0.00    +0.000 A 
ATOM      9  C   UNL     1       3.274   5.857  18.129  0.00  0.00    +0.000 A 
ENDROOT
BRANCH   9  10
ATOM     10  N   UNL     1       2.400   6.961  18.231  0.00  0.00    +0.000 N 
ATOM     11  C   UNL     1       2.090   7.511  19.466  0.00  0.00    +0.000 C 
ATOM     12  O   UNL     1       2.494   7.095  20.547  0.00  0.00    +0.000 OA
ATOM     13  H   UNL     1       2.437   7.622  17.461  0.00  0.00    +0.000 HD
BRANCH  11  14
ATOM     14  C   UNL     1       1.306   8.782  19.457  0.00  0.00    +0.000 A 
ATOM     15  C   UNL     1       1.160   9.586  18.323  0.00  0.00    +0.000 A 
ATOM     16  C   UNL     1       0.382  10.754  18.395  0.00  0.00    +0.000 A 
ATOM     17  C   UNL     1      -0.267  11.122  19.581  0.00  0.00    +0.000 A 
ATOM     18  C   UNL     1      -0.130  10.311  20.705  0.00  0.00    +0.000 A 
ATOM     19  C   UNL     1       0.647   9.149  20.641  0.00  0.00    +0.000 A 
BRANCH  17  20
ATOM     20  O   UNL     1      -0.951  12.305  19.534  0.00  0.00    +0.000 OA
ATOM     21  C   UNL     1      -0.547  13.249  18.545  0.00  0.00    +0.000 C 
ENDBRANCH  17  20
ENDBRANCH  11  14
ENDBRANCH   9  10
BRANCH   6  22
ATOM     22  N   UNL     1       7.767   7.933  17.065  0.00  0.00    +0.000 N 
ATOM     23  H   UNL     1       7.386   8.831  17.344  0.00  0.00    +0.000 HD
ATOM     24  H   UNL     1       8.097   7.929  16.105  0.00  0.00    +0.000 HD
ENDBRANCH   6  22
BRANCH   1  25
ATOM     25  C   UNL     1       1.516   3.977  18.469  0.00  0.00    +0.000 C 
ATOM     26  O   UNL     1       0.839   3.451  17.598  0.00  0.00    +0.000 OA
BRANCH  25  27
ATOM     27  O   UNL     1       1.059   4.213  19.739  0.00  0.00    +0.000 OA
BRANCH  27  29
ATOM     28  C   UNL     1       2.091   3.347  21.708  0.00  0.00    +0.000 C 
ATOM     29  C   UNL     1       1.083   3.070  20.605  0.00  0.00    +0.000 C 
ENDBRANCH  27  29
ENDBRANCH  25  27
ENDBRANCH   1  25
TORSDOF 7
ENDMDL
MODEL 6
REMARK VINA RESULT:      -7.0      1.186      1.829
REMARK  Name = 
REMARK  9 active torsions:
REMARK  status: ('A' for Active; 'I' for Inactive)
REMARK    1  A    between atoms: C_1  and  C_2
REMARK    2  A    between atoms: C_2  and  O_3
REMARK    3  A    between atoms: O_3  and  C_4
REMARK    4  A    between atoms: C_4  and  C_6
REMARK    5  A    between atoms: C_11  and  N_12
REMARK    6  A    between atoms: C_15  and  N_16
REMARK    7  A    between atoms: C_17  and  C_19
REMARK    8  A    between atoms: C_22  and  O_23
REMARK    9  A    between atoms: O_23  and  C_24
REMARK                            x       y       z     vdW  Elec       q    Type
REMARK                         _______ _______ _______ _____ _____    ______ ____
ROOT
ATOM      1  C   UNL     1       3.404   4.225  20.090  0.00  0.00    +0.000 A 
ATOM      2  S   UNL     1       4.477   3.076  19.410  0.00  0.00    +0.000 S 
ATOM      3  C   UNL     1       5.389   4.266  18.593  0.00  0.00    +0.000 A 
ATOM      4  C   UNL     1       6.488   4.027  17.746  0.00  0.00    +0.000 A 
ATOM      5  C   UNL     1       7.156   5.113  17.182  0.00  0.00    +0.000 A 
ATOM      6  C   UNL     1       6.782   6.416  17.481  0.00  0.00    +0.000 A 
ATOM      7  C   UNL     1       5.639   6.630  18.267  0.00  0.00    +0.000 A 
ATOM      8  C   UNL     1       4.914   5.555  18.857  0.00  0.00    +0.000 A 
ATOM      9  C   UNL     1       3.741   5.525  19.719  0.00  0.00    +0.000 A 
ENDROOT
BRANCH   9  10
ATOM     10  N   UNL     1       3.007   6.650  20.154  0.00  0.00    +0.000 N 
ATOM     11  C   UNL     1       2.270   7.410  19.259  0.00  0.00    +0.000 C 
ATOM     12  O   UNL     1       2.208   7.214  18.049  0.00  0.00    +0.000 OA
ATOM     13  H   UNL     1       2.614   6.582  21.089  0.00  0.00    +0.000 HD
BRANCH  11  14
ATOM     14  C   UNL     1       1.387   8.465  19.840  0.00  0.00    +0.000 A 
ATOM     15  C   UNL     1       1.016   9.621  19.148  0.00  0.00    +0.000 A 
ATOM     16  C   UNL     1       0.159  10.552  19.761  0.00  0.00    +0.000 A 
ATOM     17  C   UNL     1      -0.344  10.336  21.050  0.00  0.00    +0.000 A 
ATOM     18  C   UNL     1       0.018   9.176  21.731  0.00  0.00    +0.000 A 
ATOM     19  C   UNL     1       0.874   8.248  21.128  0.00  0.00    +0.000 A 
BRANCH  17  20
ATOM     20  O   UNL     1      -1.126  11.339  21.552  0.00  0.00    +0.000 OA
ATOM     21  C   UNL     1      -1.196  11.460  22.970  0.00  0.00    +0.000 C 
ENDBRANCH  17  20
ENDBRANCH  11  14
ENDBRANCH   9  10
BRANCH   6  22
ATOM     22  N   UNL     1       7.401   7.485  16.822  0.00  0.00    +0.000 N 
ATOM     23  H   UNL     1       7.510   7.349  15.823  0.00  0.00    +0.000 HD
ATOM     24  H   UNL     1       8.253   7.805  17.269  0.00  0.00    +0.000 HD
ENDBRANCH   6  22
BRANCH   1  25
ATOM     25  C   UNL     1       2.261   3.690  20.807  0.00  0.00    +0.000 C 
ATOM     26  O   UNL     1       2.295   2.945  21.776  0.00  0.00    +0.000 OA
BRANCH  25  27
ATOM     27  O   UNL     1       1.101   4.048  20.173  0.00  0.00    +0.000 OA
BRANCH  27  29
ATOM     28  C   UNL     1       0.644   2.169  18.776  0.00  0.00    +0.000 C 
ATOM     29  C   UNL     1       1.021   3.641  18.800  0.00  0.00    +0.000 C 
ENDBRANCH  27  29
ENDBRANCH  25  27
ENDBRANCH   1  25
TORSDOF 7
ENDMDL
MODEL 7
REMARK VINA RESULT:      -6.9      2.116      4.650
REMARK  Name = 
REMARK  9 active torsions:
REMARK  status: ('A' for Active; 'I' for Inactive)
REMARK    1  A    between atoms: C_1  and  C_2
REMARK    2  A    between atoms: C_2  and  O_3
REMARK    3  A    between atoms: O_3  and  C_4
REMARK    4  A    between atoms: C_4  and  C_6
REMARK    5  A    between atoms: C_11  and  N_12
REMARK    6  A    between atoms: C_15  and  N_16
REMARK    7  A    between atoms: C_17  and  C_19
REMARK    8  A    between atoms: C_22  and  O_23
REMARK    9  A    between atoms: O_23  and  C_24
REMARK                            x       y       z     vdW  Elec       q    Type
REMARK                         _______ _______ _______ _____ _____    ______ ____
ROOT
ATOM      1  C   UNL     1       4.396   5.661  17.077  0.00  0.00    +0.000 A 
ATOM      2  S   UNL     1       4.583   3.990  16.748  0.00  0.00    +0.000 S 
ATOM      3  C   UNL     1       3.510   3.525  17.993  0.00  0.00    +0.000 A 
ATOM      4  C   UNL     1       3.186   2.204  18.352  0.00  0.00    +0.000 A 
ATOM      5  C   UNL     1       2.259   1.987  19.371  0.00  0.00    +0.000 A 
ATOM      6  C   UNL     1       1.622   3.051  19.995  0.00  0.00    +0.000 A 
ATOM      7  C   UNL     1       2.015   4.360  19.674  0.00  0.00    +0.000 A 
ATOM      8  C   UNL     1       2.968   4.634  18.650  0.00  0.00    +0.000 A 
ATOM      9  C   UNL     1       3.503   5.882  18.123  0.00  0.00    +0.000 A 
ENDROOT
BRANCH   9  10
ATOM     10  N   UNL     1       3.180   7.178  18.581  0.00  0.00    +0.000 N 
ATOM     11  C   UNL     1       2.019   7.812  18.165  0.00  0.00    +0.000 C 
ATOM     12  O   UNL     1       1.209   7.350  17.367  0.00  0.00    +0.000 OA
ATOM     13  H   UNL     1       3.473   7.393  19.530  0.00  0.00    +0.000 HD
BRANCH  11  14
ATOM     14  C   UNL     1       1.677   9.099  18.841  0.00  0.00    +0.000 A 
ATOM     15  C   UNL     1       1.795  10.346  18.222  0.00  0.00    +0.000 A 
ATOM     16  C   UNL     1       1.425  11.507  18.924  0.00  0.00    +0.000 A 
ATOM     17  C   UNL     1       0.923  11.437  20.230  0.00  0.00    +0.000 A 
ATOM     18  C   UNL     1       0.794  10.190  20.837  0.00  0.00    +0.000 A 
ATOM     19  C   UNL     1       1.165   9.031  20.147  0.00  0.00    +0.000 A 
BRANCH  17  20
ATOM     20  O   UNL     1       0.648  12.639  20.818  0.00  0.00    +0.000 OA
ATOM     21  C   UNL     1       1.636  13.661  20.701  0.00  0.00    +0.000 C 
ENDBRANCH  17  20
ENDBRANCH  11  14
ENDBRANCH   9  10
BRANCH   6  22
ATOM     22  N   UNL     1       0.774   2.812  21.083  0.00  0.00    +0.000 N 
ATOM     23  H   UNL     1      -0.094   2.349  20.838  0.00  0.00    +0.000 HD
ATOM     24  H   UNL     1       0.631   3.622  21.678  0.00  0.00    +0.000 HD
ENDBRANCH   6  22
BRANCH   1  25
ATOM     25  C   UNL     1       5.269   6.561  16.345  0.00  0.00    +0.000 C 
ATOM     26  O   UNL     1       5.492   6.539  15.144  0.00  0.00    +0.000 OA
BRANCH  25  27
ATOM     27  O   UNL     1       5.918   7.395  17.217  0.00  0.00    +0.000 OA
BRANCH  27  29
ATOM     28  C   UNL     1       8.019   8.351  17.822  0.00  0.00    +0.000 C 
ATOM     29  C   UNL     1       7.297   7.069  17.441  0.00  0.00    +0.000 C 
ENDBRANCH  27  29
ENDBRANCH  25  27
ENDBRANCH   1  25
TORSDOF 7
ENDMDL
MODEL 8
REMARK VINA RESULT:      -6.9      2.302      4.671
REMARK  Name = 
REMARK  9 active torsions:
REMARK  status: ('A' for Active; 'I' for Inactive)
REMARK    1  A    between atoms: C_1  and  C_2
REMARK    2  A    between atoms: C_2  and  O_3
REMARK    3  A    between atoms: O_3  and  C_4
REMARK    4  A    between atoms: C_4  and  C_6
REMARK    5  A    between atoms: C_11  and  N_12
REMARK    6  A    between atoms: C_15  and  N_16
REMARK    7  A    between atoms: C_17  and  C_19
REMARK    8  A    between atoms: C_22  and  O_23
REMARK    9  A    between atoms: O_23  and  C_24
REMARK                            x       y       z     vdW  Elec       q    Type
REMARK                         _______ _______ _______ _____ _____    ______ ____
ROOT
ATOM      1  C   UNL     1       4.376   5.555  16.910  0.00  0.00    +0.000 A 
ATOM      2  S   UNL     1       4.906   3.927  16.868  0.00  0.00    +0.000 S 
ATOM      3  C   UNL     1       3.583   3.369  17.792  0.00  0.00    +0.000 A 
ATOM      4  C   UNL     1       3.366   2.042  18.206  0.00  0.00    +0.000 A 
ATOM      5  C   UNL     1       2.212   1.737  18.926  0.00  0.00    +0.000 A 
ATOM      6  C   UNL     1       1.259   2.711  19.194  0.00  0.00    +0.000 A 
ATOM      7  C   UNL     1       1.530   4.041  18.838  0.00  0.00    +0.000 A 
ATOM      8  C   UNL     1       2.701   4.406  18.113  0.00  0.00    +0.000 A 
ATOM      9  C   UNL     1       3.179   5.688  17.611  0.00  0.00    +0.000 A 
ENDROOT
BRANCH   9  10
ATOM     10  N   UNL     1       2.537   6.933  17.784  0.00  0.00    +0.000 N 
ATOM     11  C   UNL     1       2.298   7.442  19.052  0.00  0.00    +0.000 C 
ATOM     12  O   UNL     1       2.575   6.874  20.104  0.00  0.00    +0.000 OA
ATOM     13  H   UNL     1       2.731   7.629  17.069  0.00  0.00    +0.000 HD
BRANCH  11  14
ATOM     14  C   UNL     1       1.781   8.840  19.128  0.00  0.00    +0.000 A 
ATOM     15  C   UNL     1       1.984   9.789  18.123  0.00  0.00    +0.000 A 
ATOM     16  C   UNL     1       1.439  11.078  18.263  0.00  0.00    +0.000 A 
ATOM     17  C   UNL     1       0.681  11.426  19.389  0.00  0.00    +0.000 A 
ATOM     18  C   UNL     1       0.470  10.473  20.382  0.00  0.00    +0.000 A 
ATOM     19  C   UNL     1       1.013   9.190  20.250  0.00  0.00    +0.000 A 
BRANCH  17  20
ATOM     20  O   UNL     1       0.250  12.723  19.429  0.00  0.00    +0.000 OA
ATOM     21  C   UNL     1      -0.537  13.179  18.332  0.00  0.00    +0.000 C 
ENDBRANCH  17  20
ENDBRANCH  11  14
ENDBRANCH   9  10
BRANCH   6  22
ATOM     22  N   UNL     1       0.161   2.403  20.007  0.00  0.00    +0.000 N 
ATOM     23  H   UNL     1       0.409   2.006  20.906  0.00  0.00    +0.000 HD
ATOM     24  H   UNL     1      -0.565   1.877  19.533  0.00  0.00    +0.000 HD
ENDBRANCH   6  22
BRANCH   1  25
ATOM     25  C   UNL     1       5.287   6.542  16.359  0.00  0.00    +0.000 C 
ATOM     26  O   UNL     1       5.544   6.711  15.176  0.00  0.00    +0.000 OA
BRANCH  25  27
ATOM     27  O   UNL     1       5.925   7.207  17.371  0.00  0.00    +0.000 OA
BRANCH  27  29
ATOM     28  C   UNL     1       7.679   6.196  18.635  0.00  0.00    +0.000 C 
ATOM     29  C   UNL     1       7.348   7.022  17.404  0.00  0.00    +0.000 C 
ENDBRANCH  27  29
ENDBRANCH  25  27
ENDBRANCH   1  25
TORSDOF 7
ENDMDL
MODEL 9
REMARK VINA RESULT:      -6.9      2.078      4.541
REMARK  Name = 
REMARK  9 active torsions:
REMARK  status: ('A' for Active; 'I' for Inactive)
REMARK    1  A    between atoms: C_1  and  C_2
REMARK    2  A    between atoms: C_2  and  O_3
REMARK    3  A    between atoms: O_3  and  C_4
REMARK    4  A    between atoms: C_4  and  C_6
REMARK    5  A    between atoms: C_11  and  N_12
REMARK    6  A    between atoms: C_15  and  N_16
REMARK    7  A    between atoms: C_17  and  C_19
REMARK    8  A    between atoms: C_22  and  O_23
REMARK    9  A    between atoms: O_23  and  C_24
REMARK                            x       y       z     vdW  Elec       q    Type
REMARK                         _______ _______ _______ _____ _____    ______ ____
ROOT
ATOM      1  C   UNL     1       4.417   5.698  17.056  0.00  0.00    +0.000 A 
ATOM      2  S   UNL     1       4.611   4.033  16.707  0.00  0.00    +0.000 S 
ATOM      3  C   UNL     1       3.499   3.551  17.911  0.00  0.00    +0.000 A 
ATOM      4  C   UNL     1       3.161   2.224  18.238  0.00  0.00    +0.000 A 
ATOM      5  C   UNL     1       2.202   1.994  19.223  0.00  0.00    +0.000 A 
ATOM      6  C   UNL     1       1.549   3.050  19.845  0.00  0.00    +0.000 A 
ATOM      7  C   UNL     1       1.954   4.362  19.557  0.00  0.00    +0.000 A 
ATOM      8  C   UNL     1       2.939   4.650  18.568  0.00  0.00    +0.000 A 
ATOM      9  C   UNL     1       3.493   5.905  18.078  0.00  0.00    +0.000 A 
ENDROOT
BRANCH   9  10
ATOM     10  N   UNL     1       3.158   7.194  18.547  0.00  0.00    +0.000 N 
ATOM     11  C   UNL     1       1.996   7.825  18.130  0.00  0.00    +0.000 C 
ATOM     12  O   UNL     1       1.192   7.365  17.324  0.00  0.00    +0.000 OA
ATOM     13  H   UNL     1       3.445   7.402  19.499  0.00  0.00    +0.000 HD
BRANCH  11  14
ATOM     14  C   UNL     1       1.641   9.102  18.817  0.00  0.00    +0.000 A 
ATOM     15  C   UNL     1       1.119   9.157  20.112  0.00  0.00    +0.000 A 
ATOM     16  C   UNL     1       0.837  10.405  20.695  0.00  0.00    +0.000 A 
ATOM     17  C   UNL     1       1.085  11.600  20.006  0.00  0.00    +0.000 A 
ATOM     18  C   UNL     1       1.617  11.540  18.721  0.00  0.00    +0.000 A 
ATOM     19  C   UNL     1       1.896  10.301  18.133  0.00  0.00    +0.000 A 
BRANCH  17  20
ATOM     20  O   UNL     1       0.721  12.742  20.662  0.00  0.00    +0.000 OA
ATOM     21  C   UNL     1      -0.273  12.620  21.677  0.00  0.00    +0.000 C 
ENDBRANCH  17  20
ENDBRANCH  11  14
ENDBRANCH   9  10
BRANCH   6  22
ATOM     22  N   UNL     1       0.667   2.795  20.902  0.00  0.00    +0.000 N 
ATOM     23  H   UNL     1       0.095   3.591  21.165  0.00  0.00    +0.000 HD
ATOM     24  H   UNL     1       1.102   2.345  21.701  0.00  0.00    +0.000 HD
ENDBRANCH   6  22
BRANCH   1  25
ATOM     25  C   UNL     1       5.315   6.607  16.367  0.00  0.00    +0.000 C 
ATOM     26  O   UNL     1       5.554   6.622  15.168  0.00  0.00    +0.000 OA
BRANCH  25  27
ATOM     27  O   UNL     1       5.965   7.401  17.274  0.00  0.00    +0.000 OA
BRANCH  27  29
ATOM     28  C   UNL     1       8.070   8.378  17.832  0.00  0.00    +0.000 C 
ATOM     29  C   UNL     1       7.355   7.092  17.450  0.00  0.00    +0.000 C 
ENDBRANCH  27  29
ENDBRANCH  25  27
ENDBRANCH   1  25
TORSDOF 7
ENDMDL
