MODEL 1
REMARK VINA RESULT:      -8.8      0.000      0.000
REMARK  Name = 
REMARK  4 active torsions:
REMARK  status: ('A' for Active; 'I' for Inactive)
REMARK    1  A    between atoms: C_1  and  C_2
REMARK    2  A    between atoms: C_2  and  C_4
REMARK    3  A    between atoms: C_7  and  C_8
REMARK    4  A    between atoms: C_11  and  C_12
REMARK                            x       y       z     vdW  Elec       q    Type
REMARK                         _______ _______ _______ _____ _____    ______ ____
ROOT
ATOM      1  C   UNL     1       2.895   5.829  18.918  0.00  0.00    +0.000 A 
ATOM      2  C   UNL     1       2.158   5.026  19.760  0.00  0.00    +0.000 A 
ATOM      3  C   UNL     1       1.460   5.893  20.635  0.00  0.00    +0.000 A 
ATOM      4  C   UNL     1       1.851   7.181  20.321  0.00  0.00    +0.000 A 
ATOM      5  O   UNL     1       2.696   7.141  19.246  0.00  0.00    +0.000 OA
ENDROOT
BRANCH   4   6
ATOM      6  C   UNL     1       1.441   8.448  20.898  0.00  0.00    +0.000 C 
ATOM      7  O   UNL     1       1.512   8.634  22.114  0.00  0.00    +0.000 OA
ATOM      8  N   UNL     1       0.994   9.466  20.053  0.00  0.00    +0.000 N 
ATOM      9  C   UNL     1       1.096   9.477  18.582  0.00  0.00    +0.000 C 
ATOM     10  C   UNL     1      -0.302   9.589  17.954  0.00  0.00    +0.000 C 
ATOM     11  C   UNL     1      -1.029  10.711  18.633  0.00  0.00    +0.000 A 
ATOM     12  S   UNL     1      -2.390  11.470  17.960  0.00  0.00    +0.000 S 
ATOM     13  C   UNL     1      -2.524  12.522  19.303  0.00  0.00    +0.000 A 
ATOM     14  C   UNL     1      -1.548  12.288  20.249  0.00  0.00    +0.000 A 
ATOM     15  C   UNL     1      -0.674  11.222  19.870  0.00  0.00    +0.000 A 
ATOM     16  C   UNL     1       0.498  10.706  20.662  0.00  0.00    +0.000 C 
ENDBRANCH   4   6
BRANCH   1  20
ATOM     17  C   UNL     1       5.579   5.080  15.665  0.00  0.00    +0.000 A 
ATOM     18  C   UNL     1       4.907   4.023  16.287  0.00  0.00    +0.000 A 
ATOM     19  C   UNL     1       4.024   4.275  17.341  0.00  0.00    +0.000 A 
ATOM     20  C   UNL     1       3.797   5.580  17.800  0.00  0.00    +0.000 A 
ATOM     21  C   UNL     1       4.472   6.635  17.170  0.00  0.00    +0.000 A 
ATOM     22  C   UNL     1       5.354   6.388  16.111  0.00  0.00    +0.000 A 
BRANCH  17  24
ATOM     23  C   UNL     1       6.165   3.864  13.465  0.00  0.00    +0.000 C 
ATOM     24  C   UNL     1       6.534   4.854  14.540  0.00  0.00    +0.000 C 
ATOM     25  O   UNL     1       7.597   5.470  14.504  0.00  0.00    +0.000 OA
ENDBRANCH  17  24
ENDBRANCH   1  20
TORSDOF 3
ENDMDL
MODEL 2
REMARK VINA RESULT:      -8.0      2.539      3.611
REMARK  Name = 
REMARK  4 active torsions:
REMARK  status: ('A' for Active; 'I' for Inactive)
REMARK    1  A    between atoms: C_1  and  C_2
REMARK    2  A    between atoms: C_2  and  C_4
REMARK    3  A    between atoms: C_7  and  C_8
REMARK    4  A    between atoms: C_11  and  C_12
REMARK                            x       y       z     vdW  Elec       q    Type
REMARK                         _______ _______ _______ _____ _____    ______ ____
ROOT
ATOM      1  C   UNL     1       2.139   8.010  18.785  0.00  0.00    +0.000 A 
ATOM      2  C   UNL     1       2.148   8.929  17.760  0.00  0.00    +0.000 A 
ATOM      3  C   UNL     1       1.557  10.109  18.272  0.00  0.00    +0.000 A 
ATOM      4  C   UNL     1       1.163   9.832  19.568  0.00  0.00    +0.000 A 
ATOM      5  O   UNL     1       1.556   8.561  19.891  0.00  0.00    +0.000 OA
ENDROOT
BRANCH   4   6
ATOM      6  C   UNL     1       0.515  10.683  20.550  0.00  0.00    +0.000 C 
ATOM      7  O   UNL     1       0.862  10.649  21.732  0.00  0.00    +0.000 OA
ATOM      8  N   UNL     1      -0.485  11.563  20.132  0.00  0.00    +0.000 N 
ATOM      9  C   UNL     1      -0.820  11.890  18.734  0.00  0.00    +0.000 C 
ATOM     10  C   UNL     1      -2.284  11.529  18.440  0.00  0.00    +0.000 C 
ATOM     11  C   UNL     1      -3.133  12.101  19.536  0.00  0.00    +0.000 A 
ATOM     12  S   UNL     1      -4.806  12.339  19.378  0.00  0.00    +0.000 S 
ATOM     13  C   UNL     1      -4.912  12.969  20.966  0.00  0.00    +0.000 A 
ATOM     14  C   UNL     1      -3.689  12.987  21.603  0.00  0.00    +0.000 A 
ATOM     15  C   UNL     1      -2.643  12.471  20.777  0.00  0.00    +0.000 A 
ATOM     16  C   UNL     1      -1.190  12.347  21.152  0.00  0.00    +0.000 C 
ENDBRANCH   4   6
BRANCH   1  20
ATOM     17  C   UNL     1       3.533   3.985  19.239  0.00  0.00    +0.000 A 
ATOM     18  C   UNL     1       2.665   4.545  20.182  0.00  0.00    +0.000 A 
ATOM     19  C   UNL     1       2.205   5.856  20.022  0.00  0.00    +0.000 A 
ATOM     20  C   UNL     1       2.603   6.634  18.927  0.00  0.00    +0.000 A 
ATOM     21  C   UNL     1       3.471   6.066  17.984  0.00  0.00    +0.000 A 
ATOM     22  C   UNL     1       3.931   4.753  18.137  0.00  0.00    +0.000 A 
BRANCH  17  24
ATOM     23  C   UNL     1       3.430   1.503  18.535  0.00  0.00    +0.000 C 
ATOM     24  C   UNL     1       4.051   2.591  19.373  0.00  0.00    +0.000 C 
ATOM     25  O   UNL     1       4.966   2.350  20.158  0.00  0.00    +0.000 OA
ENDBRANCH  17  24
ENDBRANCH   1  20
TORSDOF 3
ENDMDL
MODEL 3
REMARK VINA RESULT:      -7.8      2.546      3.742
REMARK  Name = 
REMARK  4 active torsions:
REMARK  status: ('A' for Active; 'I' for Inactive)
REMARK    1  A    between atoms: C_1  and  C_2
REMARK    2  A    between atoms: C_2  and  C_4
REMARK    3  A    between atoms: C_7  and  C_8
REMARK    4  A    between atoms: C_11  and  C_12
REMARK                            x       y       z     vdW  Elec       q    Type
REMARK                         _______ _______ _______ _____ _____    ______ ____
ROOT
ATOM      1  C   UNL     1       2.042   8.280  18.776  0.00  0.00    +0.000 A 
ATOM      2  C   UNL     1       2.044   9.216  17.767  0.00  0.00    +0.000 A 
ATOM      3  C   UNL     1       1.417  10.373  18.289  0.00  0.00    +0.000 A 
ATOM      4  C   UNL     1       1.011  10.065  19.574  0.00  0.00    +0.000 A 
ATOM      5  O   UNL     1       1.430   8.799  19.882  0.00  0.00    +0.000 OA
ENDROOT
BRANCH   4   6
ATOM      6  C   UNL     1       0.329  10.884  20.560  0.00  0.00    +0.000 C 
ATOM      7  O   UNL     1       0.678  10.860  21.741  0.00  0.00    +0.000 OA
ATOM      8  N   UNL     1      -0.709  11.722  20.146  0.00  0.00    +0.000 N 
ATOM      9  C   UNL     1      -1.059  12.040  18.749  0.00  0.00    +0.000 C 
ATOM     10  C   UNL     1      -2.507  11.617  18.456  0.00  0.00    +0.000 C 
ATOM     11  C   UNL     1      -3.378  12.147  19.555  0.00  0.00    +0.000 A 
ATOM     12  S   UNL     1      -5.060  12.315  19.400  0.00  0.00    +0.000 S 
ATOM     13  C   UNL     1      -5.191  12.934  20.990  0.00  0.00    +0.000 A 
ATOM     14  C   UNL     1      -3.970  13.001  21.626  0.00  0.00    +0.000 A 
ATOM     15  C   UNL     1      -2.903  12.534  20.796  0.00  0.00    +0.000 A 
ATOM     16  C   UNL     1      -1.446  12.471  21.170  0.00  0.00    +0.000 C 
ENDBRANCH   4   6
BRANCH   1  20
ATOM     17  C   UNL     1       3.468   4.255  19.114  0.00  0.00    +0.000 A 
ATOM     18  C   UNL     1       3.857   5.056  18.037  0.00  0.00    +0.000 A 
ATOM     19  C   UNL     1       3.397   6.373  17.938  0.00  0.00    +0.000 A 
ATOM     20  C   UNL     1       2.538   6.914  18.903  0.00  0.00    +0.000 A 
ATOM     21  C   UNL     1       2.153   6.106  19.982  0.00  0.00    +0.000 A 
ATOM     22  C   UNL     1       2.615   4.789  20.089  0.00  0.00    +0.000 A 
BRANCH  17  24
ATOM     23  C   UNL     1       3.140   1.750  18.584  0.00  0.00    +0.000 C 
ATOM     24  C   UNL     1       3.932   2.843  19.255  0.00  0.00    +0.000 C 
ATOM     25  O   UNL     1       4.941   2.591  19.910  0.00  0.00    +0.000 OA
ENDBRANCH  17  24
ENDBRANCH   1  20
TORSDOF 3
ENDMDL
MODEL 4
REMARK VINA RESULT:      -7.8      2.801      3.950
REMARK  Name = 
REMARK  4 active torsions:
REMARK  status: ('A' for Active; 'I' for Inactive)
REMARK    1  A    between atoms: C_1  and  C_2
REMARK    2  A    between atoms: C_2  and  C_4
REMARK    3  A    between atoms: C_7  and  C_8
REMARK    4  A    between atoms: C_11  and  C_12
REMARK                            x       y       z     vdW  Elec       q    Type
REMARK                         _______ _______ _______ _____ _____    ______ ____
ROOT
ATOM      1  C   UNL     1       1.819   7.947  19.749  0.00  0.00    +0.000 A 
ATOM      2  C   UNL     1       1.699   9.001  18.872  0.00  0.00    +0.000 A 
ATOM      3  C   UNL     1       1.104  10.062  19.595  0.00  0.00    +0.000 A 
ATOM      4  C   UNL     1       0.837   9.583  20.864  0.00  0.00    +0.000 A 
ATOM      5  O   UNL     1       1.312   8.304  20.967  0.00  0.00    +0.000 OA
ENDROOT
BRANCH   4   6
ATOM      6  C   UNL     1       0.241  10.250  22.008  0.00  0.00    +0.000 C 
ATOM      7  O   UNL     1       0.467   9.851  23.152  0.00  0.00    +0.000 OA
ATOM      8  N   UNL     1      -0.567  11.369  21.797  0.00  0.00    +0.000 N 
ATOM      9  C   UNL     1      -0.716  12.101  20.526  0.00  0.00    +0.000 C 
ATOM     10  C   UNL     1      -2.185  12.089  20.076  0.00  0.00    +0.000 C 
ATOM     11  C   UNL     1      -3.033  12.496  21.244  0.00  0.00    +0.000 A 
ATOM     12  S   UNL     1      -4.626  13.055  21.077  0.00  0.00    +0.000 S 
ATOM     13  C   UNL     1      -4.781  13.260  22.770  0.00  0.00    +0.000 A 
ATOM     14  C   UNL     1      -3.634  12.898  23.445  0.00  0.00    +0.000 A 
ATOM     15  C   UNL     1      -2.609  12.440  22.561  0.00  0.00    +0.000 A 
ATOM     16  C   UNL     1      -1.234  11.972  22.957  0.00  0.00    +0.000 C 
ENDBRANCH   4   6
BRANCH   1  20
ATOM     17  C   UNL     1       3.418   3.981  19.505  0.00  0.00    +0.000 A 
ATOM     18  C   UNL     1       2.481   4.308  20.490  0.00  0.00    +0.000 A 
ATOM     19  C   UNL     1       1.955   5.601  20.557  0.00  0.00    +0.000 A 
ATOM     20  C   UNL     1       2.355   6.594  19.653  0.00  0.00    +0.000 A 
ATOM     21  C   UNL     1       3.293   6.259  18.666  0.00  0.00    +0.000 A 
ATOM     22  C   UNL     1       3.819   4.964  18.591  0.00  0.00    +0.000 A 
BRANCH  17  24
ATOM     23  C   UNL     1       3.490   1.680  18.336  0.00  0.00    +0.000 C 
ATOM     24  C   UNL     1       4.008   2.614  19.400  0.00  0.00    +0.000 C 
ATOM     25  O   UNL     1       4.898   2.268  20.174  0.00  0.00    +0.000 OA
ENDBRANCH  17  24
ENDBRANCH   1  20
TORSDOF 3
ENDMDL
MODEL 5
REMARK VINA RESULT:      -7.7      2.513      4.043
REMARK  Name = 
REMARK  4 active torsions:
REMARK  status: ('A' for Active; 'I' for Inactive)
REMARK    1  A    between atoms: C_1  and  C_2
REMARK    2  A    between atoms: C_2  and  C_4
REMARK    3  A    between atoms: C_7  and  C_8
REMARK    4  A    between atoms: C_11  and  C_12
REMARK                            x       y       z     vdW  Elec       q    Type
REMARK                         _______ _______ _______ _____ _____    ______ ____
ROOT
ATOM      1  C   UNL     1       1.407   8.910  19.226  0.00  0.00    +0.000 A 
ATOM      2  C   UNL     1       0.734   9.824  18.448  0.00  0.00    +0.000 A 
ATOM      3  C   UNL     1       0.038  10.676  19.338  0.00  0.00    +0.000 A 
ATOM      4  C   UNL     1       0.274  10.203  20.615  0.00  0.00    +0.000 A 
ATOM      5  O   UNL     1       1.144   9.148  20.545  0.00  0.00    +0.000 OA
ENDROOT
BRANCH   4   6
ATOM      6  C   UNL     1      -0.188  10.703  21.897  0.00  0.00    +0.000 C 
ATOM      7  O   UNL     1       0.244  10.225  22.947  0.00  0.00    +0.000 OA
ATOM      8  N   UNL     1      -1.107  11.754  21.925  0.00  0.00    +0.000 N 
ATOM      9  C   UNL     1      -1.510  12.581  20.773  0.00  0.00    +0.000 C 
ATOM     10  C   UNL     1      -3.026  12.470  20.545  0.00  0.00    +0.000 C 
ATOM     11  C   UNL     1      -3.711  12.686  21.861  0.00  0.00    +0.000 A 
ATOM     12  S   UNL     1      -5.351  13.103  21.989  0.00  0.00    +0.000 S 
ATOM     13  C   UNL     1      -5.256  13.138  23.698  0.00  0.00    +0.000 A 
ATOM     14  C   UNL     1      -3.994  12.827  24.156  0.00  0.00    +0.000 A 
ATOM     15  C   UNL     1      -3.085  12.551  23.088  0.00  0.00    +0.000 A 
ATOM     16  C   UNL     1      -1.631  12.183  23.227  0.00  0.00    +0.000 C 
ENDBRANCH   4   6
BRANCH   1  20
ATOM     17  C   UNL     1       4.010   5.617  18.370  0.00  0.00    +0.000 A 
ATOM     18  C   UNL     1       3.934   6.706  17.495  0.00  0.00    +0.000 A 
ATOM     19  C   UNL     1       3.090   7.783  17.786  0.00  0.00    +0.000 A 
ATOM     20  C   UNL     1       2.304   7.794  18.946  0.00  0.00    +0.000 A 
ATOM     21  C   UNL     1       2.387   6.700  19.819  0.00  0.00    +0.000 A 
ATOM     22  C   UNL     1       3.233   5.622  19.535  0.00  0.00    +0.000 A 
BRANCH  17  24
ATOM     23  C   UNL     1       5.043   3.969  16.673  0.00  0.00    +0.000 C 
ATOM     24  C   UNL     1       4.894   4.446  18.095  0.00  0.00    +0.000 C 
ATOM     25  O   UNL     1       5.481   3.889  19.020  0.00  0.00    +0.000 OA
ENDBRANCH  17  24
ENDBRANCH   1  20
TORSDOF 3
ENDMDL
MODEL 6
REMARK VINA RESULT:      -7.7      1.508      2.519
REMARK  Name = 
REMARK  4 active torsions:
REMARK  status: ('A' for Active; 'I' for Inactive)
REMARK    1  A    between atoms: C_1  and  C_2
REMARK    2  A    between atoms: C_2  and  C_4
REMARK    3  A    between atoms: C_7  and  C_8
REMARK    4  A    between atoms: C_11  and  C_12
REMARK                            x       y       z     vdW  Elec       q    Type
REMARK                         _______ _______ _______ _____ _____    ______ ____
ROOT
ATOM      1  C   UNL     1       3.601   4.341  17.295  0.00  0.00    +0.000 A 
ATOM      2  C   UNL     1       2.702   3.330  17.550  0.00  0.00    +0.000 A 
ATOM      3  C   UNL     1       1.932   3.746  18.663  0.00  0.00    +0.000 A 
ATOM      4  C   UNL     1       2.439   4.966  19.068  0.00  0.00    +0.000 A 
ATOM      5  O   UNL     1       3.432   5.345  18.206  0.00  0.00    +0.000 OA
ENDROOT
BRANCH   4   6
ATOM      6  C   UNL     1       2.021   5.838  20.151  0.00  0.00    +0.000 C 
ATOM      7  O   UNL     1       1.708   5.369  21.246  0.00  0.00    +0.000 OA
ATOM      8  N   UNL     1       2.007   7.219  19.944  0.00  0.00    +0.000 N 
ATOM      9  C   UNL     1       2.590   7.927  18.789  0.00  0.00    +0.000 C 
ATOM     10  C   UNL     1       1.503   8.725  18.053  0.00  0.00    +0.000 C 
ATOM     11  C   UNL     1       0.738   9.517  19.070  0.00  0.00    +0.000 A 
ATOM     12  S   UNL     1      -0.220  10.858  18.665  0.00  0.00    +0.000 S 
ATOM     13  C   UNL     1      -0.660  11.097  20.302  0.00  0.00    +0.000 A 
ATOM     14  C   UNL     1      -0.088  10.160  21.137  0.00  0.00    +0.000 A 
ATOM     15  C   UNL     1       0.724   9.225  20.423  0.00  0.00    +0.000 A 
ATOM     16  C   UNL     1       1.495   8.077  21.019  0.00  0.00    +0.000 C 
ENDBRANCH   4   6
BRANCH   1  20
ATOM     17  C   UNL     1       6.633   4.980  14.337  0.00  0.00    +0.000 A 
ATOM     18  C   UNL     1       6.093   6.059  15.044  0.00  0.00    +0.000 A 
ATOM     19  C   UNL     1       5.111   5.843  16.016  0.00  0.00    +0.000 A 
ATOM     20  C   UNL     1       4.644   4.552  16.298  0.00  0.00    +0.000 A 
ATOM     21  C   UNL     1       5.192   3.474  15.588  0.00  0.00    +0.000 A 
ATOM     22  C   UNL     1       6.178   3.685  14.617  0.00  0.00    +0.000 A 
BRANCH  17  24
ATOM     23  C   UNL     1       7.496   4.490  11.954  0.00  0.00    +0.000 C 
ATOM     24  C   UNL     1       7.679   5.167  13.289  0.00  0.00    +0.000 C 
ATOM     25  O   UNL     1       8.666   5.861  13.523  0.00  0.00    +0.000 OA
ENDBRANCH  17  24
ENDBRANCH   1  20
TORSDOF 3
ENDMDL
MODEL 7
REMARK VINA RESULT:      -7.7      5.804      8.434
REMARK  Name = 
REMARK  4 active torsions:
REMARK  status: ('A' for Active; 'I' for Inactive)
REMARK    1  A    between atoms: C_1  and  C_2
REMARK    2  A    between atoms: C_2  and  C_4
REMARK    3  A    between atoms: C_7  and  C_8
REMARK    4  A    between atoms: C_11  and  C_12
REMARK                            x       y       z     vdW  Elec       q    Type
REMARK                         _______ _______ _______ _____ _____    ______ ____
ROOT
ATOM      1  C   UNL     1       8.284   8.904  18.145  0.00  0.00    +0.000 A 
ATOM      2  C   UNL     1       8.683   7.825  18.902  0.00  0.00    +0.000 A 
ATOM      3  C   UNL     1       7.897   6.725  18.481  0.00  0.00    +0.000 A 
ATOM      4  C   UNL     1       7.017   7.201  17.528  0.00  0.00    +0.000 A 
ATOM      5  O   UNL     1       7.283   8.523  17.296  0.00  0.00    +0.000 OA
ENDROOT
BRANCH   4   6
ATOM      6  C   UNL     1       5.998   6.502  16.765  0.00  0.00    +0.000 C 
ATOM      7  O   UNL     1       5.547   6.992  15.729  0.00  0.00    +0.000 OA
ATOM      8  N   UNL     1       5.559   5.252  17.205  0.00  0.00    +0.000 N 
ATOM      9  C   UNL     1       6.181   4.441  18.268  0.00  0.00    +0.000 C 
ATOM     10  C   UNL     1       5.171   4.178  19.395  0.00  0.00    +0.000 C 
ATOM     11  C   UNL     1       3.896   3.692  18.774  0.00  0.00    +0.000 A 
ATOM     12  S   UNL     1       2.702   2.861  19.647  0.00  0.00    +0.000 S 
ATOM     13  C   UNL     1       1.717   2.719  18.255  0.00  0.00    +0.000 A 
ATOM     14  C   UNL     1       2.291   3.306  17.148  0.00  0.00    +0.000 A 
ATOM     15  C   UNL     1       3.564   3.887  17.445  0.00  0.00    +0.000 A 
ATOM     16  C   UNL     1       4.465   4.603  16.473  0.00  0.00    +0.000 C 
ENDBRANCH   4   6
BRANCH   1  20
ATOM     17  C   UNL     1       9.491  13.003  17.858  0.00  0.00    +0.000 A 
ATOM     18  C   UNL     1       8.241  12.598  17.381  0.00  0.00    +0.000 A 
ATOM     19  C   UNL     1       7.848  11.260  17.488  0.00  0.00    +0.000 A 
ATOM     20  C   UNL     1       8.693  10.301  18.063  0.00  0.00    +0.000 A 
ATOM     21  C   UNL     1       9.944  10.715  18.542  0.00  0.00    +0.000 A 
ATOM     22  C   UNL     1      10.340  12.054  18.442  0.00  0.00    +0.000 A 
BRANCH  17  24
ATOM     23  C   UNL     1       9.080  15.506  18.338  0.00  0.00    +0.000 C 
ATOM     24  C   UNL     1       9.951  14.420  17.760  0.00  0.00    +0.000 C 
ATOM     25  O   UNL     1      11.021  14.682  17.214  0.00  0.00    +0.000 OA
ENDBRANCH  17  24
ENDBRANCH   1  20
TORSDOF 3
ENDMDL
MODEL 8
REMARK VINA RESULT:      -7.7      5.825      8.429
REMARK  Name = 
REMARK  4 active torsions:
REMARK  status: ('A' for Active; 'I' for Inactive)
REMARK    1  A    between atoms: C_1  and  C_2
REMARK    2  A    between atoms: C_2  and  C_4
REMARK    3  A    between atoms: C_7  and  C_8
REMARK    4  A    between atoms: C_11  and  C_12
REMARK                            x       y       z     vdW  Elec       q    Type
REMARK                         _______ _______ _______ _____ _____    ______ ____
ROOT
ATOM      1  C   UNL     1       8.287   8.952  18.131  0.00  0.00    +0.000 A 
ATOM      2  C   UNL     1       8.680   7.890  18.914  0.00  0.00    +0.000 A 
ATOM      3  C   UNL     1       7.911   6.776  18.499  0.00  0.00    +0.000 A 
ATOM      4  C   UNL     1       7.044   7.228  17.522  0.00  0.00    +0.000 A 
ATOM      5  O   UNL     1       7.304   8.548  17.271  0.00  0.00    +0.000 OA
ENDROOT
BRANCH   4   6
ATOM      6  C   UNL     1       6.045   6.508  16.754  0.00  0.00    +0.000 C 
ATOM      7  O   UNL     1       5.633   6.960  15.684  0.00  0.00    +0.000 OA
ATOM      8  N   UNL     1       5.578   5.281  17.228  0.00  0.00    +0.000 N 
ATOM      9  C   UNL     1       6.157   4.508  18.342  0.00  0.00    +0.000 C 
ATOM     10  C   UNL     1       5.107   4.299  19.445  0.00  0.00    +0.000 C 
ATOM     11  C   UNL     1       3.848   3.800  18.801  0.00  0.00    +0.000 A 
ATOM     12  S   UNL     1       2.617   3.015  19.666  0.00  0.00    +0.000 S 
ATOM     13  C   UNL     1       1.678   2.826  18.248  0.00  0.00    +0.000 A 
ATOM     14  C   UNL     1       2.295   3.363  17.138  0.00  0.00    +0.000 A 
ATOM     15  C   UNL     1       3.563   3.944  17.454  0.00  0.00    +0.000 A 
ATOM     16  C   UNL     1       4.503   4.613  16.486  0.00  0.00    +0.000 C 
ENDBRANCH   4   6
BRANCH   1  20
ATOM     17  C   UNL     1       9.454  13.066  17.887  0.00  0.00    +0.000 A 
ATOM     18  C   UNL     1      10.328  12.112  18.418  0.00  0.00    +0.000 A 
ATOM     19  C   UNL     1       9.945  10.768  18.484  0.00  0.00    +0.000 A 
ATOM     20  C   UNL     1       8.687  10.351  18.032  0.00  0.00    +0.000 A 
ATOM     21  C   UNL     1       7.817  11.312  17.498  0.00  0.00    +0.000 A 
ATOM     22  C   UNL     1       8.197  12.658  17.425  0.00  0.00    +0.000 A 
BRANCH  17  24
ATOM     23  C   UNL     1      11.280  14.884  17.726  0.00  0.00    +0.000 C 
ATOM     24  C   UNL     1       9.821  14.510  17.802  0.00  0.00    +0.000 C 
ATOM     25  O   UNL     1       8.941  15.368  17.797  0.00  0.00    +0.000 OA
ENDBRANCH  17  24
ENDBRANCH   1  20
TORSDOF 3
ENDMDL
MODEL 9
REMARK VINA RESULT:      -7.7      2.502      3.794
REMARK  Name = 
REMARK  4 active torsions:
REMARK  status: ('A' for Active; 'I' for Inactive)
REMARK    1  A    between atoms: C_1  and  C_2
REMARK    2  A    between atoms: C_2  and  C_4
REMARK    3  A    between atoms: C_7  and  C_8
REMARK    4  A    between atoms: C_11  and  C_12
REMARK                            x       y       z     vdW  Elec       q    Type
REMARK                         _______ _______ _______ _____ _____    ______ ____
ROOT
ATOM      1  C   UNL     1       1.455   8.738  19.162  0.00  0.00    +0.000 A 
ATOM      2  C   UNL     1       0.785   9.694  18.433  0.00  0.00    +0.000 A 
ATOM      3  C   UNL     1       0.018  10.443  19.358  0.00  0.00    +0.000 A 
ATOM      4  C   UNL     1       0.214   9.870  20.600  0.00  0.00    +0.000 A 
ATOM      5  O   UNL     1       1.123   8.853  20.483  0.00  0.00    +0.000 OA
ENDROOT
BRANCH   4   6
ATOM      6  C   UNL     1      -0.324  10.241  21.896  0.00  0.00    +0.000 C 
ATOM      7  O   UNL     1      -0.088   9.554  22.891  0.00  0.00    +0.000 OA
ATOM      8  N   UNL     1      -1.086  11.406  22.007  0.00  0.00    +0.000 N 
ATOM      9  C   UNL     1      -1.233  12.445  20.971  0.00  0.00    +0.000 C 
ATOM     10  C   UNL     1      -2.711  12.604  20.584  0.00  0.00    +0.000 C 
ATOM     11  C   UNL     1      -3.511  12.728  21.845  0.00  0.00    +0.000 A 
ATOM     12  S   UNL     1      -5.082  13.370  21.883  0.00  0.00    +0.000 S 
ATOM     13  C   UNL     1      -5.186  13.139  23.575  0.00  0.00    +0.000 A 
ATOM     14  C   UNL     1      -4.041  12.574  24.096  0.00  0.00    +0.000 A 
ATOM     15  C   UNL     1      -3.059  12.320  23.089  0.00  0.00    +0.000 A 
ATOM     16  C   UNL     1      -1.697  11.716  23.304  0.00  0.00    +0.000 C 
ENDBRANCH   4   6
BRANCH   1  20
ATOM     17  C   UNL     1       4.269   5.647  18.229  0.00  0.00    +0.000 A 
ATOM     18  C   UNL     1       3.477   5.561  19.378  0.00  0.00    +0.000 A 
ATOM     19  C   UNL     1       2.553   6.568  19.671  0.00  0.00    +0.000 A 
ATOM     20  C   UNL     1       2.403   7.680  18.833  0.00  0.00    +0.000 A 
ATOM     21  C   UNL     1       3.199   7.759  17.681  0.00  0.00    +0.000 A 
ATOM     22  C   UNL     1       4.123   6.752  17.380  0.00  0.00    +0.000 A 
BRANCH  17  24
ATOM     23  C   UNL     1       5.304   4.066  16.470  0.00  0.00    +0.000 C 
ATOM     24  C   UNL     1       5.272   4.597  17.881  0.00  0.00    +0.000 C 
ATOM     25  O   UNL     1       6.048   4.181  18.738  0.00  0.00    +0.000 OA
ENDBRANCH  17  24
ENDBRANCH   1  20
TORSDOF 3
ENDMDL
