MODEL 1
REMARK VINA RESULT:      -8.4      0.000      0.000
REMARK  Name = 
REMARK  7 active torsions:
REMARK  status: ('A' for Active; 'I' for Inactive)
REMARK    1  A    between atoms: C_2  and  C_3
REMARK    2  A    between atoms: C_3  and  C_4
REMARK    3  A    between atoms: C_7  and  O_8
REMARK    4  A    between atoms: C_14  and  C_15
REMARK    5  A    between atoms: C_15  and  N_16
REMARK    6  A    between atoms: N_16  and  C_17
REMARK    7  A    between atoms: N_27  and  C_28
REMARK                            x       y       z     vdW  Elec       q    Type
REMARK                         _______ _______ _______ _____ _____    ______ ____
ROOT
ATOM      1  O   UNL     1       1.926   7.233  20.498  0.00  0.00    +0.000 OA
ATOM      2  C   UNL     1       2.033   7.831  19.422  0.00  0.00    +0.000 C 
ATOM      3  N   UNL     1       1.308   8.970  19.147  0.00  0.00    +0.000 N 
ATOM      4  C   UNL     1       1.341   9.757  17.935  0.00  0.00    +0.000 C 
ATOM      5  C   UNL     1       0.942  11.162  18.388  0.00  0.00    +0.000 C 
ATOM      6  C   UNL     1       0.113  10.890  19.679  0.00  0.00    +0.000 C 
ATOM      7  C   UNL     1       0.229   9.392  20.007  0.00  0.00    +0.000 C 
ATOM      8  C   UNL     1       0.527  11.758  20.878  0.00  0.00    +0.000 C 
ATOM      9  N   UNL     1      -0.816  11.668  21.344  0.00  0.00    +0.000 N 
ATOM     10  C   UNL     1      -1.319  11.459  20.009  0.00  0.00    +0.000 C 
ENDROOT
BRANCH   9  11
ATOM     11  C   UNL     1      -1.306  12.408  22.439  0.00  0.00    +0.000 A 
ATOM     12  C   UNL     1      -2.498  11.997  23.074  0.00  0.00    +0.000 A 
ATOM     13  C   UNL     1      -3.188  12.826  23.946  0.00  0.00    +0.000 A 
ATOM     14  C   UNL     1      -2.686  14.088  24.205  0.00  0.00    +0.000 A 
ATOM     15  F   UNL     1      -3.386  14.923  24.982  0.00  0.00    +0.000 F 
ATOM     16  C   UNL     1      -1.483  14.506  23.641  0.00  0.00    +0.000 A 
ATOM     17  C   UNL     1      -0.783  13.660  22.768  0.00  0.00    +0.000 A 
ENDBRANCH   9  11
BRANCH   2  18
ATOM     18  C   UNL     1       2.990   7.331  18.352  0.00  0.00    +0.000 C 
BRANCH  18  19
ATOM     19  C   UNL     1       3.359   5.867  18.447  0.00  0.00    +0.000 A 
ATOM     20  C   UNL     1       4.516   5.428  19.108  0.00  0.00    +0.000 A 
ATOM     21  C   UNL     1       4.823   4.064  19.191  0.00  0.00    +0.000 A 
ATOM     22  C   UNL     1       3.961   3.128  18.628  0.00  0.00    +0.000 A 
ATOM     23  C   UNL     1       2.795   3.550  17.998  0.00  0.00    +0.000 A 
ATOM     24  F   UNL     1       1.944   2.657  17.469  0.00  0.00    +0.000 F 
ATOM     25  C   UNL     1       2.488   4.905  17.910  0.00  0.00    +0.000 A 
BRANCH  22  26
ATOM     26  O   UNL     1       4.238   1.793  18.696  0.00  0.00    +0.000 OA
ATOM     27  H   UNL     1       3.503   1.297  18.304  0.00  0.00    +0.000 HD
ENDBRANCH  22  26
ENDBRANCH  18  19
ENDBRANCH   2  18
BRANCH   5  28
ATOM     28  C   UNL     1       2.222  11.972  18.698  0.00  0.00    +0.000 C 
BRANCH  28  29
ATOM     29  N   UNL     1       2.524  12.984  17.690  0.00  0.00    +0.000 N 
ATOM     30  H   UNL     1       2.118  12.792  16.779  0.00  0.00    +0.000 HD
BRANCH  29  31
ATOM     31  C   UNL     1       2.320  14.334  18.069  0.00  0.00    +0.000 A 
ATOM     32  C   UNL     1       1.265  14.742  18.906  0.00  0.00    +0.000 A 
ATOM     33  C   UNL     1       1.138  16.070  19.320  0.00  0.00    +0.000 A 
ATOM     34  C   UNL     1       2.079  17.005  18.918  0.00  0.00    +0.000 A 
ATOM     35  F   UNL     1       1.967  18.272  19.320  0.00  0.00    +0.000 F 
ATOM     36  C   UNL     1       3.146  16.625  18.111  0.00  0.00    +0.000 A 
ATOM     37  C   UNL     1       3.270  15.292  17.702  0.00  0.00    +0.000 A 
ENDBRANCH  29  31
ENDBRANCH  28  29
ENDBRANCH   5  28
TORSDOF 7
ENDMDL
MODEL 2
REMARK VINA RESULT:      -8.3      0.606      1.027
REMARK  Name = 
REMARK  7 active torsions:
REMARK  status: ('A' for Active; 'I' for Inactive)
REMARK    1  A    between atoms: C_2  and  C_3
REMARK    2  A    between atoms: C_3  and  C_4
REMARK    3  A    between atoms: C_7  and  O_8
REMARK    4  A    between atoms: C_14  and  C_15
REMARK    5  A    between atoms: C_15  and  N_16
REMARK    6  A    between atoms: N_16  and  C_17
REMARK    7  A    between atoms: N_27  and  C_28
REMARK                            x       y       z     vdW  Elec       q    Type
REMARK                         _______ _______ _______ _____ _____    ______ ____
ROOT
ATOM      1  O   UNL     1       2.094   7.150  20.496  0.00  0.00    +0.000 OA
ATOM      2  C   UNL     1       2.151   7.690  19.386  0.00  0.00    +0.000 C 
ATOM      3  N   UNL     1       1.410   8.813  19.085  0.00  0.00    +0.000 N 
ATOM      4  C   UNL     1       1.386   9.534  17.832  0.00  0.00    +0.000 C 
ATOM      5  C   UNL     1       1.004  10.961  18.227  0.00  0.00    +0.000 C 
ATOM      6  C   UNL     1       0.236  10.758  19.567  0.00  0.00    +0.000 C 
ATOM      7  C   UNL     1       0.371   9.279  19.969  0.00  0.00    +0.000 C 
ATOM      8  C   UNL     1       0.702  11.689  20.699  0.00  0.00    +0.000 C 
ATOM      9  N   UNL     1      -0.618  11.624  21.229  0.00  0.00    +0.000 N 
ATOM     10  C   UNL     1      -1.181  11.344  19.932  0.00  0.00    +0.000 C 
ENDROOT
BRANCH   9  11
ATOM     11  C   UNL     1      -1.059  12.421  22.304  0.00  0.00    +0.000 A 
ATOM     12  C   UNL     1      -2.212  12.035  23.024  0.00  0.00    +0.000 A 
ATOM     13  C   UNL     1      -2.866  12.907  23.883  0.00  0.00    +0.000 A 
ATOM     14  C   UNL     1      -2.367  14.186  24.042  0.00  0.00    +0.000 A 
ATOM     15  F   UNL     1      -3.036  15.058  24.806  0.00  0.00    +0.000 F 
ATOM     16  C   UNL     1      -1.200  14.583  23.393  0.00  0.00    +0.000 A 
ATOM     17  C   UNL     1      -0.536  13.694  22.534  0.00  0.00    +0.000 A 
ENDBRANCH   9  11
BRANCH   2  18
ATOM     18  C   UNL     1       3.059   7.134  18.302  0.00  0.00    +0.000 C 
BRANCH  18  19
ATOM     19  C   UNL     1       3.062   5.627  18.170  0.00  0.00    +0.000 A 
ATOM     20  C   UNL     1       4.250   4.890  18.040  0.00  0.00    +0.000 A 
ATOM     21  C   UNL     1       4.221   3.494  17.936  0.00  0.00    +0.000 A 
ATOM     22  C   UNL     1       3.002   2.824  17.980  0.00  0.00    +0.000 A 
ATOM     23  C   UNL     1       1.822   3.542  18.140  0.00  0.00    +0.000 A 
ATOM     24  F   UNL     1       0.642   2.908  18.205  0.00  0.00    +0.000 F 
ATOM     25  C   UNL     1       1.846   4.930  18.241  0.00  0.00    +0.000 A 
BRANCH  22  26
ATOM     26  O   UNL     1       2.948   1.463  17.879  0.00  0.00    +0.000 OA
ATOM     27  H   UNL     1       3.203   1.072  18.728  0.00  0.00    +0.000 HD
ENDBRANCH  22  26
ENDBRANCH  18  19
ENDBRANCH   2  18
BRANCH   5  28
ATOM     28  C   UNL     1       2.295  11.787  18.434  0.00  0.00    +0.000 C 
BRANCH  28  29
ATOM     29  N   UNL     1       2.418  12.909  17.509  0.00  0.00    +0.000 N 
ATOM     30  H   UNL     1       1.775  12.868  16.724  0.00  0.00    +0.000 HD
BRANCH  29  31
ATOM     31  C   UNL     1       2.445  14.203  18.084  0.00  0.00    +0.000 A 
ATOM     32  C   UNL     1       3.489  15.119  17.858  0.00  0.00    +0.000 A 
ATOM     33  C   UNL     1       3.445  16.414  18.381  0.00  0.00    +0.000 A 
ATOM     34  C   UNL     1       2.345  16.817  19.121  0.00  0.00    +0.000 A 
ATOM     35  F   UNL     1       2.295  18.055  19.613  0.00  0.00    +0.000 F 
ATOM     36  C   UNL     1       1.287  15.940  19.340  0.00  0.00    +0.000 A 
ATOM     37  C   UNL     1       1.335  14.645  18.810  0.00  0.00    +0.000 A 
ENDBRANCH  29  31
ENDBRANCH  28  29
ENDBRANCH   5  28
TORSDOF 7
ENDMDL
MODEL 3
REMARK VINA RESULT:      -8.3      1.415      1.821
REMARK  Name = 
REMARK  7 active torsions:
REMARK  status: ('A' for Active; 'I' for Inactive)
REMARK    1  A    between atoms: C_2  and  C_3
REMARK    2  A    between atoms: C_3  and  C_4
REMARK    3  A    between atoms: C_7  and  O_8
REMARK    4  A    between atoms: C_14  and  C_15
REMARK    5  A    between atoms: C_15  and  N_16
REMARK    6  A    between atoms: N_16  and  C_17
REMARK    7  A    between atoms: N_27  and  C_28
REMARK                            x       y       z     vdW  Elec       q    Type
REMARK                         _______ _______ _______ _____ _____    ______ ____
ROOT
ATOM      1  O   UNL     1       1.380   7.693  21.602  0.00  0.00    +0.000 OA
ATOM      2  C   UNL     1       1.582   7.968  20.415  0.00  0.00    +0.000 C 
ATOM      3  N   UNL     1       0.960   9.034  19.799  0.00  0.00    +0.000 N 
ATOM      4  C   UNL     1       1.109   9.458  18.425  0.00  0.00    +0.000 C 
ATOM      5  C   UNL     1       0.800  10.956  18.459  0.00  0.00    +0.000 C 
ATOM      6  C   UNL     1      -0.103  11.098  19.720  0.00  0.00    +0.000 C 
ATOM      7  C   UNL     1      -0.119   9.740  20.444  0.00  0.00    +0.000 C 
ATOM      8  C   UNL     1       0.324  12.231  20.667  0.00  0.00    +0.000 C 
ATOM      9  N   UNL     1      -1.041  12.356  21.053  0.00  0.00    +0.000 N 
ATOM     10  C   UNL     1      -1.499  11.824  19.794  0.00  0.00    +0.000 C 
ENDROOT
BRANCH   9  11
ATOM     11  C   UNL     1      -1.520  13.395  21.877  0.00  0.00    +0.000 A 
ATOM     12  C   UNL     1      -1.930  13.099  23.196  0.00  0.00    +0.000 A 
ATOM     13  C   UNL     1      -2.677  13.993  23.949  0.00  0.00    +0.000 A 
ATOM     14  C   UNL     1      -3.020  15.211  23.392  0.00  0.00    +0.000 A 
ATOM     15  F   UNL     1      -3.807  16.046  24.081  0.00  0.00    +0.000 F 
ATOM     16  C   UNL     1      -2.585  15.559  22.115  0.00  0.00    +0.000 A 
ATOM     17  C   UNL     1      -1.821  14.657  21.361  0.00  0.00    +0.000 A 
ENDBRANCH   9  11
BRANCH   2  18
ATOM     18  C   UNL     1       2.543   7.137  19.581  0.00  0.00    +0.000 C 
BRANCH  18  19
ATOM     19  C   UNL     1       2.096   5.720  19.299  0.00  0.00    +0.000 A 
ATOM     20  C   UNL     1       2.129   5.166  18.010  0.00  0.00    +0.000 A 
ATOM     21  C   UNL     1       1.723   3.846  17.784  0.00  0.00    +0.000 A 
ATOM     22  C   UNL     1       1.297   3.062  18.853  0.00  0.00    +0.000 A 
ATOM     23  C   UNL     1       1.291   3.590  20.139  0.00  0.00    +0.000 A 
ATOM     24  F   UNL     1       0.903   2.840  21.182  0.00  0.00    +0.000 F 
ATOM     25  C   UNL     1       1.691   4.904  20.368  0.00  0.00    +0.000 A 
BRANCH  22  26
ATOM     26  O   UNL     1       0.896   1.772  18.658  0.00  0.00    +0.000 OA
ATOM     27  H   UNL     1       0.231   1.544  19.325  0.00  0.00    +0.000 HD
ENDBRANCH  22  26
ENDBRANCH  18  19
ENDBRANCH   2  18
BRANCH   5  28
ATOM     28  C   UNL     1       2.125  11.737  18.622  0.00  0.00    +0.000 C 
BRANCH  28  29
ATOM     29  N   UNL     1       2.285  12.813  17.649  0.00  0.00    +0.000 N 
ATOM     30  H   UNL     1       1.646  12.755  16.862  0.00  0.00    +0.000 HD
BRANCH  29  31
ATOM     31  C   UNL     1       2.341  14.130  18.168  0.00  0.00    +0.000 A 
ATOM     32  C   UNL     1       3.477  14.953  18.043  0.00  0.00    +0.000 A 
ATOM     33  C   UNL     1       3.471  16.273  18.501  0.00  0.00    +0.000 A 
ATOM     34  C   UNL     1       2.320  16.795  19.072  0.00  0.00    +0.000 A 
ATOM     35  F   UNL     1       2.308  18.058  19.500  0.00  0.00    +0.000 F 
ATOM     36  C   UNL     1       1.176  16.013  19.185  0.00  0.00    +0.000 A 
ATOM     37  C   UNL     1       1.187  14.692  18.721  0.00  0.00    +0.000 A 
ENDBRANCH  29  31
ENDBRANCH  28  29
ENDBRANCH   5  28
TORSDOF 7
ENDMDL
MODEL 4
REMARK VINA RESULT:      -8.2      0.869      1.435
REMARK  Name = 
REMARK  7 active torsions:
REMARK  status: ('A' for Active; 'I' for Inactive)
REMARK    1  A    between atoms: C_2  and  C_3
REMARK    2  A    between atoms: C_3  and  C_4
REMARK    3  A    between atoms: C_7  and  O_8
REMARK    4  A    between atoms: C_14  and  C_15
REMARK    5  A    between atoms: C_15  and  N_16
REMARK    6  A    between atoms: N_16  and  C_17
REMARK    7  A    between atoms: N_27  and  C_28
REMARK                            x       y       z     vdW  Elec       q    Type
REMARK                         _______ _______ _______ _____ _____    ______ ____
ROOT
ATOM      1  O   UNL     1       1.556   7.399  21.043  0.00  0.00    +0.000 OA
ATOM      2  C   UNL     1       1.775   7.880  19.927  0.00  0.00    +0.000 C 
ATOM      3  N   UNL     1       1.104   8.995  19.472  0.00  0.00    +0.000 N 
ATOM      4  C   UNL     1       1.266   9.652  18.193  0.00  0.00    +0.000 C 
ATOM      5  C   UNL     1       0.862  11.102  18.462  0.00  0.00    +0.000 C 
ATOM      6  C   UNL     1      -0.085  10.978  19.693  0.00  0.00    +0.000 C 
ATOM      7  C   UNL     1      -0.036   9.520  20.181  0.00  0.00    +0.000 C 
ATOM      8  C   UNL     1       0.241  11.960  20.830  0.00  0.00    +0.000 C 
ATOM      9  N   UNL     1      -1.140  11.939  21.177  0.00  0.00    +0.000 N 
ATOM     10  C   UNL     1      -1.526  11.601  19.830  0.00  0.00    +0.000 C 
ENDROOT
BRANCH   9  11
ATOM     11  C   UNL     1      -1.708  12.797  22.141  0.00  0.00    +0.000 A 
ATOM     12  C   UNL     1      -0.934  13.853  22.669  0.00  0.00    +0.000 A 
ATOM     13  C   UNL     1      -1.313  14.539  23.814  0.00  0.00    +0.000 A 
ATOM     14  C   UNL     1      -2.488  14.180  24.449  0.00  0.00    +0.000 A 
ATOM     15  F   UNL     1      -2.820  14.781  25.597  0.00  0.00    +0.000 F 
ATOM     16  C   UNL     1      -3.305  13.181  23.924  0.00  0.00    +0.000 A 
ATOM     17  C   UNL     1      -2.923  12.498  22.760  0.00  0.00    +0.000 A 
ENDBRANCH   9  11
BRANCH   2  18
ATOM     18  C   UNL     1       2.810   7.257  19.006  0.00  0.00    +0.000 C 
BRANCH  18  19
ATOM     19  C   UNL     1       2.713   5.756  18.844  0.00  0.00    +0.000 A 
ATOM     20  C   UNL     1       1.826   5.157  17.936  0.00  0.00    +0.000 A 
ATOM     21  C   UNL     1       1.770   3.765  17.799  0.00  0.00    +0.000 A 
ATOM     22  C   UNL     1       2.618   2.962  18.557  0.00  0.00    +0.000 A 
ATOM     23  C   UNL     1       3.523   3.547  19.436  0.00  0.00    +0.000 A 
ATOM     24  F   UNL     1       4.360   2.787  20.158  0.00  0.00    +0.000 F 
ATOM     25  C   UNL     1       3.579   4.931  19.578  0.00  0.00    +0.000 A 
BRANCH  22  26
ATOM     26  O   UNL     1       2.582   1.602  18.442  0.00  0.00    +0.000 OA
ATOM     27  H   UNL     1       2.924   1.349  17.571  0.00  0.00    +0.000 HD
ENDBRANCH  22  26
ENDBRANCH  18  19
ENDBRANCH   2  18
BRANCH   5  28
ATOM     28  C   UNL     1       2.129  11.920  18.804  0.00  0.00    +0.000 C 
BRANCH  28  29
ATOM     29  N   UNL     1       2.492  12.883  17.768  0.00  0.00    +0.000 N 
ATOM     30  H   UNL     1       2.140  12.647  16.845  0.00  0.00    +0.000 HD
BRANCH  29  31
ATOM     31  C   UNL     1       2.269  14.249  18.069  0.00  0.00    +0.000 A 
ATOM     32  C   UNL     1       1.151  14.699  18.796  0.00  0.00    +0.000 A 
ATOM     33  C   UNL     1       1.002  16.045  19.140  0.00  0.00    +0.000 A 
ATOM     34  C   UNL     1       1.981  16.957  18.777  0.00  0.00    +0.000 A 
ATOM     35  F   UNL     1       1.847  18.241  19.112  0.00  0.00    +0.000 F 
ATOM     36  C   UNL     1       3.109  16.536  18.080  0.00  0.00    +0.000 A 
ATOM     37  C   UNL     1       3.254  15.185  17.742  0.00  0.00    +0.000 A 
ENDBRANCH  29  31
ENDBRANCH  28  29
ENDBRANCH   5  28
TORSDOF 7
ENDMDL
MODEL 5
REMARK VINA RESULT:      -8.1      1.137      1.317
REMARK  Name = 
REMARK  7 active torsions:
REMARK  status: ('A' for Active; 'I' for Inactive)
REMARK    1  A    between atoms: C_2  and  C_3
REMARK    2  A    between atoms: C_3  and  C_4
REMARK    3  A    between atoms: C_7  and  O_8
REMARK    4  A    between atoms: C_14  and  C_15
REMARK    5  A    between atoms: C_15  and  N_16
REMARK    6  A    between atoms: N_16  and  C_17
REMARK    7  A    between atoms: N_27  and  C_28
REMARK                            x       y       z     vdW  Elec       q    Type
REMARK                         _______ _______ _______ _____ _____    ______ ____
ROOT
ATOM      1  O   UNL     1       1.463   7.653  21.553  0.00  0.00    +0.000 OA
ATOM      2  C   UNL     1       1.619   7.988  20.375  0.00  0.00    +0.000 C 
ATOM      3  N   UNL     1       0.970   9.078  19.836  0.00  0.00    +0.000 N 
ATOM      4  C   UNL     1       1.065   9.571  18.480  0.00  0.00    +0.000 C 
ATOM      5  C   UNL     1       0.752  11.063  18.600  0.00  0.00    +0.000 C 
ATOM      6  C   UNL     1      -0.105  11.137  19.899  0.00  0.00    +0.000 C 
ATOM      7  C   UNL     1      -0.088   9.745  20.555  0.00  0.00    +0.000 C 
ATOM      8  C   UNL     1       0.352  12.225  20.885  0.00  0.00    +0.000 C 
ATOM      9  N   UNL     1      -0.998  12.321  21.327  0.00  0.00    +0.000 N 
ATOM     10  C   UNL     1      -1.501  11.850  20.061  0.00  0.00    +0.000 C 
ENDROOT
BRANCH   9  11
ATOM     11  C   UNL     1      -1.451  13.315  22.218  0.00  0.00    +0.000 A 
ATOM     12  C   UNL     1      -2.264  12.945  23.312  0.00  0.00    +0.000 A 
ATOM     13  C   UNL     1      -2.979  13.882  24.044  0.00  0.00    +0.000 A 
ATOM     14  C   UNL     1      -2.884  15.216  23.694  0.00  0.00    +0.000 A 
ATOM     15  F   UNL     1      -3.632  16.117  24.343  0.00  0.00    +0.000 F 
ATOM     16  C   UNL     1      -2.048  15.624  22.657  0.00  0.00    +0.000 A 
ATOM     17  C   UNL     1      -1.318  14.674  21.927  0.00  0.00    +0.000 A 
ENDBRANCH   9  11
BRANCH   2  18
ATOM     18  C   UNL     1       2.552   7.205  19.466  0.00  0.00    +0.000 C 
BRANCH  18  19
ATOM     19  C   UNL     1       2.209   5.742  19.291  0.00  0.00    +0.000 A 
ATOM     20  C   UNL     1       1.592   4.992  20.304  0.00  0.00    +0.000 A 
ATOM     21  C   UNL     1       1.273   3.643  20.107  0.00  0.00    +0.000 A 
ATOM     22  C   UNL     1       1.553   3.040  18.884  0.00  0.00    +0.000 A 
ATOM     23  C   UNL     1       2.134   3.782  17.862  0.00  0.00    +0.000 A 
ATOM     24  F   UNL     1       2.391   3.220  16.672  0.00  0.00    +0.000 F 
ATOM     25  C   UNL     1       2.456   5.123  18.056  0.00  0.00    +0.000 A 
BRANCH  22  26
ATOM     26  O   UNL     1       1.252   1.726  18.667  0.00  0.00    +0.000 OA
ATOM     27  H   UNL     1       2.045   1.190  18.819  0.00  0.00    +0.000 HD
ENDBRANCH  22  26
ENDBRANCH  18  19
ENDBRANCH   2  18
BRANCH   5  28
ATOM     28  C   UNL     1       2.078  11.844  18.752  0.00  0.00    +0.000 C 
BRANCH  28  29
ATOM     29  N   UNL     1       2.297  12.823  17.692  0.00  0.00    +0.000 N 
ATOM     30  H   UNL     1       1.781  12.630  16.840  0.00  0.00    +0.000 HD
BRANCH  29  31
ATOM     31  C   UNL     1       2.188  14.187  18.060  0.00  0.00    +0.000 A 
ATOM     32  C   UNL     1       1.068  14.711  18.732  0.00  0.00    +0.000 A 
ATOM     33  C   UNL     1       1.027  16.044  19.146  0.00  0.00    +0.000 A 
ATOM     34  C   UNL     1       2.117  16.868  18.911  0.00  0.00    +0.000 A 
ATOM     35  F   UNL     1       2.085  18.139  19.314  0.00  0.00    +0.000 F 
ATOM     36  C   UNL     1       3.247  16.371  18.270  0.00  0.00    +0.000 A 
ATOM     37  C   UNL     1       3.283  15.032  17.861  0.00  0.00    +0.000 A 
ENDBRANCH  29  31
ENDBRANCH  28  29
ENDBRANCH   5  28
TORSDOF 7
ENDMDL
MODEL 6
REMARK VINA RESULT:      -8.1      1.602      1.969
REMARK  Name = 
REMARK  7 active torsions:
REMARK  status: ('A' for Active; 'I' for Inactive)
REMARK    1  A    between atoms: C_2  and  C_3
REMARK    2  A    between atoms: C_3  and  C_4
REMARK    3  A    between atoms: C_7  and  O_8
REMARK    4  A    between atoms: C_14  and  C_15
REMARK    5  A    between atoms: C_15  and  N_16
REMARK    6  A    between atoms: N_16  and  C_17
REMARK    7  A    between atoms: N_27  and  C_28
REMARK                            x       y       z     vdW  Elec       q    Type
REMARK                         _______ _______ _______ _____ _____    ______ ____
ROOT
ATOM      1  O   UNL     1       1.418   7.738  21.668  0.00  0.00    +0.000 OA
ATOM      2  C   UNL     1       1.515   8.084  20.486  0.00  0.00    +0.000 C 
ATOM      3  N   UNL     1       0.811   9.156  19.982  0.00  0.00    +0.000 N 
ATOM      4  C   UNL     1       0.835   9.660  18.627  0.00  0.00    +0.000 C 
ATOM      5  C   UNL     1       0.479  11.140  18.769  0.00  0.00    +0.000 C 
ATOM      6  C   UNL     1      -0.325  11.179  20.102  0.00  0.00    +0.000 C 
ATOM      7  C   UNL     1      -0.237   9.785  20.748  0.00  0.00    +0.000 C 
ATOM      8  C   UNL     1       0.137  12.276  21.076  0.00  0.00    +0.000 C 
ATOM      9  N   UNL     1      -1.197  12.327  21.573  0.00  0.00    +0.000 N 
ATOM     10  C   UNL     1      -1.735  11.847  20.326  0.00  0.00    +0.000 C 
ENDROOT
BRANCH   9  11
ATOM     11  C   UNL     1      -1.644  13.301  22.489  0.00  0.00    +0.000 A 
ATOM     12  C   UNL     1      -0.791  14.375  22.828  0.00  0.00    +0.000 A 
ATOM     13  C   UNL     1      -1.039  15.189  23.923  0.00  0.00    +0.000 A 
ATOM     14  C   UNL     1      -2.157  14.945  24.698  0.00  0.00    +0.000 A 
ATOM     15  F   UNL     1      -2.360  15.675  25.802  0.00  0.00    +0.000 F 
ATOM     16  C   UNL     1      -3.050  13.930  24.361  0.00  0.00    +0.000 A 
ATOM     17  C   UNL     1      -2.802  13.116  23.246  0.00  0.00    +0.000 A 
ENDBRANCH   9  11
BRANCH   2  18
ATOM     18  C   UNL     1       2.435   7.337  19.535  0.00  0.00    +0.000 C 
BRANCH  18  19
ATOM     19  C   UNL     1       2.054   5.898  19.264  0.00  0.00    +0.000 A 
ATOM     20  C   UNL     1       2.156   5.325  17.986  0.00  0.00    +0.000 A 
ATOM     21  C   UNL     1       1.810   3.985  17.770  0.00  0.00    +0.000 A 
ATOM     22  C   UNL     1       1.377   3.204  18.838  0.00  0.00    +0.000 A 
ATOM     23  C   UNL     1       1.303   3.753  20.113  0.00  0.00    +0.000 A 
ATOM     24  F   UNL     1       0.907   3.006  21.155  0.00  0.00    +0.000 F 
ATOM     25  C   UNL     1       1.643   5.086  20.332  0.00  0.00    +0.000 A 
BRANCH  22  26
ATOM     26  O   UNL     1       1.034   1.896  18.653  0.00  0.00    +0.000 OA
ATOM     27  H   UNL     1       0.788   1.761  17.725  0.00  0.00    +0.000 HD
ENDBRANCH  22  26
ENDBRANCH  18  19
ENDBRANCH   2  18
BRANCH   5  28
ATOM     28  C   UNL     1       1.785  11.962  18.873  0.00  0.00    +0.000 C 
BRANCH  28  29
ATOM     29  N   UNL     1       1.769  13.177  18.064  0.00  0.00    +0.000 N 
ATOM     30  H   UNL     1       1.339  13.059  17.152  0.00  0.00    +0.000 HD
BRANCH  29  31
ATOM     31  C   UNL     1       1.307  14.354  18.701  0.00  0.00    +0.000 A 
ATOM     32  C   UNL     1      -0.027  14.796  18.616  0.00  0.00    +0.000 A 
ATOM     33  C   UNL     1      -0.467  15.920  19.319  0.00  0.00    +0.000 A 
ATOM     34  C   UNL     1       0.419  16.608  20.134  0.00  0.00    +0.000 A 
ATOM     35  F   UNL     1       0.001  17.676  20.815  0.00  0.00    +0.000 F 
ATOM     36  C   UNL     1       1.737  16.179  20.256  0.00  0.00    +0.000 A 
ATOM     37  C   UNL     1       2.170  15.049  19.552  0.00  0.00    +0.000 A 
ENDBRANCH  29  31
ENDBRANCH  28  29
ENDBRANCH   5  28
TORSDOF 7
ENDMDL
MODEL 7
REMARK VINA RESULT:      -8.1      1.259      1.524
REMARK  Name = 
REMARK  7 active torsions:
REMARK  status: ('A' for Active; 'I' for Inactive)
REMARK    1  A    between atoms: C_2  and  C_3
REMARK    2  A    between atoms: C_3  and  C_4
REMARK    3  A    between atoms: C_7  and  O_8
REMARK    4  A    between atoms: C_14  and  C_15
REMARK    5  A    between atoms: C_15  and  N_16
REMARK    6  A    between atoms: N_16  and  C_17
REMARK    7  A    between atoms: N_27  and  C_28
REMARK                            x       y       z     vdW  Elec       q    Type
REMARK                         _______ _______ _______ _____ _____    ______ ____
ROOT
ATOM      1  O   UNL     1       1.606   7.344  20.882  0.00  0.00    +0.000 OA
ATOM      2  C   UNL     1       1.860   7.839  19.780  0.00  0.00    +0.000 C 
ATOM      3  N   UNL     1       1.184   8.943  19.305  0.00  0.00    +0.000 N 
ATOM      4  C   UNL     1       1.384   9.613  18.039  0.00  0.00    +0.000 C 
ATOM      5  C   UNL     1       0.936  11.052  18.301  0.00  0.00    +0.000 C 
ATOM      6  C   UNL     1      -0.059  10.897  19.490  0.00  0.00    +0.000 C 
ATOM      7  C   UNL     1       0.003   9.436  19.970  0.00  0.00    +0.000 C 
ATOM      8  C   UNL     1       0.196  11.876  20.648  0.00  0.00    +0.000 C 
ATOM      9  N   UNL     1      -1.197  11.821  20.936  0.00  0.00    +0.000 N 
ATOM     10  C   UNL     1      -1.519  11.485  19.572  0.00  0.00    +0.000 C 
ENDROOT
BRANCH   9  11
ATOM     11  C   UNL     1      -1.824  12.657  21.882  0.00  0.00    +0.000 A 
ATOM     12  C   UNL     1      -2.372  12.088  23.053  0.00  0.00    +0.000 A 
ATOM     13  C   UNL     1      -3.248  12.789  23.868  0.00  0.00    +0.000 A 
ATOM     14  C   UNL     1      -3.588  14.084  23.525  0.00  0.00    +0.000 A 
ATOM     15  F   UNL     1      -4.494  14.739  24.260  0.00  0.00    +0.000 F 
ATOM     16  C   UNL     1      -3.024  14.697  22.408  0.00  0.00    +0.000 A 
ATOM     17  C   UNL     1      -2.129  13.988  21.593  0.00  0.00    +0.000 A 
ENDBRANCH   9  11
BRANCH   2  18
ATOM     18  C   UNL     1       2.947   7.248  18.898  0.00  0.00    +0.000 C 
BRANCH  18  19
ATOM     19  C   UNL     1       2.898   5.745  18.730  0.00  0.00    +0.000 A 
ATOM     20  C   UNL     1       1.922   5.111  17.945  0.00  0.00    +0.000 A 
ATOM     21  C   UNL     1       1.912   3.719  17.797  0.00  0.00    +0.000 A 
ATOM     22  C   UNL     1       2.893   2.952  18.419  0.00  0.00    +0.000 A 
ATOM     23  C   UNL     1       3.883   3.572  19.173  0.00  0.00    +0.000 A 
ATOM     24  F   UNL     1       4.846   2.847  19.761  0.00  0.00    +0.000 F 
ATOM     25  C   UNL     1       3.895   4.956  19.326  0.00  0.00    +0.000 A 
BRANCH  22  26
ATOM     26  O   UNL     1       2.904   1.593  18.290  0.00  0.00    +0.000 OA
ATOM     27  H   UNL     1       2.899   1.364  17.349  0.00  0.00    +0.000 HD
ENDBRANCH  22  26
ENDBRANCH  18  19
ENDBRANCH   2  18
BRANCH   5  28
ATOM     28  C   UNL     1       2.168  11.895  18.702  0.00  0.00    +0.000 C 
BRANCH  28  29
ATOM     29  N   UNL     1       2.438  12.998  17.784  0.00  0.00    +0.000 N 
ATOM     30  H   UNL     1       1.680  13.189  17.137  0.00  0.00    +0.000 HD
BRANCH  29  31
ATOM     31  C   UNL     1       2.936  14.192  18.359  0.00  0.00    +0.000 A 
ATOM     32  C   UNL     1       3.207  14.324  19.734  0.00  0.00    +0.000 A 
ATOM     33  C   UNL     1       3.770  15.491  20.255  0.00  0.00    +0.000 A 
ATOM     34  C   UNL     1       4.087  16.538  19.403  0.00  0.00    +0.000 A 
ATOM     35  F   UNL     1       4.633  17.651  19.896  0.00  0.00    +0.000 F 
ATOM     36  C   UNL     1       3.852  16.427  18.037  0.00  0.00    +0.000 A 
ATOM     37  C   UNL     1       3.293  15.252  17.520  0.00  0.00    +0.000 A 
ENDBRANCH  29  31
ENDBRANCH  28  29
ENDBRANCH   5  28
TORSDOF 7
ENDMDL
MODEL 8
REMARK VINA RESULT:      -8.0      1.226      1.785
REMARK  Name = 
REMARK  7 active torsions:
REMARK  status: ('A' for Active; 'I' for Inactive)
REMARK    1  A    between atoms: C_2  and  C_3
REMARK    2  A    between atoms: C_3  and  C_4
REMARK    3  A    between atoms: C_7  and  O_8
REMARK    4  A    between atoms: C_14  and  C_15
REMARK    5  A    between atoms: C_15  and  N_16
REMARK    6  A    between atoms: N_16  and  C_17
REMARK    7  A    between atoms: N_27  and  C_28
REMARK                            x       y       z     vdW  Elec       q    Type
REMARK                         _______ _______ _______ _____ _____    ______ ____
ROOT
ATOM      1  O   UNL     1       1.303   7.740  21.606  0.00  0.00    +0.000 OA
ATOM      2  C   UNL     1       1.530   8.035  20.428  0.00  0.00    +0.000 C 
ATOM      3  N   UNL     1       0.905   9.097  19.811  0.00  0.00    +0.000 N 
ATOM      4  C   UNL     1       1.080   9.543  18.446  0.00  0.00    +0.000 C 
ATOM      5  C   UNL     1       0.744  11.034  18.492  0.00  0.00    +0.000 C 
ATOM      6  C   UNL     1      -0.193  11.143  19.732  0.00  0.00    +0.000 C 
ATOM      7  C   UNL     1      -0.203   9.776  20.437  0.00  0.00    +0.000 C 
ATOM      8  C   UNL     1       0.189  12.271  20.704  0.00  0.00    +0.000 C 
ATOM      9  N   UNL     1      -1.187  12.366  21.057  0.00  0.00    +0.000 N 
ATOM     10  C   UNL     1      -1.604  11.844  19.780  0.00  0.00    +0.000 C 
ENDROOT
BRANCH   9  11
ATOM     11  C   UNL     1      -1.705  13.385  21.882  0.00  0.00    +0.000 A 
ATOM     12  C   UNL     1      -1.525  14.736  21.509  0.00  0.00    +0.000 A 
ATOM     13  C   UNL     1      -1.739  15.777  22.400  0.00  0.00    +0.000 A 
ATOM     14  C   UNL     1      -2.148  15.481  23.687  0.00  0.00    +0.000 A 
ATOM     15  F   UNL     1      -2.279  16.473  24.576  0.00  0.00    +0.000 F 
ATOM     16  C   UNL     1      -2.390  14.164  24.073  0.00  0.00    +0.000 A 
ATOM     17  C   UNL     1      -2.183  13.115  23.165  0.00  0.00    +0.000 A 
ENDBRANCH   9  11
BRANCH   2  18
ATOM     18  C   UNL     1       2.526   7.233  19.608  0.00  0.00    +0.000 C 
BRANCH  18  19
ATOM     19  C   UNL     1       2.167   5.779  19.394  0.00  0.00    +0.000 A 
ATOM     20  C   UNL     1       1.530   5.012  20.383  0.00  0.00    +0.000 A 
ATOM     21  C   UNL     1       1.197   3.673  20.149  0.00  0.00    +0.000 A 
ATOM     22  C   UNL     1       1.482   3.096  18.915  0.00  0.00    +0.000 A 
ATOM     23  C   UNL     1       2.083   3.855  17.917  0.00  0.00    +0.000 A 
ATOM     24  F   UNL     1       2.344   3.319  16.716  0.00  0.00    +0.000 F 
ATOM     25  C   UNL     1       2.419   5.187  18.147  0.00  0.00    +0.000 A 
BRANCH  22  26
ATOM     26  O   UNL     1       1.167   1.791  18.663  0.00  0.00    +0.000 OA
ATOM     27  H   UNL     1       0.788   1.723  17.774  0.00  0.00    +0.000 HD
ENDBRANCH  22  26
ENDBRANCH  18  19
ENDBRANCH   2  18
BRANCH   5  28
ATOM     28  C   UNL     1       2.050  11.836  18.699  0.00  0.00    +0.000 C 
BRANCH  28  29
ATOM     29  N   UNL     1       2.275  12.849  17.672  0.00  0.00    +0.000 N 
ATOM     30  H   UNL     1       1.702  12.730  16.843  0.00  0.00    +0.000 HD
BRANCH  29  31
ATOM     31  C   UNL     1       2.277  14.198  18.104  0.00  0.00    +0.000 A 
ATOM     32  C   UNL     1       3.323  15.093  17.812  0.00  0.00    +0.000 A 
ATOM     33  C   UNL     1       3.257  16.437  18.190  0.00  0.00    +0.000 A 
ATOM     34  C   UNL     1       2.131  16.908  18.848  0.00  0.00    +0.000 A 
ATOM     35  F   UNL     1       2.059  18.192  19.201  0.00  0.00    +0.000 F 
ATOM     36  C   UNL     1       1.071  16.052  19.127  0.00  0.00    +0.000 A 
ATOM     37  C   UNL     1       1.143  14.707  18.743  0.00  0.00    +0.000 A 
ENDBRANCH  29  31
ENDBRANCH  28  29
ENDBRANCH   5  28
TORSDOF 7
ENDMDL
MODEL 9
REMARK VINA RESULT:      -8.0      1.721      2.101
REMARK  Name = 
REMARK  7 active torsions:
REMARK  status: ('A' for Active; 'I' for Inactive)
REMARK    1  A    between atoms: C_2  and  C_3
REMARK    2  A    between atoms: C_3  and  C_4
REMARK    3  A    between atoms: C_7  and  O_8
REMARK    4  A    between atoms: C_14  and  C_15
REMARK    5  A    between atoms: C_15  and  N_16
REMARK    6  A    between atoms: N_16  and  C_17
REMARK    7  A    between atoms: N_27  and  C_28
REMARK                            x       y       z     vdW  Elec       q    Type
REMARK                         _______ _______ _______ _____ _____    ______ ____
ROOT
ATOM      1  O   UNL     1       1.335   7.821  21.502  0.00  0.00    +0.000 OA
ATOM      2  C   UNL     1       1.551   8.119  20.323  0.00  0.00    +0.000 C 
ATOM      3  N   UNL     1       0.959   9.214  19.730  0.00  0.00    +0.000 N 
ATOM      4  C   UNL     1       1.127   9.668  18.368  0.00  0.00    +0.000 C 
ATOM      5  C   UNL     1       0.855  11.172  18.436  0.00  0.00    +0.000 C 
ATOM      6  C   UNL     1      -0.052  11.305  19.696  0.00  0.00    +0.000 C 
ATOM      7  C   UNL     1      -0.106   9.931  20.386  0.00  0.00    +0.000 C 
ATOM      8  C   UNL     1       0.396  12.404  20.673  0.00  0.00    +0.000 C 
ATOM      9  N   UNL     1      -0.968  12.553  21.054  0.00  0.00    +0.000 N 
ATOM     10  C   UNL     1      -1.431  12.064  19.780  0.00  0.00    +0.000 C 
ENDROOT
BRANCH   9  11
ATOM     11  C   UNL     1      -1.426  13.583  21.900  0.00  0.00    +0.000 A 
ATOM     12  C   UNL     1      -1.717  14.852  21.351  0.00  0.00    +0.000 A 
ATOM     13  C   UNL     1      -1.881  15.975  22.147  0.00  0.00    +0.000 A 
ATOM     14  C   UNL     1      -1.765  15.844  23.519  0.00  0.00    +0.000 A 
ATOM     15  F   UNL     1      -1.842  16.936  24.289  0.00  0.00    +0.000 F 
ATOM     16  C   UNL     1      -1.535  14.598  24.099  0.00  0.00    +0.000 A 
ATOM     17  C   UNL     1      -1.381  13.463  23.290  0.00  0.00    +0.000 A 
ENDBRANCH   9  11
BRANCH   2  18
ATOM     18  C   UNL     1       2.497   7.286  19.474  0.00  0.00    +0.000 C 
BRANCH  18  19
ATOM     19  C   UNL     1       2.054   5.861  19.222  0.00  0.00    +0.000 A 
ATOM     20  C   UNL     1       2.066   5.289  17.941  0.00  0.00    +0.000 A 
ATOM     21  C   UNL     1       1.665   3.962  17.742  0.00  0.00    +0.000 A 
ATOM     22  C   UNL     1       1.266   3.192  18.831  0.00  0.00    +0.000 A 
ATOM     23  C   UNL     1       1.281   3.739  20.109  0.00  0.00    +0.000 A 
ATOM     24  F   UNL     1       0.919   3.002  21.170  0.00  0.00    +0.000 F 
ATOM     25  C   UNL     1       1.676   5.059  20.310  0.00  0.00    +0.000 A 
BRANCH  22  26
ATOM     26  O   UNL     1       0.870   1.897  18.663  0.00  0.00    +0.000 OA
ATOM     27  H   UNL     1       0.498   1.569  19.496  0.00  0.00    +0.000 HD
ENDBRANCH  22  26
ENDBRANCH  18  19
ENDBRANCH   2  18
BRANCH   5  28
ATOM     28  C   UNL     1       2.197  11.916  18.626  0.00  0.00    +0.000 C 
BRANCH  28  29
ATOM     29  N   UNL     1       2.384  13.019  17.688  0.00  0.00    +0.000 N 
ATOM     30  H   UNL     1       1.554  13.248  17.151  0.00  0.00    +0.000 HD
BRANCH  29  31
ATOM     31  C   UNL     1       3.000  14.187  18.202  0.00  0.00    +0.000 A 
ATOM     32  C   UNL     1       3.145  15.369  17.450  0.00  0.00    +0.000 A 
ATOM     33  C   UNL     1       3.689  16.525  18.013  0.00  0.00    +0.000 A 
ATOM     34  C   UNL     1       4.078  16.522  19.343  0.00  0.00    +0.000 A 
ATOM     35  F   UNL     1       4.589  17.627  19.887  0.00  0.00    +0.000 F 
ATOM     36  C   UNL     1       3.924  15.376  20.117  0.00  0.00    +0.000 A 
ATOM     37  C   UNL     1       3.374  14.221  19.548  0.00  0.00    +0.000 A 
ENDBRANCH  29  31
ENDBRANCH  28  29
ENDBRANCH   5  28
TORSDOF 7
ENDMDL
