MODEL 1
REMARK VINA RESULT:      -7.1      0.000      0.000
REMARK  Name = 
REMARK  9 active torsions:
REMARK  status: ('A' for Active; 'I' for Inactive)
REMARK    1  A    between atoms: C_1  and  C_2
REMARK    2  A    between atoms: C_2  and  O_3
REMARK    3  A    between atoms: O_3  and  C_4
REMARK    4  A    between atoms: C_4  and  C_6
REMARK    5  A    between atoms: C_6  and  N_7
REMARK    6  A    between atoms: C_6  and  C_18
REMARK    7  A    between atoms: N_7  and  C_8
REMARK    8  A    between atoms: C_11  and  S_12
REMARK    9  A    between atoms: S_12  and  N_13
REMARK                            x       y       z     vdW  Elec       q    Type
REMARK                         _______ _______ _______ _____ _____    ______ ____
ROOT
ATOM      1  N   UNL     1       2.477   6.834  20.341  0.00  0.00    +0.000 N 
ATOM      2  H   UNL     1       3.466   7.012  20.502  0.00  0.00    +0.000 HD
ENDROOT
BRANCH   1   3
ATOM      3  C   UNL     1       1.824   8.011  19.947  0.00  0.00    +0.000 A 
ATOM      4  C   UNL     1       1.863   8.521  18.644  0.00  0.00    +0.000 A 
ATOM      5  C   UNL     1       1.107   9.646  18.284  0.00  0.00    +0.000 A 
ATOM      6  C   UNL     1       0.269  10.247  19.221  0.00  0.00    +0.000 A 
ATOM      7  C   UNL     1       0.202   9.755  20.522  0.00  0.00    +0.000 A 
ATOM      8  C   UNL     1       0.969   8.640  20.872  0.00  0.00    +0.000 A 
BRANCH   6   9
ATOM      9  S   UNL     1      -0.705  11.644  18.764  0.00  0.00    +0.000 S 
ATOM     10  O   UNL     1      -1.808  11.790  19.693  0.00  0.00    +0.000 OA
ATOM     11  O   UNL     1       0.163  12.743  18.417  0.00  0.00    +0.000 OA
BRANCH   9  12
ATOM     12  N   UNL     1      -1.393  11.119  17.322  0.00  0.00    +0.000 NA
ATOM     13  H   UNL     1      -2.194  11.704  17.082  0.00  0.00    +0.000 HD
ATOM     14  H   UNL     1      -0.683  11.063  16.594  0.00  0.00    +0.000 HD
ENDBRANCH   9  12
ENDBRANCH   6   9
ENDBRANCH   1   3
BRANCH   1  15
ATOM     15  C   UNL     1       2.293   5.583  19.560  0.00  0.00    +0.000 C 
BRANCH  15  16
ATOM     16  C   UNL     1       3.588   5.306  18.801  0.00  0.00    +0.000 A 
ATOM     17  C   UNL     1       3.595   5.321  17.395  0.00  0.00    +0.000 A 
ATOM     18  C   UNL     1       4.784   5.123  16.689  0.00  0.00    +0.000 A 
ATOM     19  C   UNL     1       5.974   4.905  17.380  0.00  0.00    +0.000 A 
ATOM     20 CL   UNL     1       7.437   4.660  16.510  0.00  0.00    +0.000 Cl
ATOM     21  C   UNL     1       5.986   4.892  18.774  0.00  0.00    +0.000 A 
ATOM     22  C   UNL     1       4.799   5.098  19.482  0.00  0.00    +0.000 A 
ENDBRANCH  15  16
BRANCH  15  23
ATOM     23  C   UNL     1       1.838   4.361  20.389  0.00  0.00    +0.000 C 
ATOM     24  O   UNL     1       2.157   4.200  21.564  0.00  0.00    +0.000 OA
BRANCH  23  25
ATOM     25  O   UNL     1       1.070   3.481  19.682  0.00  0.00    +0.000 OA
BRANCH  25  27
ATOM     26  C   UNL     1       2.248   2.045  18.074  0.00  0.00    +0.000 C 
ATOM     27  C   UNL     1       1.648   2.184  19.460  0.00  0.00    +0.000 C 
ENDBRANCH  25  27
ENDBRANCH  23  25
ENDBRANCH  15  23
ENDBRANCH   1  15
TORSDOF 8
ENDMDL
MODEL 2
REMARK VINA RESULT:      -7.0      1.351      1.499
REMARK  Name = 
REMARK  9 active torsions:
REMARK  status: ('A' for Active; 'I' for Inactive)
REMARK    1  A    between atoms: C_1  and  C_2
REMARK    2  A    between atoms: C_2  and  O_3
REMARK    3  A    between atoms: O_3  and  C_4
REMARK    4  A    between atoms: C_4  and  C_6
REMARK    5  A    between atoms: C_6  and  N_7
REMARK    6  A    between atoms: C_6  and  C_18
REMARK    7  A    between atoms: N_7  and  C_8
REMARK    8  A    between atoms: C_11  and  S_12
REMARK    9  A    between atoms: S_12  and  N_13
REMARK                            x       y       z     vdW  Elec       q    Type
REMARK                         _______ _______ _______ _____ _____    ______ ____
ROOT
ATOM      1  N   UNL     1       2.671   7.486  19.340  0.00  0.00    +0.000 N 
ATOM      2  H   UNL     1       3.585   7.802  19.022  0.00  0.00    +0.000 HD
ENDROOT
BRANCH   1   3
ATOM      3  C   UNL     1       1.720   8.504  19.188  0.00  0.00    +0.000 A 
ATOM      4  C   UNL     1       1.343   9.035  17.948  0.00  0.00    +0.000 A 
ATOM      5  C   UNL     1       0.312   9.980  17.848  0.00  0.00    +0.000 A 
ATOM      6  C   UNL     1      -0.383  10.372  18.991  0.00  0.00    +0.000 A 
ATOM      7  C   UNL     1      -0.037   9.853  20.236  0.00  0.00    +0.000 A 
ATOM      8  C   UNL     1       1.001   8.920  20.324  0.00  0.00    +0.000 A 
BRANCH   6   9
ATOM      9  S   UNL     1      -1.699  11.537  18.865  0.00  0.00    +0.000 S 
ATOM     10  O   UNL     1      -2.873  10.884  18.318  0.00  0.00    +0.000 OA
ATOM     11  O   UNL     1      -1.750  12.338  20.064  0.00  0.00    +0.000 OA
BRANCH   9  12
ATOM     12  N   UNL     1      -1.138  12.553  17.649  0.00  0.00    +0.000 NA
ATOM     13  H   UNL     1      -0.539  12.034  17.006  0.00  0.00    +0.000 HD
ATOM     14  H   UNL     1      -1.919  13.030  17.201  0.00  0.00    +0.000 HD
ENDBRANCH   9  12
ENDBRANCH   6   9
ENDBRANCH   1   3
BRANCH   1  15
ATOM     15  C   UNL     1       2.388   6.118  18.833  0.00  0.00    +0.000 C 
BRANCH  15  16
ATOM     16  C   UNL     1       3.447   5.772  17.790  0.00  0.00    +0.000 A 
ATOM     17  C   UNL     1       4.291   6.776  17.285  0.00  0.00    +0.000 A 
ATOM     18  C   UNL     1       5.300   6.463  16.370  0.00  0.00    +0.000 A 
ATOM     19  C   UNL     1       5.470   5.146  15.950  0.00  0.00    +0.000 A 
ATOM     20 CL   UNL     1       6.711   4.762  14.823  0.00  0.00    +0.000 Cl
ATOM     21  C   UNL     1       4.646   4.137  16.443  0.00  0.00    +0.000 A 
ATOM     22  C   UNL     1       3.642   4.447  17.365  0.00  0.00    +0.000 A 
ENDBRANCH  15  16
BRANCH  15  23
ATOM     23  C   UNL     1       2.277   5.030  19.924  0.00  0.00    +0.000 C 
ATOM     24  O   UNL     1       3.236   4.669  20.601  0.00  0.00    +0.000 OA
BRANCH  23  25
ATOM     25  O   UNL     1       1.022   4.506  20.042  0.00  0.00    +0.000 OA
BRANCH  25  27
ATOM     26  C   UNL     1       0.931   2.413  18.759  0.00  0.00    +0.000 C 
ATOM     27  C   UNL     1       0.949   3.073  20.125  0.00  0.00    +0.000 C 
ENDBRANCH  25  27
ENDBRANCH  23  25
ENDBRANCH  15  23
ENDBRANCH   1  15
TORSDOF 8
ENDMDL
MODEL 3
REMARK VINA RESULT:      -7.0      1.656      2.316
REMARK  Name = 
REMARK  9 active torsions:
REMARK  status: ('A' for Active; 'I' for Inactive)
REMARK    1  A    between atoms: C_1  and  C_2
REMARK    2  A    between atoms: C_2  and  O_3
REMARK    3  A    between atoms: O_3  and  C_4
REMARK    4  A    between atoms: C_4  and  C_6
REMARK    5  A    between atoms: C_6  and  N_7
REMARK    6  A    between atoms: C_6  and  C_18
REMARK    7  A    between atoms: N_7  and  C_8
REMARK    8  A    between atoms: C_11  and  S_12
REMARK    9  A    between atoms: S_12  and  N_13
REMARK                            x       y       z     vdW  Elec       q    Type
REMARK                         _______ _______ _______ _____ _____    ______ ____
ROOT
ATOM      1  N   UNL     1       3.912   5.805  19.345  0.00  0.00    +0.000 N 
ATOM      2  H   UNL     1       4.852   6.189  19.273  0.00  0.00    +0.000 HD
ENDROOT
BRANCH   1   3
ATOM      3  C   UNL     1       2.957   6.829  19.273  0.00  0.00    +0.000 A 
ATOM      4  C   UNL     1       2.171   7.234  20.359  0.00  0.00    +0.000 A 
ATOM      5  C   UNL     1       1.305   8.332  20.256  0.00  0.00    +0.000 A 
ATOM      6  C   UNL     1       1.249   9.062  19.069  0.00  0.00    +0.000 A 
ATOM      7  C   UNL     1       2.026   8.687  17.976  0.00  0.00    +0.000 A 
ATOM      8  C   UNL     1       2.878   7.584  18.088  0.00  0.00    +0.000 A 
BRANCH   6   9
ATOM      9  S   UNL     1       0.182  10.460  18.946  0.00  0.00    +0.000 S 
ATOM     10  O   UNL     1      -0.802  10.414  20.009  0.00  0.00    +0.000 OA
ATOM     11  O   UNL     1       0.966  11.640  18.670  0.00  0.00    +0.000 OA
BRANCH   9  12
ATOM     12  N   UNL     1      -0.661  10.120  17.531  0.00  0.00    +0.000 NA
ATOM     13  H   UNL     1      -1.168  10.947  17.216  0.00  0.00    +0.000 HD
ATOM     14  H   UNL     1      -0.033   9.723  16.834  0.00  0.00    +0.000 HD
ENDBRANCH   9  12
ENDBRANCH   6   9
ENDBRANCH   1   3
BRANCH   1  15
ATOM     15  C   UNL     1       3.777   4.597  18.491  0.00  0.00    +0.000 C 
BRANCH  15  16
ATOM     16  C   UNL     1       4.778   4.713  17.346  0.00  0.00    +0.000 A 
ATOM     17  C   UNL     1       4.561   4.012  16.147  0.00  0.00    +0.000 A 
ATOM     18  C   UNL     1       5.442   4.152  15.072  0.00  0.00    +0.000 A 
ATOM     19  C   UNL     1       6.547   4.992  15.186  0.00  0.00    +0.000 A 
ATOM     20 CL   UNL     1       7.632   5.164  13.863  0.00  0.00    +0.000 Cl
ATOM     21  C   UNL     1       6.776   5.699  16.365  0.00  0.00    +0.000 A 
ATOM     22  C   UNL     1       5.892   5.566  17.439  0.00  0.00    +0.000 A 
ENDBRANCH  15  16
BRANCH  15  23
ATOM     23  C   UNL     1       3.911   3.253  19.241  0.00  0.00    +0.000 C 
ATOM     24  O   UNL     1       4.972   2.866  19.725  0.00  0.00    +0.000 OA
BRANCH  23  25
ATOM     25  O   UNL     1       2.748   2.540  19.291  0.00  0.00    +0.000 OA
BRANCH  25  27
ATOM     26  C   UNL     1       0.869   3.728  20.340  0.00  0.00    +0.000 C 
ATOM     27  C   UNL     1       1.971   2.696  20.491  0.00  0.00    +0.000 C 
ENDBRANCH  25  27
ENDBRANCH  23  25
ENDBRANCH  15  23
ENDBRANCH   1  15
TORSDOF 8
ENDMDL
MODEL 4
REMARK VINA RESULT:      -7.0      1.698      2.387
REMARK  Name = 
REMARK  9 active torsions:
REMARK  status: ('A' for Active; 'I' for Inactive)
REMARK    1  A    between atoms: C_1  and  C_2
REMARK    2  A    between atoms: C_2  and  O_3
REMARK    3  A    between atoms: O_3  and  C_4
REMARK    4  A    between atoms: C_4  and  C_6
REMARK    5  A    between atoms: C_6  and  N_7
REMARK    6  A    between atoms: C_6  and  C_18
REMARK    7  A    between atoms: N_7  and  C_8
REMARK    8  A    between atoms: C_11  and  S_12
REMARK    9  A    between atoms: S_12  and  N_13
REMARK                            x       y       z     vdW  Elec       q    Type
REMARK                         _______ _______ _______ _____ _____    ______ ____
ROOT
ATOM      1  N   UNL     1       2.779   6.409  19.273  0.00  0.00    +0.000 N 
ATOM      2  H   UNL     1       3.779   6.588  19.338  0.00  0.00    +0.000 HD
ENDROOT
BRANCH   1   3
ATOM      3  C   UNL     1       2.054   7.592  19.475  0.00  0.00    +0.000 A 
ATOM      4  C   UNL     1       1.559   7.996  20.720  0.00  0.00    +0.000 A 
ATOM      5  C   UNL     1       0.930   9.239  20.881  0.00  0.00    +0.000 A 
ATOM      6  C   UNL     1       0.828  10.110  19.798  0.00  0.00    +0.000 A 
ATOM      7  C   UNL     1       1.320   9.739  18.549  0.00  0.00    +0.000 A 
ATOM      8  C   UNL     1       1.935   8.492  18.399  0.00  0.00    +0.000 A 
BRANCH   6   9
ATOM      9  S   UNL     1       0.064  11.686  20.003  0.00  0.00    +0.000 S 
ATOM     10  O   UNL     1       0.626  12.623  19.050  0.00  0.00    +0.000 OA
ATOM     11  O   UNL     1      -1.358  11.513  20.170  0.00  0.00    +0.000 OA
BRANCH   9  12
ATOM     12  N   UNL     1       0.657  12.156  21.505  0.00  0.00    +0.000 NA
ATOM     13  H   UNL     1      -0.051  12.005  22.224  0.00  0.00    +0.000 HD
ATOM     14  H   UNL     1       1.547  11.698  21.691  0.00  0.00    +0.000 HD
ENDBRANCH   9  12
ENDBRANCH   6   9
ENDBRANCH   1   3
BRANCH   1  15
ATOM     15  C   UNL     1       2.480   5.541  18.105  0.00  0.00    +0.000 C 
BRANCH  15  16
ATOM     16  C   UNL     1       3.764   5.380  17.296  0.00  0.00    +0.000 A 
ATOM     17  C   UNL     1       4.178   4.103  16.879  0.00  0.00    +0.000 A 
ATOM     18  C   UNL     1       5.322   3.947  16.093  0.00  0.00    +0.000 A 
ATOM     19  C   UNL     1       6.063   5.066  15.719  0.00  0.00    +0.000 A 
ATOM     20 CL   UNL     1       7.472   4.874  14.752  0.00  0.00    +0.000 Cl
ATOM     21  C   UNL     1       5.666   6.340  16.118  0.00  0.00    +0.000 A 
ATOM     22  C   UNL     1       4.517   6.498  16.898  0.00  0.00    +0.000 A 
ENDBRANCH  15  16
BRANCH  15  23
ATOM     23  C   UNL     1       1.843   4.178  18.453  0.00  0.00    +0.000 C 
ATOM     24  O   UNL     1       1.045   3.609  17.712  0.00  0.00    +0.000 OA
BRANCH  23  25
ATOM     25  O   UNL     1       2.240   3.686  19.664  0.00  0.00    +0.000 OA
BRANCH  25  27
ATOM     26  C   UNL     1       1.683   2.617  21.804  0.00  0.00    +0.000 C 
ATOM     27  C   UNL     1       1.185   3.376  20.589  0.00  0.00    +0.000 C 
ENDBRANCH  25  27
ENDBRANCH  23  25
ENDBRANCH  15  23
ENDBRANCH   1  15
TORSDOF 8
ENDMDL
MODEL 5
REMARK VINA RESULT:      -7.0      0.703      1.200
REMARK  Name = 
REMARK  9 active torsions:
REMARK  status: ('A' for Active; 'I' for Inactive)
REMARK    1  A    between atoms: C_1  and  C_2
REMARK    2  A    between atoms: C_2  and  O_3
REMARK    3  A    between atoms: O_3  and  C_4
REMARK    4  A    between atoms: C_4  and  C_6
REMARK    5  A    between atoms: C_6  and  N_7
REMARK    6  A    between atoms: C_6  and  C_18
REMARK    7  A    between atoms: N_7  and  C_8
REMARK    8  A    between atoms: C_11  and  S_12
REMARK    9  A    between atoms: S_12  and  N_13
REMARK                            x       y       z     vdW  Elec       q    Type
REMARK                         _______ _______ _______ _____ _____    ______ ____
ROOT
ATOM      1  N   UNL     1       2.308   6.681  20.501  0.00  0.00    +0.000 N 
ATOM      2  H   UNL     1       3.283   6.768  20.778  0.00  0.00    +0.000 HD
ENDROOT
BRANCH   1   3
ATOM      3  C   UNL     1       1.747   7.946  20.275  0.00  0.00    +0.000 A 
ATOM      4  C   UNL     1       1.756   8.587  19.030  0.00  0.00    +0.000 A 
ATOM      5  C   UNL     1       1.090   9.806  18.838  0.00  0.00    +0.000 A 
ATOM      6  C   UNL     1       0.371  10.376  19.888  0.00  0.00    +0.000 A 
ATOM      7  C   UNL     1       0.337   9.756  21.135  0.00  0.00    +0.000 A 
ATOM      8  C   UNL     1       1.014   8.546  21.316  0.00  0.00    +0.000 A 
BRANCH   6   9
ATOM      9  S   UNL     1      -0.492  11.894  19.643  0.00  0.00    +0.000 S 
ATOM     10  O   UNL     1      -1.920  11.654  19.709  0.00  0.00    +0.000 OA
ATOM     11  O   UNL     1       0.152  12.941  20.399  0.00  0.00    +0.000 OA
BRANCH   9  12
ATOM     12  N   UNL     1      -0.161  12.214  18.026  0.00  0.00    +0.000 NA
ATOM     13  H   UNL     1       0.604  12.885  17.950  0.00  0.00    +0.000 HD
ATOM     14  H   UNL     1      -0.005  11.344  17.519  0.00  0.00    +0.000 HD
ENDBRANCH   9  12
ENDBRANCH   6   9
ENDBRANCH   1   3
BRANCH   1  15
ATOM     15  C   UNL     1       2.148   5.603  19.491  0.00  0.00    +0.000 C 
BRANCH  15  16
ATOM     16  C   UNL     1       3.494   5.397  18.803  0.00  0.00    +0.000 A 
ATOM     17  C   UNL     1       4.586   4.892  19.529  0.00  0.00    +0.000 A 
ATOM     18  C   UNL     1       5.808   4.648  18.898  0.00  0.00    +0.000 A 
ATOM     19  C   UNL     1       5.950   4.910  17.538  0.00  0.00    +0.000 A 
ATOM     20 CL   UNL     1       7.456   4.611  16.762  0.00  0.00    +0.000 Cl
ATOM     21  C   UNL     1       4.878   5.407  16.800  0.00  0.00    +0.000 A 
ATOM     22  C   UNL     1       3.652   5.643  17.428  0.00  0.00    +0.000 A 
ENDBRANCH  15  16
BRANCH  15  23
ATOM     23  C   UNL     1       1.572   4.279  20.039  0.00  0.00    +0.000 C 
ATOM     24  O   UNL     1       1.620   3.976  21.230  0.00  0.00    +0.000 OA
BRANCH  23  25
ATOM     25  O   UNL     1       1.028   3.482  19.074  0.00  0.00    +0.000 OA
BRANCH  25  27
ATOM     26  C   UNL     1       2.633   2.056  17.878  0.00  0.00    +0.000 C 
ATOM     27  C   UNL     1       1.583   2.160  18.968  0.00  0.00    +0.000 C 
ENDBRANCH  25  27
ENDBRANCH  23  25
ENDBRANCH  15  23
ENDBRANCH   1  15
TORSDOF 8
ENDMDL
MODEL 6
REMARK VINA RESULT:      -6.9      0.836      1.296
REMARK  Name = 
REMARK  9 active torsions:
REMARK  status: ('A' for Active; 'I' for Inactive)
REMARK    1  A    between atoms: C_1  and  C_2
REMARK    2  A    between atoms: C_2  and  O_3
REMARK    3  A    between atoms: O_3  and  C_4
REMARK    4  A    between atoms: C_4  and  C_6
REMARK    5  A    between atoms: C_6  and  N_7
REMARK    6  A    between atoms: C_6  and  C_18
REMARK    7  A    between atoms: N_7  and  C_8
REMARK    8  A    between atoms: C_11  and  S_12
REMARK    9  A    between atoms: S_12  and  N_13
REMARK                            x       y       z     vdW  Elec       q    Type
REMARK                         _______ _______ _______ _____ _____    ______ ____
ROOT
ATOM      1  N   UNL     1       2.556   6.778  20.261  0.00  0.00    +0.000 N 
ATOM      2  H   UNL     1       3.547   6.998  20.340  0.00  0.00    +0.000 HD
ENDROOT
BRANCH   1   3
ATOM      3  C   UNL     1       1.817   7.936  19.978  0.00  0.00    +0.000 A 
ATOM      4  C   UNL     1       1.093   8.648  20.942  0.00  0.00    +0.000 A 
ATOM      5  C   UNL     1       0.457   9.857  20.623  0.00  0.00    +0.000 A 
ATOM      6  C   UNL     1       0.576  10.385  19.338  0.00  0.00    +0.000 A 
ATOM      7  C   UNL     1       1.297   9.702  18.362  0.00  0.00    +0.000 A 
ATOM      8  C   UNL     1       1.918   8.493  18.689  0.00  0.00    +0.000 A 
BRANCH   6   9
ATOM      9  S   UNL     1      -0.198  11.918  18.941  0.00  0.00    +0.000 S 
ATOM     10  O   UNL     1      -1.258  11.690  17.977  0.00  0.00    +0.000 OA
ATOM     11  O   UNL     1      -0.404  12.680  20.149  0.00  0.00    +0.000 OA
BRANCH   9  12
ATOM     12  N   UNL     1       1.023  12.705  18.095  0.00  0.00    +0.000 NA
ATOM     13  H   UNL     1       0.639  13.501  17.584  0.00  0.00    +0.000 HD
ATOM     14  H   UNL     1       1.790  12.940  18.722  0.00  0.00    +0.000 HD
ENDBRANCH   9  12
ENDBRANCH   6   9
ENDBRANCH   1   3
BRANCH   1  15
ATOM     15  C   UNL     1       2.359   5.551  19.446  0.00  0.00    +0.000 C 
BRANCH  15  16
ATOM     16  C   UNL     1       3.659   5.267  18.698  0.00  0.00    +0.000 A 
ATOM     17  C   UNL     1       3.665   5.215  17.294  0.00  0.00    +0.000 A 
ATOM     18  C   UNL     1       4.857   5.009  16.595  0.00  0.00    +0.000 A 
ATOM     19  C   UNL     1       6.052   4.853  17.293  0.00  0.00    +0.000 A 
ATOM     20 CL   UNL     1       7.519   4.599  16.433  0.00  0.00    +0.000 Cl
ATOM     21  C   UNL     1       6.066   4.907  18.686  0.00  0.00    +0.000 A 
ATOM     22  C   UNL     1       4.875   5.120  19.386  0.00  0.00    +0.000 A 
ENDBRANCH  15  16
BRANCH  15  23
ATOM     23  C   UNL     1       1.868   4.318  20.237  0.00  0.00    +0.000 C 
ATOM     24  O   UNL     1       2.067   4.180  21.442  0.00  0.00    +0.000 OA
BRANCH  23  25
ATOM     25  O   UNL     1       1.216   3.401  19.464  0.00  0.00    +0.000 OA
BRANCH  25  27
ATOM     26  C   UNL     1       2.854   1.860  18.476  0.00  0.00    +0.000 C 
ATOM     27  C   UNL     1       1.748   2.066  19.494  0.00  0.00    +0.000 C 
ENDBRANCH  25  27
ENDBRANCH  23  25
ENDBRANCH  15  23
ENDBRANCH   1  15
TORSDOF 8
ENDMDL
MODEL 7
REMARK VINA RESULT:      -6.9      0.972      1.036
REMARK  Name = 
REMARK  9 active torsions:
REMARK  status: ('A' for Active; 'I' for Inactive)
REMARK    1  A    between atoms: C_1  and  C_2
REMARK    2  A    between atoms: C_2  and  O_3
REMARK    3  A    between atoms: O_3  and  C_4
REMARK    4  A    between atoms: C_4  and  C_6
REMARK    5  A    between atoms: C_6  and  N_7
REMARK    6  A    between atoms: C_6  and  C_18
REMARK    7  A    between atoms: N_7  and  C_8
REMARK    8  A    between atoms: C_11  and  S_12
REMARK    9  A    between atoms: S_12  and  N_13
REMARK                            x       y       z     vdW  Elec       q    Type
REMARK                         _______ _______ _______ _____ _____    ______ ____
ROOT
ATOM      1  N   UNL     1       2.467   6.582  20.239  0.00  0.00    +0.000 N 
ATOM      2  H   UNL     1       3.439   6.675  20.526  0.00  0.00    +0.000 HD
ENDROOT
BRANCH   1   3
ATOM      3  C   UNL     1       1.931   7.835  19.910  0.00  0.00    +0.000 A 
ATOM      4  C   UNL     1       1.982   8.387  18.624  0.00  0.00    +0.000 A 
ATOM      5  C   UNL     1       1.339   9.597  18.329  0.00  0.00    +0.000 A 
ATOM      6  C   UNL     1       0.600  10.248  19.316  0.00  0.00    +0.000 A 
ATOM      7  C   UNL     1       0.523   9.717  20.602  0.00  0.00    +0.000 A 
ATOM      8  C   UNL     1       1.178   8.515  20.886  0.00  0.00    +0.000 A 
BRANCH   6   9
ATOM      9  S   UNL     1      -0.235  11.755  18.942  0.00  0.00    +0.000 S 
ATOM     10  O   UNL     1      -1.302  11.495  17.995  0.00  0.00    +0.000 OA
ATOM     11  O   UNL     1      -0.447  12.503  20.158  0.00  0.00    +0.000 OA
BRANCH   9  12
ATOM     12  N   UNL     1       0.943  12.590  18.080  0.00  0.00    +0.000 NA
ATOM     13  H   UNL     1       0.700  13.579  18.020  0.00  0.00    +0.000 HD
ATOM     14  H   UNL     1       1.864  12.409  18.478  0.00  0.00    +0.000 HD
ENDBRANCH   9  12
ENDBRANCH   6   9
ENDBRANCH   1   3
BRANCH   1  15
ATOM     15  C   UNL     1       2.307   5.434  19.309  0.00  0.00    +0.000 C 
BRANCH  15  16
ATOM     16  C   UNL     1       3.656   5.171  18.647  0.00  0.00    +0.000 A 
ATOM     17  C   UNL     1       3.721   4.880  17.273  0.00  0.00    +0.000 A 
ATOM     18  C   UNL     1       4.953   4.690  16.644  0.00  0.00    +0.000 A 
ATOM     19  C   UNL     1       6.131   4.788  17.381  0.00  0.00    +0.000 A 
ATOM     20 CL   UNL     1       7.648   4.553  16.606  0.00  0.00    +0.000 Cl
ATOM     21  C   UNL     1       6.087   5.080  18.743  0.00  0.00    +0.000 A 
ATOM     22  C   UNL     1       4.855   5.278  19.373  0.00  0.00    +0.000 A 
ENDBRANCH  15  16
BRANCH  15  23
ATOM     23  C   UNL     1       1.720   4.157  19.949  0.00  0.00    +0.000 C 
ATOM     24  O   UNL     1       0.575   4.103  20.394  0.00  0.00    +0.000 OA
BRANCH  23  25
ATOM     25  O   UNL     1       2.600   3.114  19.985  0.00  0.00    +0.000 OA
BRANCH  25  27
ATOM     26  C   UNL     1       3.505   1.437  18.434  0.00  0.00    +0.000 C 
ATOM     27  C   UNL     1       2.282   1.999  19.135  0.00  0.00    +0.000 C 
ENDBRANCH  25  27
ENDBRANCH  23  25
ENDBRANCH  15  23
ENDBRANCH   1  15
TORSDOF 8
ENDMDL
MODEL 8
REMARK VINA RESULT:      -6.9      1.306      1.629
REMARK  Name = 
REMARK  9 active torsions:
REMARK  status: ('A' for Active; 'I' for Inactive)
REMARK    1  A    between atoms: C_1  and  C_2
REMARK    2  A    between atoms: C_2  and  O_3
REMARK    3  A    between atoms: O_3  and  C_4
REMARK    4  A    between atoms: C_4  and  C_6
REMARK    5  A    between atoms: C_6  and  N_7
REMARK    6  A    between atoms: C_6  and  C_18
REMARK    7  A    between atoms: N_7  and  C_8
REMARK    8  A    between atoms: C_11  and  S_12
REMARK    9  A    between atoms: S_12  and  N_13
REMARK                            x       y       z     vdW  Elec       q    Type
REMARK                         _______ _______ _______ _____ _____    ______ ____
ROOT
ATOM      1  N   UNL     1       2.312   6.501  20.204  0.00  0.00    +0.000 N 
ATOM      2  H   UNL     1       3.270   6.556  20.545  0.00  0.00    +0.000 HD
ENDROOT
BRANCH   1   3
ATOM      3  C   UNL     1       1.754   7.783  20.100  0.00  0.00    +0.000 A 
ATOM      4  C   UNL     1       1.768   8.542  18.923  0.00  0.00    +0.000 A 
ATOM      5  C   UNL     1       1.105   9.775  18.848  0.00  0.00    +0.000 A 
ATOM      6  C   UNL     1       0.383  10.242  19.946  0.00  0.00    +0.000 A 
ATOM      7  C   UNL     1       0.345   9.505  21.127  0.00  0.00    +0.000 A 
ATOM      8  C   UNL     1       1.019   8.281  21.192  0.00  0.00    +0.000 A 
BRANCH   6   9
ATOM      9  S   UNL     1      -0.476  11.778  19.846  0.00  0.00    +0.000 S 
ATOM     10  O   UNL     1       0.480  12.859  19.703  0.00  0.00    +0.000 OA
ATOM     11  O   UNL     1      -1.616  11.636  18.974  0.00  0.00    +0.000 OA
BRANCH   9  12
ATOM     12  N   UNL     1      -1.094  11.923  21.403  0.00  0.00    +0.000 NA
ATOM     13  H   UNL     1      -2.105  11.784  21.394  0.00  0.00    +0.000 HD
ATOM     14  H   UNL     1      -0.593  11.305  22.039  0.00  0.00    +0.000 HD
ENDBRANCH   9  12
ENDBRANCH   6   9
ENDBRANCH   1   3
BRANCH   1  15
ATOM     15  C   UNL     1       2.218   5.552  19.065  0.00  0.00    +0.000 C 
BRANCH  15  16
ATOM     16  C   UNL     1       3.636   5.224  18.606  0.00  0.00    +0.000 A 
ATOM     17  C   UNL     1       3.885   4.917  17.257  0.00  0.00    +0.000 A 
ATOM     18  C   UNL     1       5.187   4.667  16.814  0.00  0.00    +0.000 A 
ATOM     19  C   UNL     1       6.248   4.720  17.714  0.00  0.00    +0.000 A 
ATOM     20 CL   UNL     1       7.849   4.412  17.168  0.00  0.00    +0.000 Cl
ATOM     21  C   UNL     1       6.021   5.028  19.054  0.00  0.00    +0.000 A 
ATOM     22  C   UNL     1       4.721   5.286  19.497  0.00  0.00    +0.000 A 
ENDBRANCH  15  16
BRANCH  15  23
ATOM     23  C   UNL     1       1.394   4.277  19.347  0.00  0.00    +0.000 C 
ATOM     24  O   UNL     1       1.106   3.465  18.471  0.00  0.00    +0.000 OA
BRANCH  23  25
ATOM     25  O   UNL     1       1.007   4.158  20.652  0.00  0.00    +0.000 OA
BRANCH  25  27
ATOM     26  C   UNL     1       2.770   2.665  21.489  0.00  0.00    +0.000 C 
ATOM     27  C   UNL     1       1.285   2.891  21.272  0.00  0.00    +0.000 C 
ENDBRANCH  25  27
ENDBRANCH  23  25
ENDBRANCH  15  23
ENDBRANCH   1  15
TORSDOF 8
ENDMDL
MODEL 9
REMARK VINA RESULT:      -6.8      1.710      2.412
REMARK  Name = 
REMARK  9 active torsions:
REMARK  status: ('A' for Active; 'I' for Inactive)
REMARK    1  A    between atoms: C_1  and  C_2
REMARK    2  A    between atoms: C_2  and  O_3
REMARK    3  A    between atoms: O_3  and  C_4
REMARK    4  A    between atoms: C_4  and  C_6
REMARK    5  A    between atoms: C_6  and  N_7
REMARK    6  A    between atoms: C_6  and  C_18
REMARK    7  A    between atoms: N_7  and  C_8
REMARK    8  A    between atoms: C_11  and  S_12
REMARK    9  A    between atoms: S_12  and  N_13
REMARK                            x       y       z     vdW  Elec       q    Type
REMARK                         _______ _______ _______ _____ _____    ______ ____
ROOT
ATOM      1  N   UNL     1       3.826   5.942  19.525  0.00  0.00    +0.000 N 
ATOM      2  H   UNL     1       4.756   6.344  19.439  0.00  0.00    +0.000 HD
ENDROOT
BRANCH   1   3
ATOM      3  C   UNL     1       2.847   6.937  19.393  0.00  0.00    +0.000 A 
ATOM      4  C   UNL     1       2.050   7.386  20.453  0.00  0.00    +0.000 A 
ATOM      5  C   UNL     1       1.158   8.456  20.286  0.00  0.00    +0.000 A 
ATOM      6  C   UNL     1       1.088   9.115  19.059  0.00  0.00    +0.000 A 
ATOM      7  C   UNL     1       1.876   8.695  17.990  0.00  0.00    +0.000 A 
ATOM      8  C   UNL     1       2.753   7.621  18.166  0.00  0.00    +0.000 A 
BRANCH   6   9
ATOM      9  S   UNL     1      -0.011  10.478  18.854  0.00  0.00    +0.000 S 
ATOM     10  O   UNL     1      -0.948  10.188  17.786  0.00  0.00    +0.000 OA
ATOM     11  O   UNL     1      -0.437  10.952  20.148  0.00  0.00    +0.000 OA
BRANCH   9  12
ATOM     12  N   UNL     1       1.022  11.656  18.242  0.00  0.00    +0.000 NA
ATOM     13  H   UNL     1       1.585  11.270  17.484  0.00  0.00    +0.000 HD
ATOM     14  H   UNL     1       0.493  12.489  17.989  0.00  0.00    +0.000 HD
ENDBRANCH   9  12
ENDBRANCH   6   9
ENDBRANCH   1   3
BRANCH   1  15
ATOM     15  C   UNL     1       3.725   4.688  18.734  0.00  0.00    +0.000 C 
BRANCH  15  16
ATOM     16  C   UNL     1       4.644   4.819  17.523  0.00  0.00    +0.000 A 
ATOM     17  C   UNL     1       5.754   5.680  17.571  0.00  0.00    +0.000 A 
ATOM     18  C   UNL     1       6.633   5.768  16.489  0.00  0.00    +0.000 A 
ATOM     19  C   UNL     1       6.409   5.000  15.349  0.00  0.00    +0.000 A 
ATOM     20 CL   UNL     1       7.490   5.109  14.017  0.00  0.00    +0.000 Cl
ATOM     21  C   UNL     1       5.317   4.137  15.284  0.00  0.00    +0.000 A 
ATOM     22  C   UNL     1       4.441   4.041  16.370  0.00  0.00    +0.000 A 
ENDBRANCH  15  16
BRANCH  15  23
ATOM     23  C   UNL     1       4.002   3.394  19.530  0.00  0.00    +0.000 C 
ATOM     24  O   UNL     1       5.136   3.029  19.831  0.00  0.00    +0.000 OA
BRANCH  23  25
ATOM     25  O   UNL     1       2.870   2.697  19.845  0.00  0.00    +0.000 OA
BRANCH  25  27
ATOM     26  C   UNL     1       0.650   2.487  18.813  0.00  0.00    +0.000 C 
ATOM     27  C   UNL     1       2.131   2.169  18.730  0.00  0.00    +0.000 C 
ENDBRANCH  25  27
ENDBRANCH  23  25
ENDBRANCH  15  23
ENDBRANCH   1  15
TORSDOF 8
ENDMDL
