MODEL 1
REMARK VINA RESULT:      -8.5      0.000      0.000
REMARK  Name = 
REMARK  13 active torsions:
REMARK  status: ('A' for Active; 'I' for Inactive)
REMARK    1  A    between atoms: C_1  and  O_2
REMARK    2  A    between atoms: O_2  and  C_3
REMARK    3  A    between atoms: C_3  and  C_5
REMARK    4  A    between atoms: C_5  and  C_6
REMARK    5  A    between atoms: C_6  and  C_8
REMARK    6  A    between atoms: C_8  and  S_9
REMARK    7  A    between atoms: S_9  and  C_10
REMARK    8  A    between atoms: C_13  and  C_14
REMARK    9  A    between atoms: C_17  and  C_18
REMARK   10  A    between atoms: C_18  and  C_19
REMARK   11  A    between atoms: C_18  and  C_20
REMARK   12  A    between atoms: C_18  and  C_21
REMARK   13  A    between atoms: N_24  and  C_25
REMARK                            x       y       z     vdW  Elec       q    Type
REMARK                         _______ _______ _______ _____ _____    ______ ____
ROOT
ATOM      1  C   UNL     1       5.415   4.768  18.554  0.00  0.00    +0.000 C 
ATOM      2  O   UNL     1       5.482   3.533  18.604  0.00  0.00    +0.000 OA
ENDROOT
BRANCH   1   3
ATOM      3  C   UNL     1       6.398   5.516  17.687  0.00  0.00    +0.000 C 
ATOM      4  C   UNL     1       6.410   5.244  16.360  0.00  0.00    +0.000 C 
ATOM      5  N   UNL     1       7.267   5.786  15.391  0.00  0.00    +0.000 N 
ATOM      6  C   UNL     1       7.122   5.035  14.216  0.00  0.00    +0.000 A 
ATOM      7  C   UNL     1       7.713   5.172  12.983  0.00  0.00    +0.000 A 
ATOM      8  C   UNL     1       7.258   4.338  11.954  0.00  0.00    +0.000 A 
ATOM      9  C   UNL     1       6.223   3.404  12.174  0.00  0.00    +0.000 A 
ATOM     10  C   UNL     1       5.616   3.286  13.427  0.00  0.00    +0.000 A 
ATOM     11  C   UNL     1       6.080   4.102  14.431  0.00  0.00    +0.000 A 
ATOM     12  N   UNL     1       5.576   4.307  15.726  0.00  0.00    +0.000 N 
ATOM     13  H   UNL     1       8.085   6.326  15.639  0.00  0.00    +0.000 HD
ATOM     14  H   UNL     1       5.191   3.550  16.284  0.00  0.00    +0.000 HD
BRANCH   3  15
ATOM     15  C   UNL     1       7.368   6.516  18.199  0.00  0.00    +0.000 C 
ATOM     16  O   UNL     1       8.188   6.314  19.083  0.00  0.00    +0.000 OA
BRANCH  15  18
ATOM     17  C   UNL     1       8.204   8.683  17.847  0.00  0.00    +0.000 C 
ATOM     18  O   UNL     1       7.188   7.708  17.585  0.00  0.00    +0.000 OA
ENDBRANCH  15  18
ENDBRANCH   3  15
ENDBRANCH   1   3
BRANCH   1  19
ATOM     19  C   UNL     1       4.343   5.545  19.328  0.00  0.00    +0.000 C 
BRANCH  19  20
ATOM     20  S   UNL     1       3.399   6.628  18.199  0.00  0.00    +0.000 S 
BRANCH  20  21
ATOM     21  C   UNL     1       2.321   7.428  19.285  0.00  0.00    +0.000 A 
ATOM     22  N   UNL     1       1.960   7.020  20.475  0.00  0.00    +0.000 NA
ATOM     23  N   UNL     1       1.106   7.967  20.987  0.00  0.00    +0.000 NA
ATOM     24  C   UNL     1       0.947   8.940  20.097  0.00  0.00    +0.000 A 
ATOM     25  N   UNL     1       1.717   8.625  18.995  0.00  0.00    +0.000 N 
ATOM     26  C   UNL     1       1.953   9.415  17.814  0.00  0.00    +0.000 C 
BRANCH  24  27
ATOM     27  C   UNL     1       0.147  10.149  20.328  0.00  0.00    +0.000 A 
ATOM     28  C   UNL     1       0.393  10.908  21.477  0.00  0.00    +0.000 A 
ATOM     29  C   UNL     1      -0.366  12.048  21.777  0.00  0.00    +0.000 A 
ATOM     30  C   UNL     1      -1.410  12.473  20.943  0.00  0.00    +0.000 A 
ATOM     31  C   UNL     1      -1.634  11.723  19.775  0.00  0.00    +0.000 A 
ATOM     32  C   UNL     1      -0.887  10.569  19.485  0.00  0.00    +0.000 A 
BRANCH  30  33
ATOM     33  C   UNL     1      -2.319  13.664  21.300  0.00  0.00    +0.000 C 
ATOM     34  C   UNL     1      -1.872  14.992  20.644  0.00  0.00    +0.000 C 
ATOM     35  C   UNL     1      -3.770  13.393  20.851  0.00  0.00    +0.000 C 
ATOM     36  C   UNL     1      -2.306  13.892  22.829  0.00  0.00    +0.000 C 
ENDBRANCH  30  33
ENDBRANCH  24  27
ENDBRANCH  20  21
ENDBRANCH  19  20
ENDBRANCH   1  19
TORSDOF 8
ENDMDL
MODEL 2
REMARK VINA RESULT:      -8.3      0.827      1.437
REMARK  Name = 
REMARK  13 active torsions:
REMARK  status: ('A' for Active; 'I' for Inactive)
REMARK    1  A    between atoms: C_1  and  O_2
REMARK    2  A    between atoms: O_2  and  C_3
REMARK    3  A    between atoms: C_3  and  C_5
REMARK    4  A    between atoms: C_5  and  C_6
REMARK    5  A    between atoms: C_6  and  C_8
REMARK    6  A    between atoms: C_8  and  S_9
REMARK    7  A    between atoms: S_9  and  C_10
REMARK    8  A    between atoms: C_13  and  C_14
REMARK    9  A    between atoms: C_17  and  C_18
REMARK   10  A    between atoms: C_18  and  C_19
REMARK   11  A    between atoms: C_18  and  C_20
REMARK   12  A    between atoms: C_18  and  C_21
REMARK   13  A    between atoms: N_24  and  C_25
REMARK                            x       y       z     vdW  Elec       q    Type
REMARK                         _______ _______ _______ _____ _____    ______ ____
ROOT
ATOM      1  C   UNL     1       5.620   5.191  18.599  0.00  0.00    +0.000 C 
ATOM      2  O   UNL     1       6.044   4.675  19.641  0.00  0.00    +0.000 OA
ENDROOT
BRANCH   1   3
ATOM      3  C   UNL     1       6.604   5.830  17.650  0.00  0.00    +0.000 C 
ATOM      4  C   UNL     1       6.557   5.467  16.346  0.00  0.00    +0.000 C 
ATOM      5  N   UNL     1       7.401   5.900  15.314  0.00  0.00    +0.000 N 
ATOM      6  C   UNL     1       7.182   5.077  14.200  0.00  0.00    +0.000 A 
ATOM      7  C   UNL     1       7.735   5.101  12.942  0.00  0.00    +0.000 A 
ATOM      8  C   UNL     1       7.207   4.220  11.989  0.00  0.00    +0.000 A 
ATOM      9  C   UNL     1       6.140   3.353  12.308  0.00  0.00    +0.000 A 
ATOM     10  C   UNL     1       5.573   3.349  13.586  0.00  0.00    +0.000 A 
ATOM     11  C   UNL     1       6.108   4.211  14.514  0.00  0.00    +0.000 A 
ATOM     12  N   UNL     1       5.660   4.528  15.807  0.00  0.00    +0.000 N 
ATOM     13  H   UNL     1       8.250   6.418  15.496  0.00  0.00    +0.000 HD
ATOM     14  H   UNL     1       5.261   3.830  16.429  0.00  0.00    +0.000 HD
BRANCH   3  15
ATOM     15  C   UNL     1       7.634   6.817  18.058  0.00  0.00    +0.000 C 
ATOM     16  O   UNL     1       8.411   6.679  18.992  0.00  0.00    +0.000 OA
BRANCH  15  18
ATOM     17  C   UNL     1       8.132   9.105  17.860  0.00  0.00    +0.000 C 
ATOM     18  O   UNL     1       7.565   7.923  17.282  0.00  0.00    +0.000 OA
ENDBRANCH  15  18
ENDBRANCH   3  15
ENDBRANCH   1   3
BRANCH   1  19
ATOM     19  C   UNL     1       4.129   5.167  18.242  0.00  0.00    +0.000 C 
BRANCH  19  20
ATOM     20  S   UNL     1       3.559   6.835  17.763  0.00  0.00    +0.000 S 
BRANCH  20  21
ATOM     21  C   UNL     1       2.536   7.260  19.087  0.00  0.00    +0.000 A 
ATOM     22  N   UNL     1       2.298   6.544  20.156  0.00  0.00    +0.000 NA
ATOM     23  N   UNL     1       1.441   7.269  20.948  0.00  0.00    +0.000 NA
ATOM     24  C   UNL     1       1.156   8.418  20.347  0.00  0.00    +0.000 A 
ATOM     25  N   UNL     1       1.846   8.444  19.151  0.00  0.00    +0.000 N 
ATOM     26  C   UNL     1       1.939   9.518  18.195  0.00  0.00    +0.000 C 
BRANCH  24  27
ATOM     27  C   UNL     1       0.314   9.471  20.931  0.00  0.00    +0.000 A 
ATOM     28  C   UNL     1      -0.185  10.472  20.092  0.00  0.00    +0.000 A 
ATOM     29  C   UNL     1      -0.958  11.529  20.595  0.00  0.00    +0.000 A 
ATOM     30  C   UNL     1      -1.257  11.632  21.961  0.00  0.00    +0.000 A 
ATOM     31  C   UNL     1      -0.777  10.606  22.795  0.00  0.00    +0.000 A 
ATOM     32  C   UNL     1       0.014   9.559  22.294  0.00  0.00    +0.000 A 
BRANCH  30  33
ATOM     33  C   UNL     1      -2.021  12.832  22.552  0.00  0.00    +0.000 C 
ATOM     34  C   UNL     1      -3.063  12.428  23.622  0.00  0.00    +0.000 C 
ATOM     35  C   UNL     1      -1.043  13.827  23.211  0.00  0.00    +0.000 C 
ATOM     36  C   UNL     1      -2.792  13.563  21.429  0.00  0.00    +0.000 C 
ENDBRANCH  30  33
ENDBRANCH  24  27
ENDBRANCH  20  21
ENDBRANCH  19  20
ENDBRANCH   1  19
TORSDOF 8
ENDMDL
MODEL 3
REMARK VINA RESULT:      -8.1      0.871      1.418
REMARK  Name = 
REMARK  13 active torsions:
REMARK  status: ('A' for Active; 'I' for Inactive)
REMARK    1  A    between atoms: C_1  and  O_2
REMARK    2  A    between atoms: O_2  and  C_3
REMARK    3  A    between atoms: C_3  and  C_5
REMARK    4  A    between atoms: C_5  and  C_6
REMARK    5  A    between atoms: C_6  and  C_8
REMARK    6  A    between atoms: C_8  and  S_9
REMARK    7  A    between atoms: S_9  and  C_10
REMARK    8  A    between atoms: C_13  and  C_14
REMARK    9  A    between atoms: C_17  and  C_18
REMARK   10  A    between atoms: C_18  and  C_19
REMARK   11  A    between atoms: C_18  and  C_20
REMARK   12  A    between atoms: C_18  and  C_21
REMARK   13  A    between atoms: N_24  and  C_25
REMARK                            x       y       z     vdW  Elec       q    Type
REMARK                         _______ _______ _______ _____ _____    ______ ____
ROOT
ATOM      1  C   UNL     1       4.951   4.559  18.159  0.00  0.00    +0.000 C 
ATOM      2  O   UNL     1       4.641   3.385  17.916  0.00  0.00    +0.000 OA
ENDROOT
BRANCH   1   3
ATOM      3  C   UNL     1       6.141   5.159  17.451  0.00  0.00    +0.000 C 
ATOM      4  C   UNL     1       6.229   5.000  16.108  0.00  0.00    +0.000 C 
ATOM      5  N   UNL     1       7.264   5.434  15.269  0.00  0.00    +0.000 N 
ATOM      6  C   UNL     1       7.090   4.827  14.017  0.00  0.00    +0.000 A 
ATOM      7  C   UNL     1       7.814   4.943  12.854  0.00  0.00    +0.000 A 
ATOM      8  C   UNL     1       7.305   4.306  11.713  0.00  0.00    +0.000 A 
ATOM      9  C   UNL     1       6.090   3.590  11.757  0.00  0.00    +0.000 A 
ATOM     10  C   UNL     1       5.354   3.494  12.941  0.00  0.00    +0.000 A 
ATOM     11  C   UNL     1       5.869   4.113  14.054  0.00  0.00    +0.000 A 
ATOM     12  N   UNL     1       5.292   4.310  15.320  0.00  0.00    +0.000 N 
ATOM     13  H   UNL     1       8.145   5.773  15.633  0.00  0.00    +0.000 HD
ATOM     14  H   UNL     1       4.713   3.603  15.767  0.00  0.00    +0.000 HD
BRANCH   3  15
ATOM     15  C   UNL     1       7.234   5.893  18.135  0.00  0.00    +0.000 C 
ATOM     16  O   UNL     1       7.496   7.077  17.974  0.00  0.00    +0.000 OA
BRANCH  15  18
ATOM     17  C   UNL     1       8.311   5.606  20.204  0.00  0.00    +0.000 C 
ATOM     18  O   UNL     1       7.939   5.059  18.933  0.00  0.00    +0.000 OA
ENDBRANCH  15  18
ENDBRANCH   3  15
ENDBRANCH   1   3
BRANCH   1  19
ATOM     19  C   UNL     1       4.138   5.417  19.135  0.00  0.00    +0.000 C 
BRANCH  19  20
ATOM     20  S   UNL     1       3.221   6.716  18.235  0.00  0.00    +0.000 S 
BRANCH  20  21
ATOM     21  C   UNL     1       2.210   7.367  19.474  0.00  0.00    +0.000 A 
ATOM     22  N   UNL     1       1.920   6.812  20.623  0.00  0.00    +0.000 NA
ATOM     23  N   UNL     1       1.098   7.682  21.298  0.00  0.00    +0.000 NA
ATOM     24  C   UNL     1       0.887   8.757  20.547  0.00  0.00    +0.000 A 
ATOM     25  N   UNL     1       1.590   8.586  19.371  0.00  0.00    +0.000 N 
ATOM     26  C   UNL     1       1.755   9.519  18.285  0.00  0.00    +0.000 C 
BRANCH  24  27
ATOM     27  C   UNL     1       0.102   9.922  20.974  0.00  0.00    +0.000 A 
ATOM     28  C   UNL     1      -0.151  10.099  22.337  0.00  0.00    +0.000 A 
ATOM     29  C   UNL     1      -0.930  11.166  22.805  0.00  0.00    +0.000 A 
ATOM     30  C   UNL     1      -1.497  12.100  21.925  0.00  0.00    +0.000 A 
ATOM     31  C   UNL     1      -1.216  11.933  20.557  0.00  0.00    +0.000 A 
ATOM     32  C   UNL     1      -0.451  10.852  20.087  0.00  0.00    +0.000 A 
BRANCH  30  33
ATOM     33  C   UNL     1      -2.435  13.224  22.404  0.00  0.00    +0.000 C 
ATOM     34  C   UNL     1      -3.818  12.709  22.870  0.00  0.00    +0.000 C 
ATOM     35  C   UNL     1      -1.805  13.989  23.585  0.00  0.00    +0.000 C 
ATOM     36  C   UNL     1      -2.693  14.217  21.247  0.00  0.00    +0.000 C 
ENDBRANCH  30  33
ENDBRANCH  24  27
ENDBRANCH  20  21
ENDBRANCH  19  20
ENDBRANCH   1  19
TORSDOF 8
ENDMDL
MODEL 4
REMARK VINA RESULT:      -7.9      1.127      1.466
REMARK  Name = 
REMARK  13 active torsions:
REMARK  status: ('A' for Active; 'I' for Inactive)
REMARK    1  A    between atoms: C_1  and  O_2
REMARK    2  A    between atoms: O_2  and  C_3
REMARK    3  A    between atoms: C_3  and  C_5
REMARK    4  A    between atoms: C_5  and  C_6
REMARK    5  A    between atoms: C_6  and  C_8
REMARK    6  A    between atoms: C_8  and  S_9
REMARK    7  A    between atoms: S_9  and  C_10
REMARK    8  A    between atoms: C_13  and  C_14
REMARK    9  A    between atoms: C_17  and  C_18
REMARK   10  A    between atoms: C_18  and  C_19
REMARK   11  A    between atoms: C_18  and  C_20
REMARK   12  A    between atoms: C_18  and  C_21
REMARK   13  A    between atoms: N_24  and  C_25
REMARK                            x       y       z     vdW  Elec       q    Type
REMARK                         _______ _______ _______ _____ _____    ______ ____
ROOT
ATOM      1  C   UNL     1       4.207   4.235  17.908  0.00  0.00    +0.000 C 
ATOM      2  O   UNL     1       4.261   3.020  18.138  0.00  0.00    +0.000 OA
ENDROOT
BRANCH   1   3
ATOM      3  C   UNL     1       5.455   4.943  17.440  0.00  0.00    +0.000 C 
ATOM      4  C   UNL     1       5.779   4.858  16.127  0.00  0.00    +0.000 C 
ATOM      5  N   UNL     1       6.909   5.397  15.496  0.00  0.00    +0.000 N 
ATOM      6  C   UNL     1       6.992   4.844  14.210  0.00  0.00    +0.000 A 
ATOM      7  C   UNL     1       7.892   5.062  13.194  0.00  0.00    +0.000 A 
ATOM      8  C   UNL     1       7.631   4.453  11.960  0.00  0.00    +0.000 A 
ATOM      9  C   UNL     1       6.479   3.661  11.765  0.00  0.00    +0.000 A 
ATOM     10  C   UNL     1       5.561   3.461  12.800  0.00  0.00    +0.000 A 
ATOM     11  C   UNL     1       5.836   4.053  14.009  0.00  0.00    +0.000 A 
ATOM     12  N   UNL     1       5.040   4.150  15.163  0.00  0.00    +0.000 N 
ATOM     13  H   UNL     1       7.689   5.772  16.019  0.00  0.00    +0.000 HD
ATOM     14  H   UNL     1       4.445   3.387  15.476  0.00  0.00    +0.000 HD
BRANCH   3  15
ATOM     15  C   UNL     1       6.362   5.709  18.330  0.00  0.00    +0.000 C 
ATOM     16  O   UNL     1       6.797   5.314  19.402  0.00  0.00    +0.000 OA
BRANCH  15  18
ATOM     17  C   UNL     1       7.907   7.464  18.099  0.00  0.00    +0.000 C 
ATOM     18  O   UNL     1       6.606   6.936  17.814  0.00  0.00    +0.000 OA
ENDBRANCH  15  18
ENDBRANCH   3  15
ENDBRANCH   1   3
BRANCH   1  19
ATOM     19  C   UNL     1       2.901   5.023  18.060  0.00  0.00    +0.000 C 
BRANCH  19  20
ATOM     20  S   UNL     1       2.915   5.992  19.610  0.00  0.00    +0.000 S 
BRANCH  20  21
ATOM     21  C   UNL     1       2.318   7.523  19.082  0.00  0.00    +0.000 A 
ATOM     22  N   UNL     1       2.432   8.040  17.885  0.00  0.00    +0.000 NA
ATOM     23  N   UNL     1       1.802   9.261  17.909  0.00  0.00    +0.000 NA
ATOM     24  C   UNL     1       1.321   9.482  19.126  0.00  0.00    +0.000 A 
ATOM     25  N   UNL     1       1.633   8.383  19.902  0.00  0.00    +0.000 N 
ATOM     26  C   UNL     1       1.241   8.108  21.261  0.00  0.00    +0.000 C 
BRANCH  24  27
ATOM     27  C   UNL     1       0.536  10.665  19.503  0.00  0.00    +0.000 A 
ATOM     28  C   UNL     1       1.213  11.853  19.798  0.00  0.00    +0.000 A 
ATOM     29  C   UNL     1       0.526  13.004  20.207  0.00  0.00    +0.000 A 
ATOM     30  C   UNL     1      -0.870  13.013  20.346  0.00  0.00    +0.000 A 
ATOM     31  C   UNL     1      -1.547  11.825  20.020  0.00  0.00    +0.000 A 
ATOM     32  C   UNL     1      -0.857  10.665  19.630  0.00  0.00    +0.000 A 
BRANCH  30  33
ATOM     33  C   UNL     1      -1.639  14.234  20.886  0.00  0.00    +0.000 C 
ATOM     34  C   UNL     1      -1.321  15.542  20.123  0.00  0.00    +0.000 C 
ATOM     35  C   UNL     1      -3.161  14.002  20.791  0.00  0.00    +0.000 C 
ATOM     36  C   UNL     1      -1.263  14.475  22.366  0.00  0.00    +0.000 C 
ENDBRANCH  30  33
ENDBRANCH  24  27
ENDBRANCH  20  21
ENDBRANCH  19  20
ENDBRANCH   1  19
TORSDOF 8
ENDMDL
MODEL 5
REMARK VINA RESULT:      -7.8      2.564      4.311
REMARK  Name = 
REMARK  13 active torsions:
REMARK  status: ('A' for Active; 'I' for Inactive)
REMARK    1  A    between atoms: C_1  and  O_2
REMARK    2  A    between atoms: O_2  and  C_3
REMARK    3  A    between atoms: C_3  and  C_5
REMARK    4  A    between atoms: C_5  and  C_6
REMARK    5  A    between atoms: C_6  and  C_8
REMARK    6  A    between atoms: C_8  and  S_9
REMARK    7  A    between atoms: S_9  and  C_10
REMARK    8  A    between atoms: C_13  and  C_14
REMARK    9  A    between atoms: C_17  and  C_18
REMARK   10  A    between atoms: C_18  and  C_19
REMARK   11  A    between atoms: C_18  and  C_20
REMARK   12  A    between atoms: C_18  and  C_21
REMARK   13  A    between atoms: N_24  and  C_25
REMARK                            x       y       z     vdW  Elec       q    Type
REMARK                         _______ _______ _______ _____ _____    ______ ____
ROOT
ATOM      1  C   UNL     1       5.125   6.448  16.933  0.00  0.00    +0.000 C 
ATOM      2  O   UNL     1       5.273   6.550  15.708  0.00  0.00    +0.000 OA
ENDROOT
BRANCH   1   3
ATOM      3  C   UNL     1       5.629   5.205  17.626  0.00  0.00    +0.000 C 
ATOM      4  C   UNL     1       4.758   4.510  18.397  0.00  0.00    +0.000 C 
ATOM      5  N   UNL     1       5.027   3.364  19.159  0.00  0.00    +0.000 N 
ATOM      6  C   UNL     1       3.933   3.141  20.006  0.00  0.00    +0.000 A 
ATOM      7  C   UNL     1       3.694   2.143  20.921  0.00  0.00    +0.000 A 
ATOM      8  C   UNL     1       2.430   2.114  21.527  0.00  0.00    +0.000 A 
ATOM      9  C   UNL     1       1.440   3.063  21.197  0.00  0.00    +0.000 A 
ATOM     10  C   UNL     1       1.688   4.062  20.252  0.00  0.00    +0.000 A 
ATOM     11  C   UNL     1       2.934   4.087  19.674  0.00  0.00    +0.000 A 
ATOM     12  N   UNL     1       3.414   4.865  18.607  0.00  0.00    +0.000 N 
ATOM     13  H   UNL     1       5.970   3.042  19.329  0.00  0.00    +0.000 HD
ATOM     14  H   UNL     1       3.147   5.839  18.484  0.00  0.00    +0.000 HD
BRANCH   3  15
ATOM     15  C   UNL     1       7.023   4.707  17.534  0.00  0.00    +0.000 C 
ATOM     16  O   UNL     1       7.590   4.385  16.499  0.00  0.00    +0.000 OA
BRANCH  15  18
ATOM     17  C   UNL     1       7.988   5.854  19.343  0.00  0.00    +0.000 C 
ATOM     18  O   UNL     1       7.574   4.610  18.766  0.00  0.00    +0.000 OA
ENDBRANCH  15  18
ENDBRANCH   3  15
ENDBRANCH   1   3
BRANCH   1  19
ATOM     19  C   UNL     1       4.472   7.563  17.758  0.00  0.00    +0.000 C 
BRANCH  19  20
ATOM     20  S   UNL     1       2.711   7.744  17.306  0.00  0.00    +0.000 S 
BRANCH  20  21
ATOM     21  C   UNL     1       1.998   8.201  18.811  0.00  0.00    +0.000 A 
ATOM     22  N   UNL     1       2.149   7.602  19.964  0.00  0.00    +0.000 NA
ATOM     23  N   UNL     1       1.416   8.308  20.887  0.00  0.00    +0.000 NA
ATOM     24  C   UNL     1       0.814   9.325  20.283  0.00  0.00    +0.000 A 
ATOM     25  N   UNL     1       1.170   9.286  18.949  0.00  0.00    +0.000 N 
ATOM     26  C   UNL     1       0.853  10.232  17.910  0.00  0.00    +0.000 C 
BRANCH  24  27
ATOM     27  C   UNL     1      -0.009  10.328  20.972  0.00  0.00    +0.000 A 
ATOM     28  C   UNL     1      -0.243  10.177  22.342  0.00  0.00    +0.000 A 
ATOM     29  C   UNL     1      -1.056  11.074  23.048  0.00  0.00    +0.000 A 
ATOM     30  C   UNL     1      -1.675  12.160  22.411  0.00  0.00    +0.000 A 
ATOM     31  C   UNL     1      -1.411  12.324  21.039  0.00  0.00    +0.000 A 
ATOM     32  C   UNL     1      -0.614  11.412  20.328  0.00  0.00    +0.000 A 
BRANCH  30  33
ATOM     33  C   UNL     1      -2.647  13.104  23.143  0.00  0.00    +0.000 C 
ATOM     34  C   UNL     1      -3.691  12.356  24.006  0.00  0.00    +0.000 C 
ATOM     35  C   UNL     1      -1.876  14.060  24.076  0.00  0.00    +0.000 C 
ATOM     36  C   UNL     1      -3.436  13.943  22.112  0.00  0.00    +0.000 C 
ENDBRANCH  30  33
ENDBRANCH  24  27
ENDBRANCH  20  21
ENDBRANCH  19  20
ENDBRANCH   1  19
TORSDOF 8
ENDMDL
MODEL 6
REMARK VINA RESULT:      -7.8      5.715     10.764
REMARK  Name = 
REMARK  13 active torsions:
REMARK  status: ('A' for Active; 'I' for Inactive)
REMARK    1  A    between atoms: C_1  and  O_2
REMARK    2  A    between atoms: O_2  and  C_3
REMARK    3  A    between atoms: C_3  and  C_5
REMARK    4  A    between atoms: C_5  and  C_6
REMARK    5  A    between atoms: C_6  and  C_8
REMARK    6  A    between atoms: C_8  and  S_9
REMARK    7  A    between atoms: S_9  and  C_10
REMARK    8  A    between atoms: C_13  and  C_14
REMARK    9  A    between atoms: C_17  and  C_18
REMARK   10  A    between atoms: C_18  and  C_19
REMARK   11  A    between atoms: C_18  and  C_20
REMARK   12  A    between atoms: C_18  and  C_21
REMARK   13  A    between atoms: N_24  and  C_25
REMARK                            x       y       z     vdW  Elec       q    Type
REMARK                         _______ _______ _______ _____ _____    ______ ____
ROOT
ATOM      1  C   UNL     1      -3.283  13.593  21.568  0.00  0.00    +0.000 C 
ATOM      2  O   UNL     1      -2.605  14.628  21.593  0.00  0.00    +0.000 OA
ENDROOT
BRANCH   1   3
ATOM      3  C   UNL     1      -4.280  13.402  20.451  0.00  0.00    +0.000 C 
ATOM      4  C   UNL     1      -3.969  12.526  19.466  0.00  0.00    +0.000 C 
ATOM      5  N   UNL     1      -4.725  12.234  18.321  0.00  0.00    +0.000 N 
ATOM      6  C   UNL     1      -3.918  11.493  17.446  0.00  0.00    +0.000 A 
ATOM      7  C   UNL     1      -4.192  10.948  16.214  0.00  0.00    +0.000 A 
ATOM      8  C   UNL     1      -3.209  10.135  15.637  0.00  0.00    +0.000 A 
ATOM      9  C   UNL     1      -1.991   9.875  16.302  0.00  0.00    +0.000 A 
ATOM     10  C   UNL     1      -1.731  10.420  17.562  0.00  0.00    +0.000 A 
ATOM     11  C   UNL     1      -2.699  11.226  18.112  0.00  0.00    +0.000 A 
ATOM     12  N   UNL     1      -2.779  11.781  19.401  0.00  0.00    +0.000 N 
ATOM     13  H   UNL     1      -5.520  12.795  18.045  0.00  0.00    +0.000 HD
ATOM     14  H   UNL     1      -1.961  12.135  19.890  0.00  0.00    +0.000 HD
BRANCH   3  15
ATOM     15  C   UNL     1      -5.569  14.129  20.352  0.00  0.00    +0.000 C 
ATOM     16  O   UNL     1      -6.199  14.310  19.319  0.00  0.00    +0.000 OA
BRANCH  15  18
ATOM     17  C   UNL     1      -7.349  14.674  21.786  0.00  0.00    +0.000 C 
ATOM     18  O   UNL     1      -5.935  14.611  21.562  0.00  0.00    +0.000 OA
ENDBRANCH  15  18
ENDBRANCH   3  15
ENDBRANCH   1   3
BRANCH   1  19
ATOM     19  C   UNL     1      -3.111  12.496  22.626  0.00  0.00    +0.000 C 
BRANCH  19  20
ATOM     20  S   UNL     1      -1.394  12.472  23.250  0.00  0.00    +0.000 S 
BRANCH  20  21
ATOM     21  C   UNL     1      -0.524  11.868  21.887  0.00  0.00    +0.000 A 
ATOM     22  N   UNL     1      -0.101  12.557  20.857  0.00  0.00    +0.000 NA
ATOM     23  N   UNL     1       0.550  11.680  20.023  0.00  0.00    +0.000 NA
ATOM     24  C   UNL     1       0.507  10.462  20.547  0.00  0.00    +0.000 A 
ATOM     25  N   UNL     1      -0.174  10.550  21.746  0.00  0.00    +0.000 N 
ATOM     26  C   UNL     1      -0.393   9.517  22.727  0.00  0.00    +0.000 C 
BRANCH  24  27
ATOM     27  C   UNL     1       1.152   9.283  19.955  0.00  0.00    +0.000 A 
ATOM     28  C   UNL     1       1.361   8.158  20.759  0.00  0.00    +0.000 A 
ATOM     29  C   UNL     1       2.011   7.017  20.266  0.00  0.00    +0.000 A 
ATOM     30  C   UNL     1       2.486   6.957  18.948  0.00  0.00    +0.000 A 
ATOM     31  C   UNL     1       2.247   8.080  18.136  0.00  0.00    +0.000 A 
ATOM     32  C   UNL     1       1.614   9.230  18.636  0.00  0.00    +0.000 A 
BRANCH  30  33
ATOM     33  C   UNL     1       3.287   5.755  18.412  0.00  0.00    +0.000 C 
ATOM     34  C   UNL     1       4.131   5.050  19.499  0.00  0.00    +0.000 C 
ATOM     35  C   UNL     1       2.340   4.700  17.805  0.00  0.00    +0.000 C 
ATOM     36  C   UNL     1       4.270   6.230  17.317  0.00  0.00    +0.000 C 
ENDBRANCH  30  33
ENDBRANCH  24  27
ENDBRANCH  20  21
ENDBRANCH  19  20
ENDBRANCH   1  19
TORSDOF 8
ENDMDL
MODEL 7
REMARK VINA RESULT:      -7.8      1.134      1.394
REMARK  Name = 
REMARK  13 active torsions:
REMARK  status: ('A' for Active; 'I' for Inactive)
REMARK    1  A    between atoms: C_1  and  O_2
REMARK    2  A    between atoms: O_2  and  C_3
REMARK    3  A    between atoms: C_3  and  C_5
REMARK    4  A    between atoms: C_5  and  C_6
REMARK    5  A    between atoms: C_6  and  C_8
REMARK    6  A    between atoms: C_8  and  S_9
REMARK    7  A    between atoms: S_9  and  C_10
REMARK    8  A    between atoms: C_13  and  C_14
REMARK    9  A    between atoms: C_17  and  C_18
REMARK   10  A    between atoms: C_18  and  C_19
REMARK   11  A    between atoms: C_18  and  C_20
REMARK   12  A    between atoms: C_18  and  C_21
REMARK   13  A    between atoms: N_24  and  C_25
REMARK                            x       y       z     vdW  Elec       q    Type
REMARK                         _______ _______ _______ _____ _____    ______ ____
ROOT
ATOM      1  C   UNL     1       5.190   5.304  18.325  0.00  0.00    +0.000 C 
ATOM      2  O   UNL     1       4.923   4.095  18.350  0.00  0.00    +0.000 OA
ENDROOT
BRANCH   1   3
ATOM      3  C   UNL     1       6.340   5.777  17.470  0.00  0.00    +0.000 C 
ATOM      4  C   UNL     1       6.347   5.424  16.162  0.00  0.00    +0.000 C 
ATOM      5  N   UNL     1       7.334   5.715  15.210  0.00  0.00    +0.000 N 
ATOM      6  C   UNL     1       7.083   4.935  14.072  0.00  0.00    +0.000 A 
ATOM      7  C   UNL     1       7.738   4.869  12.865  0.00  0.00    +0.000 A 
ATOM      8  C   UNL     1       7.160   4.081  11.861  0.00  0.00    +0.000 A 
ATOM      9  C   UNL     1       5.946   3.396  12.079  0.00  0.00    +0.000 A 
ATOM     10  C   UNL     1       5.279   3.484  13.304  0.00  0.00    +0.000 A 
ATOM     11  C   UNL     1       5.863   4.251  14.284  0.00  0.00    +0.000 A 
ATOM     12  N   UNL     1       5.362   4.639  15.538  0.00  0.00    +0.000 N 
ATOM     13  H   UNL     1       8.236   6.091  15.470  0.00  0.00    +0.000 HD
ATOM     14  H   UNL     1       4.806   4.013  16.117  0.00  0.00    +0.000 HD
BRANCH   3  15
ATOM     15  C   UNL     1       7.475   6.588  17.975  0.00  0.00    +0.000 C 
ATOM     16  O   UNL     1       8.124   6.342  18.983  0.00  0.00    +0.000 OA
BRANCH  15  18
ATOM     17  C   UNL     1       8.020   8.872  17.893  0.00  0.00    +0.000 C 
ATOM     18  O   UNL     1       7.668   7.674  17.191  0.00  0.00    +0.000 OA
ENDBRANCH  15  18
ENDBRANCH   3  15
ENDBRANCH   1   3
BRANCH   1  19
ATOM     19  C   UNL     1       4.364   6.324  19.117  0.00  0.00    +0.000 C 
BRANCH  19  20
ATOM     20  S   UNL     1       2.583   6.113  18.770  0.00  0.00    +0.000 S 
BRANCH  20  21
ATOM     21  C   UNL     1       1.885   7.416  19.661  0.00  0.00    +0.000 A 
ATOM     22  N   UNL     1       1.561   7.415  20.929  0.00  0.00    +0.000 NA
ATOM     23  N   UNL     1       1.053   8.658  21.219  0.00  0.00    +0.000 NA
ATOM     24  C   UNL     1       1.062   9.403  20.120  0.00  0.00    +0.000 A 
ATOM     25  N   UNL     1       1.593   8.635  19.103  0.00  0.00    +0.000 N 
ATOM     26  C   UNL     1       1.900   9.029  17.751  0.00  0.00    +0.000 C 
BRANCH  24  27
ATOM     27  C   UNL     1       0.644  10.810  20.070  0.00  0.00    +0.000 A 
ATOM     28  C   UNL     1       1.552  11.763  19.600  0.00  0.00    +0.000 A 
ATOM     29  C   UNL     1       1.230  13.127  19.569  0.00  0.00    +0.000 A 
ATOM     30  C   UNL     1      -0.015  13.597  20.014  0.00  0.00    +0.000 A 
ATOM     31  C   UNL     1      -0.934  12.630  20.459  0.00  0.00    +0.000 A 
ATOM     32  C   UNL     1      -0.604  11.265  20.509  0.00  0.00    +0.000 A 
BRANCH  30  33
ATOM     33  C   UNL     1      -0.357  15.097  20.080  0.00  0.00    +0.000 C 
ATOM     34  C   UNL     1      -0.226  15.814  18.716  0.00  0.00    +0.000 C 
ATOM     35  C   UNL     1      -1.805  15.302  20.573  0.00  0.00    +0.000 C 
ATOM     36  C   UNL     1       0.607  15.809  21.057  0.00  0.00    +0.000 C 
ENDBRANCH  30  33
ENDBRANCH  24  27
ENDBRANCH  20  21
ENDBRANCH  19  20
ENDBRANCH   1  19
TORSDOF 8
ENDMDL
MODEL 8
REMARK VINA RESULT:      -7.8      0.754      1.167
REMARK  Name = 
REMARK  13 active torsions:
REMARK  status: ('A' for Active; 'I' for Inactive)
REMARK    1  A    between atoms: C_1  and  O_2
REMARK    2  A    between atoms: O_2  and  C_3
REMARK    3  A    between atoms: C_3  and  C_5
REMARK    4  A    between atoms: C_5  and  C_6
REMARK    5  A    between atoms: C_6  and  C_8
REMARK    6  A    between atoms: C_8  and  S_9
REMARK    7  A    between atoms: S_9  and  C_10
REMARK    8  A    between atoms: C_13  and  C_14
REMARK    9  A    between atoms: C_17  and  C_18
REMARK   10  A    between atoms: C_18  and  C_19
REMARK   11  A    between atoms: C_18  and  C_20
REMARK   12  A    between atoms: C_18  and  C_21
REMARK   13  A    between atoms: N_24  and  C_25
REMARK                            x       y       z     vdW  Elec       q    Type
REMARK                         _______ _______ _______ _____ _____    ______ ____
ROOT
ATOM      1  C   UNL     1       5.093   4.565  18.399  0.00  0.00    +0.000 C 
ATOM      2  O   UNL     1       4.798   3.375  18.229  0.00  0.00    +0.000 OA
ENDROOT
BRANCH   1   3
ATOM      3  C   UNL     1       6.267   5.139  17.644  0.00  0.00    +0.000 C 
ATOM      4  C   UNL     1       6.298   4.979  16.299  0.00  0.00    +0.000 C 
ATOM      5  N   UNL     1       7.310   5.390  15.419  0.00  0.00    +0.000 N 
ATOM      6  C   UNL     1       7.073   4.787  14.175  0.00  0.00    +0.000 A 
ATOM      7  C   UNL     1       7.752   4.887  12.985  0.00  0.00    +0.000 A 
ATOM      8  C   UNL     1       7.185   4.262  11.866  0.00  0.00    +0.000 A 
ATOM      9  C   UNL     1       5.957   3.573  11.957  0.00  0.00    +0.000 A 
ATOM     10  C   UNL     1       5.266   3.494  13.169  0.00  0.00    +0.000 A 
ATOM     11  C   UNL     1       5.839   4.100  14.262  0.00  0.00    +0.000 A 
ATOM     12  N   UNL     1       5.316   4.310  15.549  0.00  0.00    +0.000 N 
ATOM     13  H   UNL     1       8.211   5.709  15.748  0.00  0.00    +0.000 HD
ATOM     14  H   UNL     1       4.740   3.616  16.019  0.00  0.00    +0.000 HD
BRANCH   3  15
ATOM     15  C   UNL     1       7.402   5.849  18.284  0.00  0.00    +0.000 C 
ATOM     16  O   UNL     1       7.804   5.653  19.423  0.00  0.00    +0.000 OA
BRANCH  15  18
ATOM     17  C   UNL     1       7.784   8.137  17.910  0.00  0.00    +0.000 C 
ATOM     18  O   UNL     1       7.907   6.786  17.449  0.00  0.00    +0.000 OA
ENDBRANCH  15  18
ENDBRANCH   3  15
ENDBRANCH   1   3
BRANCH   1  19
ATOM     19  C   UNL     1       4.277   5.469  19.331  0.00  0.00    +0.000 C 
BRANCH  19  20
ATOM     20  S   UNL     1       3.196   6.579  18.362  0.00  0.00    +0.000 S 
BRANCH  20  21
ATOM     21  C   UNL     1       2.216   7.290  19.592  0.00  0.00    +0.000 A 
ATOM     22  N   UNL     1       1.907   6.766  20.751  0.00  0.00    +0.000 NA
ATOM     23  N   UNL     1       1.122   7.679  21.413  0.00  0.00    +0.000 NA
ATOM     24  C   UNL     1       0.951   8.748  20.645  0.00  0.00    +0.000 A 
ATOM     25  N   UNL     1       1.643   8.530  19.470  0.00  0.00    +0.000 N 
ATOM     26  C   UNL     1       1.842   9.438  18.368  0.00  0.00    +0.000 C 
BRANCH  24  27
ATOM     27  C   UNL     1       0.213   9.951  21.053  0.00  0.00    +0.000 A 
ATOM     28  C   UNL     1       0.225  11.064  20.208  0.00  0.00    +0.000 A 
ATOM     29  C   UNL     1      -0.422  12.257  20.560  0.00  0.00    +0.000 A 
ATOM     30  C   UNL     1      -1.104  12.388  21.779  0.00  0.00    +0.000 A 
ATOM     31  C   UNL     1      -1.137  11.255  22.612  0.00  0.00    +0.000 A 
ATOM     32  C   UNL     1      -0.471  10.067  22.268  0.00  0.00    +0.000 A 
BRANCH  30  33
ATOM     33  C   UNL     1      -1.740  13.716  22.232  0.00  0.00    +0.000 C 
ATOM     34  C   UNL     1      -1.119  14.280  23.531  0.00  0.00    +0.000 C 
ATOM     35  C   UNL     1      -1.583  14.793  21.139  0.00  0.00    +0.000 C 
ATOM     36  C   UNL     1      -3.246  13.505  22.509  0.00  0.00    +0.000 C 
ENDBRANCH  30  33
ENDBRANCH  24  27
ENDBRANCH  20  21
ENDBRANCH  19  20
ENDBRANCH   1  19
TORSDOF 8
ENDMDL
MODEL 9
REMARK VINA RESULT:      -7.6      1.483      2.847
REMARK  Name = 
REMARK  13 active torsions:
REMARK  status: ('A' for Active; 'I' for Inactive)
REMARK    1  A    between atoms: C_1  and  O_2
REMARK    2  A    between atoms: O_2  and  C_3
REMARK    3  A    between atoms: C_3  and  C_5
REMARK    4  A    between atoms: C_5  and  C_6
REMARK    5  A    between atoms: C_6  and  C_8
REMARK    6  A    between atoms: C_8  and  S_9
REMARK    7  A    between atoms: S_9  and  C_10
REMARK    8  A    between atoms: C_13  and  C_14
REMARK    9  A    between atoms: C_17  and  C_18
REMARK   10  A    between atoms: C_18  and  C_19
REMARK   11  A    between atoms: C_18  and  C_20
REMARK   12  A    between atoms: C_18  and  C_21
REMARK   13  A    between atoms: N_24  and  C_25
REMARK                            x       y       z     vdW  Elec       q    Type
REMARK                         _______ _______ _______ _____ _____    ______ ____
ROOT
ATOM      1  C   UNL     1       5.074   4.745  18.666  0.00  0.00    +0.000 C 
ATOM      2  O   UNL     1       6.259   4.644  19.011  0.00  0.00    +0.000 OA
ENDROOT
BRANCH   1   3
ATOM      3  C   UNL     1       4.588   3.937  17.488  0.00  0.00    +0.000 C 
ATOM      4  C   UNL     1       5.304   3.994  16.339  0.00  0.00    +0.000 C 
ATOM      5  N   UNL     1       5.007   3.364  15.122  0.00  0.00    +0.000 N 
ATOM      6  C   UNL     1       5.844   3.907  14.137  0.00  0.00    +0.000 A 
ATOM      7  C   UNL     1       5.964   3.615  12.799  0.00  0.00    +0.000 A 
ATOM      8  C   UNL     1       7.000   4.242  12.094  0.00  0.00    +0.000 A 
ATOM      9  C   UNL     1       7.892   5.126  12.738  0.00  0.00    +0.000 A 
ATOM     10  C   UNL     1       7.771   5.401  14.103  0.00  0.00    +0.000 A 
ATOM     11  C   UNL     1       6.744   4.789  14.780  0.00  0.00    +0.000 A 
ATOM     12  N   UNL     1       6.469   4.759  16.158  0.00  0.00    +0.000 N 
ATOM     13  H   UNL     1       4.111   2.927  14.949  0.00  0.00    +0.000 HD
ATOM     14  H   UNL     1       6.613   5.568  16.757  0.00  0.00    +0.000 HD
BRANCH   3  15
ATOM     15  C   UNL     1       3.363   3.100  17.501  0.00  0.00    +0.000 C 
ATOM     16  O   UNL     1       2.383   3.274  16.790  0.00  0.00    +0.000 OA
BRANCH  15  18
ATOM     17  C   UNL     1       2.503   2.241  19.511  0.00  0.00    +0.000 C 
ATOM     18  O   UNL     1       3.457   2.138  18.447  0.00  0.00    +0.000 OA
ENDBRANCH  15  18
ENDBRANCH   3  15
ENDBRANCH   1   3
BRANCH   1  19
ATOM     19  C   UNL     1       4.092   5.647  19.424  0.00  0.00    +0.000 C 
BRANCH  19  20
ATOM     20  S   UNL     1       3.135   6.675  18.255  0.00  0.00    +0.000 S 
BRANCH  20  21
ATOM     21  C   UNL     1       2.153   7.612  19.321  0.00  0.00    +0.000 A 
ATOM     22  N   UNL     1       1.768   7.282  20.527  0.00  0.00    +0.000 NA
ATOM     23  N   UNL     1       1.015   8.324  21.012  0.00  0.00    +0.000 NA
ATOM     24  C   UNL     1       0.939   9.276  20.090  0.00  0.00    +0.000 A 
ATOM     25  N   UNL     1       1.662   8.850  18.993  0.00  0.00    +0.000 N 
ATOM     26  C   UNL     1       1.958   9.572  17.782  0.00  0.00    +0.000 C 
BRANCH  24  27
ATOM     27  C   UNL     1       0.260  10.564  20.284  0.00  0.00    +0.000 A 
ATOM     28  C   UNL     1       0.949  11.594  20.931  0.00  0.00    +0.000 A 
ATOM     29  C   UNL     1       0.343  12.832  21.186  0.00  0.00    +0.000 A 
ATOM     30  C   UNL     1      -0.985  13.089  20.811  0.00  0.00    +0.000 A 
ATOM     31  C   UNL     1      -1.662  12.059  20.135  0.00  0.00    +0.000 A 
ATOM     32  C   UNL     1      -1.061  10.812  19.897  0.00  0.00    +0.000 A 
BRANCH  30  33
ATOM     33  C   UNL     1      -1.704  14.404  21.165  0.00  0.00    +0.000 C 
ATOM     34  C   UNL     1      -3.229  14.355  20.909  0.00  0.00    +0.000 C 
ATOM     35  C   UNL     1      -1.496  14.753  22.653  0.00  0.00    +0.000 C 
ATOM     36  C   UNL     1      -1.141  15.556  20.300  0.00  0.00    +0.000 C 
ENDBRANCH  30  33
ENDBRANCH  24  27
ENDBRANCH  20  21
ENDBRANCH  19  20
ENDBRANCH   1  19
TORSDOF 8
ENDMDL
