MODEL 1
REMARK VINA RESULT:      -7.4      0.000      0.000
REMARK  Name = 
REMARK  5 active torsions:
REMARK  status: ('A' for Active; 'I' for Inactive)
REMARK    1  A    between atoms: C_2  and  C_3
REMARK    2  A    between atoms: C_3  and  C_4
REMARK    3  A    between atoms: C_4  and  C_5
REMARK    4  A    between atoms: C_5  and  O_6
REMARK    5  A    between atoms: O_6  and  C_7
REMARK                            x       y       z     vdW  Elec       q    Type
REMARK                         _______ _______ _______ _____ _____    ______ ____
ROOT
ATOM      1  C   UNL     1       6.769   6.263  18.269  0.00  0.00    +0.000 C 
ENDROOT
BRANCH   1   3
ATOM      2  O   UNL     1       8.028   4.428  17.346  0.00  0.00    +0.000 OA
ATOM      3  C   UNL     1       6.990   4.802  17.899  0.00  0.00    +0.000 C 
ATOM      4  N   UNL     1       6.031   3.868  18.151  0.00  0.00    +0.000 N 
ATOM      5  C   UNL     1       4.857   4.065  18.814  0.00  0.00    +0.000 A 
ATOM      6  N   UNL     1       4.449   5.125  19.467  0.00  0.00    +0.000 NA
ATOM      7  C   UNL     1       3.176   4.893  19.956  0.00  0.00    +0.000 A 
ATOM      8  C   UNL     1       2.665   3.656  19.653  0.00  0.00    +0.000 A 
ATOM      9 CL   UNL     1       1.129   3.025  20.057  0.00  0.00    +0.000 Cl
ATOM     10  S   UNL     1       3.783   2.735  18.768  0.00  0.00    +0.000 S 
ATOM     11  H   UNL     1       6.220   2.942  17.796  0.00  0.00    +0.000 HD
ENDBRANCH   1   3
BRANCH   1  12
ATOM     12  C   UNL     1       7.649   7.215  17.459  0.00  0.00    +0.000 C 
BRANCH  12  13
ATOM     13  C   UNL     1       8.366   8.200  18.382  0.00  0.00    +0.000 C 
BRANCH  13  14
ATOM     14  O   UNL     1       8.312   9.511  17.823  0.00  0.00    +0.000 OA
BRANCH  14  15
ATOM     15  C   UNL     1       8.937  10.493  18.546  0.00  0.00    +0.000 A 
ATOM     16  C   UNL     1       9.497  10.339  19.819  0.00  0.00    +0.000 A 
ATOM     17  C   UNL     1      10.112  11.420  20.458  0.00  0.00    +0.000 A 
ATOM     18  C   UNL     1      10.172  12.659  19.825  0.00  0.00    +0.000 A 
ATOM     19  C   UNL     1       9.613  12.813  18.558  0.00  0.00    +0.000 A 
ATOM     20 CL   UNL     1       9.688  14.345  17.779  0.00  0.00    +0.000 Cl
ATOM     21  C   UNL     1       8.998  11.739  17.919  0.00  0.00    +0.000 A 
ENDBRANCH  14  15
ENDBRANCH  13  14
ENDBRANCH  12  13
ENDBRANCH   1  12
TORSDOF 5
ENDMDL
MODEL 2
REMARK VINA RESULT:      -7.3      5.063      8.285
REMARK  Name = 
REMARK  5 active torsions:
REMARK  status: ('A' for Active; 'I' for Inactive)
REMARK    1  A    between atoms: C_2  and  C_3
REMARK    2  A    between atoms: C_3  and  C_4
REMARK    3  A    between atoms: C_4  and  C_5
REMARK    4  A    between atoms: C_5  and  O_6
REMARK    5  A    between atoms: O_6  and  C_7
REMARK                            x       y       z     vdW  Elec       q    Type
REMARK                         _______ _______ _______ _____ _____    ______ ____
ROOT
ATOM      1  C   UNL     1       5.554   6.028  17.841  0.00  0.00    +0.000 C 
ENDROOT
BRANCH   1   3
ATOM      2  O   UNL     1       7.562   7.359  17.842  0.00  0.00    +0.000 OA
ATOM      3  C   UNL     1       6.868   6.525  17.254  0.00  0.00    +0.000 C 
ATOM      4  N   UNL     1       7.303   6.076  16.044  0.00  0.00    +0.000 N 
ATOM      5  C   UNL     1       6.724   5.109  15.278  0.00  0.00    +0.000 A 
ATOM      6  N   UNL     1       5.728   4.311  15.574  0.00  0.00    +0.000 NA
ATOM      7  C   UNL     1       5.450   3.509  14.482  0.00  0.00    +0.000 A 
ATOM      8  C   UNL     1       6.252   3.732  13.392  0.00  0.00    +0.000 A 
ATOM      9 CL   UNL     1       6.191   2.962  11.867  0.00  0.00    +0.000 Cl
ATOM     10  S   UNL     1       7.403   4.937  13.718  0.00  0.00    +0.000 S 
ATOM     11  H   UNL     1       8.138   6.519  15.688  0.00  0.00    +0.000 HD
ENDBRANCH   1   3
BRANCH   1  12
ATOM     12  C   UNL     1       4.371   6.927  17.482  0.00  0.00    +0.000 C 
BRANCH  12  13
ATOM     13  C   UNL     1       3.230   6.740  18.484  0.00  0.00    +0.000 C 
BRANCH  13  14
ATOM     14  O   UNL     1       2.188   5.972  17.888  0.00  0.00    +0.000 OA
BRANCH  14  15
ATOM     15  C   UNL     1       2.169   4.641  18.213  0.00  0.00    +0.000 A 
ATOM     16  C   UNL     1       2.458   3.583  17.344  0.00  0.00    +0.000 A 
ATOM     17  C   UNL     1       2.407   2.261  17.795  0.00  0.00    +0.000 A 
ATOM     18  C   UNL     1       2.069   1.991  19.119  0.00  0.00    +0.000 A 
ATOM     19  C   UNL     1       1.780   3.044  19.985  0.00  0.00    +0.000 A 
ATOM     20 CL   UNL     1       1.363   2.708  21.620  0.00  0.00    +0.000 Cl
ATOM     21  C   UNL     1       1.828   4.363  19.538  0.00  0.00    +0.000 A 
ENDBRANCH  14  15
ENDBRANCH  13  14
ENDBRANCH  12  13
ENDBRANCH   1  12
TORSDOF 5
ENDMDL
MODEL 3
REMARK VINA RESULT:      -7.3      4.644      6.137
REMARK  Name = 
REMARK  5 active torsions:
REMARK  status: ('A' for Active; 'I' for Inactive)
REMARK    1  A    between atoms: C_2  and  C_3
REMARK    2  A    between atoms: C_3  and  C_4
REMARK    3  A    between atoms: C_4  and  C_5
REMARK    4  A    between atoms: C_5  and  O_6
REMARK    5  A    between atoms: O_6  and  C_7
REMARK                            x       y       z     vdW  Elec       q    Type
REMARK                         _______ _______ _______ _____ _____    ______ ____
ROOT
ATOM      1  C   UNL     1       2.380   3.236  19.809  0.00  0.00    +0.000 C 
ENDROOT
BRANCH   1   3
ATOM      2  O   UNL     1       2.208   3.387  22.208  0.00  0.00    +0.000 OA
ATOM      3  C   UNL     1       2.232   3.984  21.127  0.00  0.00    +0.000 C 
ATOM      4  N   UNL     1       2.098   5.340  21.147  0.00  0.00    +0.000 N 
ATOM      5  C   UNL     1       2.174   6.180  20.077  0.00  0.00    +0.000 A 
ATOM      6  N   UNL     1       2.520   5.912  18.842  0.00  0.00    +0.000 NA
ATOM      7  C   UNL     1       2.421   7.064  18.084  0.00  0.00    +0.000 A 
ATOM      8  C   UNL     1       2.001   8.170  18.779  0.00  0.00    +0.000 A 
ATOM      9 CL   UNL     1       1.736   9.750  18.181  0.00  0.00    +0.000 Cl
ATOM     10  S   UNL     1       1.746   7.801  20.416  0.00  0.00    +0.000 S 
ATOM     11  H   UNL     1       1.918   5.748  22.053  0.00  0.00    +0.000 HD
ENDBRANCH   1   3
BRANCH   1  12
ATOM     12  C   UNL     1       3.653   2.391  19.752  0.00  0.00    +0.000 C 
BRANCH  12  13
ATOM     13  C   UNL     1       4.690   3.044  18.837  0.00  0.00    +0.000 C 
BRANCH  13  14
ATOM     14  O   UNL     1       5.481   3.963  19.587  0.00  0.00    +0.000 OA
BRANCH  14  15
ATOM     15  C   UNL     1       6.095   4.950  18.860  0.00  0.00    +0.000 A 
ATOM     16  C   UNL     1       7.246   5.649  19.241  0.00  0.00    +0.000 A 
ATOM     17  C   UNL     1       7.782   6.638  18.410  0.00  0.00    +0.000 A 
ATOM     18  C   UNL     1       7.170   6.930  17.194  0.00  0.00    +0.000 A 
ATOM     19  C   UNL     1       6.023   6.236  16.814  0.00  0.00    +0.000 A 
ATOM     20 CL   UNL     1       5.269   6.599  15.312  0.00  0.00    +0.000 Cl
ATOM     21  C   UNL     1       5.485   5.251  17.640  0.00  0.00    +0.000 A 
ENDBRANCH  14  15
ENDBRANCH  13  14
ENDBRANCH  12  13
ENDBRANCH   1  12
TORSDOF 5
ENDMDL
MODEL 4
REMARK VINA RESULT:      -7.2      4.512      6.845
REMARK  Name = 
REMARK  5 active torsions:
REMARK  status: ('A' for Active; 'I' for Inactive)
REMARK    1  A    between atoms: C_2  and  C_3
REMARK    2  A    between atoms: C_3  and  C_4
REMARK    3  A    between atoms: C_4  and  C_5
REMARK    4  A    between atoms: C_5  and  O_6
REMARK    5  A    between atoms: O_6  and  C_7
REMARK                            x       y       z     vdW  Elec       q    Type
REMARK                         _______ _______ _______ _____ _____    ______ ____
ROOT
ATOM      1  C   UNL     1       3.419   3.127  18.052  0.00  0.00    +0.000 C 
ENDROOT
BRANCH   1   3
ATOM      2  O   UNL     1       4.417   1.829  19.820  0.00  0.00    +0.000 OA
ATOM      3  C   UNL     1       4.503   2.809  19.073  0.00  0.00    +0.000 C 
ATOM      4  N   UNL     1       5.593   3.616  19.205  0.00  0.00    +0.000 N 
ATOM      5  C   UNL     1       5.906   4.693  18.433  0.00  0.00    +0.000 A 
ATOM      6  N   UNL     1       5.332   5.112  17.332  0.00  0.00    +0.000 NA
ATOM      7  C   UNL     1       5.961   6.267  16.904  0.00  0.00    +0.000 A 
ATOM      8  C   UNL     1       6.996   6.683  17.703  0.00  0.00    +0.000 A 
ATOM      9 CL   UNL     1       7.981   8.067  17.514  0.00  0.00    +0.000 Cl
ATOM     10  S   UNL     1       7.230   5.615  19.002  0.00  0.00    +0.000 S 
ATOM     11  H   UNL     1       6.219   3.383  19.963  0.00  0.00    +0.000 HD
ENDBRANCH   1   3
BRANCH   1  12
ATOM     12  C   UNL     1       2.185   3.769  18.685  0.00  0.00    +0.000 C 
BRANCH  12  13
ATOM     13  C   UNL     1       2.024   5.213  18.205  0.00  0.00    +0.000 C 
BRANCH  13  14
ATOM     14  O   UNL     1       2.666   6.098  19.120  0.00  0.00    +0.000 OA
BRANCH  14  15
ATOM     15  C   UNL     1       2.165   7.372  19.165  0.00  0.00    +0.000 A 
ATOM     16  C   UNL     1       2.147   8.282  18.102  0.00  0.00    +0.000 A 
ATOM     17  C   UNL     1       1.605   9.559  18.269  0.00  0.00    +0.000 A 
ATOM     18  C   UNL     1       1.076   9.933  19.502  0.00  0.00    +0.000 A 
ATOM     19  C   UNL     1       1.094   9.029  20.563  0.00  0.00    +0.000 A 
ATOM     20 CL   UNL     1       0.440   9.492  22.085  0.00  0.00    +0.000 Cl
ATOM     21  C   UNL     1       1.635   7.755  20.399  0.00  0.00    +0.000 A 
ENDBRANCH  14  15
ENDBRANCH  13  14
ENDBRANCH  12  13
ENDBRANCH   1  12
TORSDOF 5
ENDMDL
MODEL 5
REMARK VINA RESULT:      -7.1      1.339      1.364
REMARK  Name = 
REMARK  5 active torsions:
REMARK  status: ('A' for Active; 'I' for Inactive)
REMARK    1  A    between atoms: C_2  and  C_3
REMARK    2  A    between atoms: C_3  and  C_4
REMARK    3  A    between atoms: C_4  and  C_5
REMARK    4  A    between atoms: C_5  and  O_6
REMARK    5  A    between atoms: O_6  and  C_7
REMARK                            x       y       z     vdW  Elec       q    Type
REMARK                         _______ _______ _______ _____ _____    ______ ____
ROOT
ATOM      1  C   UNL     1       6.539   7.193  17.131  0.00  0.00    +0.000 C 
ENDROOT
BRANCH   1   3
ATOM      2  O   UNL     1       7.397   5.613  15.527  0.00  0.00    +0.000 OA
ATOM      3  C   UNL     1       6.543   5.867  16.382  0.00  0.00    +0.000 C 
ATOM      4  N   UNL     1       5.585   4.930  16.621  0.00  0.00    +0.000 N 
ATOM      5  C   UNL     1       4.608   4.988  17.570  0.00  0.00    +0.000 A 
ATOM      6  N   UNL     1       4.448   5.860  18.534  0.00  0.00    +0.000 NA
ATOM      7  C   UNL     1       3.299   5.551  19.239  0.00  0.00    +0.000 A 
ATOM      8  C   UNL     1       2.627   4.448  18.777  0.00  0.00    +0.000 A 
ATOM      9 CL   UNL     1       1.167   3.782  19.369  0.00  0.00    +0.000 Cl
ATOM     10  S   UNL     1       3.437   3.746  17.461  0.00  0.00    +0.000 S 
ATOM     11  H   UNL     1       5.609   4.117  16.022  0.00  0.00    +0.000 HD
ENDBRANCH   1   3
BRANCH   1  12
ATOM     12  C   UNL     1       7.796   7.396  17.977  0.00  0.00    +0.000 C 
BRANCH  12  13
ATOM     13  C   UNL     1       8.188   8.873  18.011  0.00  0.00    +0.000 C 
BRANCH  13  14
ATOM     14  O   UNL     1       9.056   9.115  19.116  0.00  0.00    +0.000 OA
BRANCH  14  15
ATOM     15  C   UNL     1       9.428  10.420  19.305  0.00  0.00    +0.000 A 
ATOM     16  C   UNL     1       9.378  11.117  20.517  0.00  0.00    +0.000 A 
ATOM     17  C   UNL     1       9.789  12.452  20.586  0.00  0.00    +0.000 A 
ATOM     18  C   UNL     1      10.253  13.095  19.442  0.00  0.00    +0.000 A 
ATOM     19  C   UNL     1      10.302  12.403  18.233  0.00  0.00    +0.000 A 
ATOM     20 CL   UNL     1      10.876  13.201  16.821  0.00  0.00    +0.000 Cl
ATOM     21  C   UNL     1       9.892  11.073  18.161  0.00  0.00    +0.000 A 
ENDBRANCH  14  15
ENDBRANCH  13  14
ENDBRANCH  12  13
ENDBRANCH   1  12
TORSDOF 5
ENDMDL
MODEL 6
REMARK VINA RESULT:      -7.1      1.281      1.676
REMARK  Name = 
REMARK  5 active torsions:
REMARK  status: ('A' for Active; 'I' for Inactive)
REMARK    1  A    between atoms: C_2  and  C_3
REMARK    2  A    between atoms: C_3  and  C_4
REMARK    3  A    between atoms: C_4  and  C_5
REMARK    4  A    between atoms: C_5  and  O_6
REMARK    5  A    between atoms: O_6  and  C_7
REMARK                            x       y       z     vdW  Elec       q    Type
REMARK                         _______ _______ _______ _____ _____    ______ ____
ROOT
ATOM      1  C   UNL     1       7.022   6.265  17.419  0.00  0.00    +0.000 C 
ENDROOT
BRANCH   1   3
ATOM      2  O   UNL     1       8.276   4.212  17.300  0.00  0.00    +0.000 OA
ATOM      3  C   UNL     1       7.243   4.779  17.666  0.00  0.00    +0.000 C 
ATOM      4  N   UNL     1       6.289   4.027  18.282  0.00  0.00    +0.000 N 
ATOM      5  C   UNL     1       5.122   4.475  18.823  0.00  0.00    +0.000 A 
ATOM      6  N   UNL     1       4.717   5.709  18.999  0.00  0.00    +0.000 NA
ATOM      7  C   UNL     1       3.450   5.696  19.553  0.00  0.00    +0.000 A 
ATOM      8  C   UNL     1       2.939   4.442  19.778  0.00  0.00    +0.000 A 
ATOM      9 CL   UNL     1       1.409   4.029  20.418  0.00  0.00    +0.000 Cl
ATOM     10  S   UNL     1       4.051   3.241  19.327  0.00  0.00    +0.000 S 
ATOM     11  H   UNL     1       6.477   3.035  18.329  0.00  0.00    +0.000 HD
ENDBRANCH   1   3
BRANCH   1  12
ATOM     12  C   UNL     1       7.911   7.147  18.296  0.00  0.00    +0.000 C 
BRANCH  12  13
ATOM     13  C   UNL     1       7.811   8.610  17.863  0.00  0.00    +0.000 C 
BRANCH  13  14
ATOM     14  O   UNL     1       9.070   9.253  18.047  0.00  0.00    +0.000 OA
BRANCH  14  15
ATOM     15  C   UNL     1       9.015  10.565  18.440  0.00  0.00    +0.000 A 
ATOM     16  C   UNL     1       8.700  11.652  17.618  0.00  0.00    +0.000 A 
ATOM     17  C   UNL     1       8.675  12.950  18.137  0.00  0.00    +0.000 A 
ATOM     18  C   UNL     1       8.964  13.166  19.482  0.00  0.00    +0.000 A 
ATOM     19  C   UNL     1       9.281  12.084  20.302  0.00  0.00    +0.000 A 
ATOM     20 CL   UNL     1       9.638  12.354  21.963  0.00  0.00    +0.000 Cl
ATOM     21  C   UNL     1       9.307  10.789  19.787  0.00  0.00    +0.000 A 
ENDBRANCH  14  15
ENDBRANCH  13  14
ENDBRANCH  12  13
ENDBRANCH   1  12
TORSDOF 5
ENDMDL
MODEL 7
REMARK VINA RESULT:      -7.1      4.696      6.843
REMARK  Name = 
REMARK  5 active torsions:
REMARK  status: ('A' for Active; 'I' for Inactive)
REMARK    1  A    between atoms: C_2  and  C_3
REMARK    2  A    between atoms: C_3  and  C_4
REMARK    3  A    between atoms: C_4  and  C_5
REMARK    4  A    between atoms: C_5  and  O_6
REMARK    5  A    between atoms: O_6  and  C_7
REMARK                            x       y       z     vdW  Elec       q    Type
REMARK                         _______ _______ _______ _____ _____    ______ ____
ROOT
ATOM      1  C   UNL     1       2.584   3.798  17.477  0.00  0.00    +0.000 C 
ENDROOT
BRANCH   1   3
ATOM      2  O   UNL     1       3.659   1.682  17.895  0.00  0.00    +0.000 OA
ATOM      3  C   UNL     1       3.788   2.897  17.720  0.00  0.00    +0.000 C 
ATOM      4  N   UNL     1       5.046   3.417  17.772  0.00  0.00    +0.000 N 
ATOM      5  C   UNL     1       5.404   4.710  17.532  0.00  0.00    +0.000 A 
ATOM      6  N   UNL     1       4.671   5.695  17.074  0.00  0.00    +0.000 NA
ATOM      7  C   UNL     1       5.439   6.844  17.021  0.00  0.00    +0.000 A 
ATOM      8  C   UNL     1       6.734   6.684  17.445  0.00  0.00    +0.000 A 
ATOM      9 CL   UNL     1       7.960   7.871  17.549  0.00  0.00    +0.000 Cl
ATOM     10  S   UNL     1       7.034   5.075  17.895  0.00  0.00    +0.000 S 
ATOM     11  H   UNL     1       5.778   2.767  18.023  0.00  0.00    +0.000 HD
ENDBRANCH   1   3
BRANCH   1  12
ATOM     12  C   UNL     1       1.453   3.550  18.475  0.00  0.00    +0.000 C 
BRANCH  12  13
ATOM     13  C   UNL     1       1.749   4.245  19.805  0.00  0.00    +0.000 C 
BRANCH  13  14
ATOM     14  O   UNL     1       2.617   5.355  19.585  0.00  0.00    +0.000 OA
BRANCH  14  15
ATOM     15  C   UNL     1       2.086   6.588  19.855  0.00  0.00    +0.000 A 
ATOM     16  C   UNL     1       1.427   6.954  21.034  0.00  0.00    +0.000 A 
ATOM     17  C   UNL     1       0.928   8.250  21.195  0.00  0.00    +0.000 A 
ATOM     18  C   UNL     1       1.086   9.187  20.177  0.00  0.00    +0.000 A 
ATOM     19  C   UNL     1       1.740   8.823  19.001  0.00  0.00    +0.000 A 
ATOM     20 CL   UNL     1       1.934   9.982  17.744  0.00  0.00    +0.000 Cl
ATOM     21  C   UNL     1       2.238   7.532  18.837  0.00  0.00    +0.000 A 
ENDBRANCH  14  15
ENDBRANCH  13  14
ENDBRANCH  12  13
ENDBRANCH   1  12
TORSDOF 5
ENDMDL
MODEL 8
REMARK VINA RESULT:      -7.1      1.277      1.546
REMARK  Name = 
REMARK  5 active torsions:
REMARK  status: ('A' for Active; 'I' for Inactive)
REMARK    1  A    between atoms: C_2  and  C_3
REMARK    2  A    between atoms: C_3  and  C_4
REMARK    3  A    between atoms: C_4  and  C_5
REMARK    4  A    between atoms: C_5  and  O_6
REMARK    5  A    between atoms: O_6  and  C_7
REMARK                            x       y       z     vdW  Elec       q    Type
REMARK                         _______ _______ _______ _____ _____    ______ ____
ROOT
ATOM      1  C   UNL     1       7.031   6.158  18.468  0.00  0.00    +0.000 C 
ENDROOT
BRANCH   1   3
ATOM      2  O   UNL     1       7.983   4.402  17.121  0.00  0.00    +0.000 OA
ATOM      3  C   UNL     1       7.017   4.801  17.778  0.00  0.00    +0.000 C 
ATOM      4  N   UNL     1       5.921   3.995  17.849  0.00  0.00    +0.000 N 
ATOM      5  C   UNL     1       4.792   4.219  18.579  0.00  0.00    +0.000 A 
ATOM      6  N   UNL     1       4.556   5.157  19.463  0.00  0.00    +0.000 NA
ATOM      7  C   UNL     1       3.262   5.023  19.932  0.00  0.00    +0.000 A 
ATOM      8  C   UNL     1       2.561   3.980  19.380  0.00  0.00    +0.000 A 
ATOM      9 CL   UNL     1       0.943   3.522  19.686  0.00  0.00    +0.000 Cl
ATOM     10  S   UNL     1       3.520   3.117  18.276  0.00  0.00    +0.000 S 
ATOM     11  H   UNL     1       5.961   3.153  17.293  0.00  0.00    +0.000 HD
ENDBRANCH   1   3
BRANCH   1  12
ATOM     12  C   UNL     1       7.667   7.250  17.608  0.00  0.00    +0.000 C 
BRANCH  12  13
ATOM     13  C   UNL     1       8.409   8.260  18.484  0.00  0.00    +0.000 C 
BRANCH  13  14
ATOM     14  O   UNL     1       8.554   9.491  17.781  0.00  0.00    +0.000 OA
BRANCH  14  15
ATOM     15  C   UNL     1       9.286  10.458  18.419  0.00  0.00    +0.000 A 
ATOM     16  C   UNL     1      10.296  11.235  17.841  0.00  0.00    +0.000 A 
ATOM     17  C   UNL     1      10.973  12.196  18.597  0.00  0.00    +0.000 A 
ATOM     18  C   UNL     1      10.641  12.386  19.936  0.00  0.00    +0.000 A 
ATOM     19  C   UNL     1       9.637  11.612  20.515  0.00  0.00    +0.000 A 
ATOM     20 CL   UNL     1       9.229  11.848  22.169  0.00  0.00    +0.000 Cl
ATOM     21  C   UNL     1       8.961  10.652  19.764  0.00  0.00    +0.000 A 
ENDBRANCH  14  15
ENDBRANCH  13  14
ENDBRANCH  12  13
ENDBRANCH   1  12
TORSDOF 5
ENDMDL
MODEL 9
REMARK VINA RESULT:      -6.9      2.988      3.600
REMARK  Name = 
REMARK  5 active torsions:
REMARK  status: ('A' for Active; 'I' for Inactive)
REMARK    1  A    between atoms: C_2  and  C_3
REMARK    2  A    between atoms: C_3  and  C_4
REMARK    3  A    between atoms: C_4  and  C_5
REMARK    4  A    between atoms: C_5  and  O_6
REMARK    5  A    between atoms: O_6  and  C_7
REMARK                            x       y       z     vdW  Elec       q    Type
REMARK                         _______ _______ _______ _____ _____    ______ ____
ROOT
ATOM      1  C   UNL     1       7.889   6.732  18.125  0.00  0.00    +0.000 C 
ENDROOT
BRANCH   1   3
ATOM      2  O   UNL     1       6.406   5.671  19.701  0.00  0.00    +0.000 OA
ATOM      3  C   UNL     1       6.800   5.749  18.533  0.00  0.00    +0.000 C 
ATOM      4  N   UNL     1       6.243   4.907  17.617  0.00  0.00    +0.000 N 
ATOM      5  C   UNL     1       6.485   4.889  16.277  0.00  0.00    +0.000 A 
ATOM      6  N   UNL     1       7.178   5.734  15.553  0.00  0.00    +0.000 NA
ATOM      7  C   UNL     1       7.186   5.305  14.239  0.00  0.00    +0.000 A 
ATOM      8  C   UNL     1       6.495   4.141  14.015  0.00  0.00    +0.000 A 
ATOM      9 CL   UNL     1       6.308   3.296  12.540  0.00  0.00    +0.000 Cl
ATOM     10  S   UNL     1       5.786   3.567  15.447  0.00  0.00    +0.000 S 
ATOM     11  H   UNL     1       5.592   4.229  17.986  0.00  0.00    +0.000 HD
ENDBRANCH   1   3
BRANCH   1  12
ATOM     12  C   UNL     1       7.336   8.117  17.791  0.00  0.00    +0.000 C 
BRANCH  12  13
ATOM     13  C   UNL     1       8.457   9.158  17.795  0.00  0.00    +0.000 C 
BRANCH  13  14
ATOM     14  O   UNL     1       8.722   9.574  19.132  0.00  0.00    +0.000 OA
BRANCH  14  15
ATOM     15  C   UNL     1       9.561  10.649  19.265  0.00  0.00    +0.000 A 
ATOM     16  C   UNL     1      10.058  11.155  20.472  0.00  0.00    +0.000 A 
ATOM     17  C   UNL     1      10.912  12.261  20.480  0.00  0.00    +0.000 A 
ATOM     18  C   UNL     1      11.275  12.867  19.280  0.00  0.00    +0.000 A 
ATOM     19  C   UNL     1      10.780  12.366  18.077  0.00  0.00    +0.000 A 
ATOM     20 CL   UNL     1      11.229  13.117  16.596  0.00  0.00    +0.000 Cl
ATOM     21  C   UNL     1       9.927  11.264  18.066  0.00  0.00    +0.000 A 
ENDBRANCH  14  15
ENDBRANCH  13  14
ENDBRANCH  12  13
ENDBRANCH   1  12
TORSDOF 5
ENDMDL
