MODEL 1
REMARK VINA RESULT:      -8.2      0.000      0.000
REMARK  Name = 
REMARK  7 active torsions:
REMARK  status: ('A' for Active; 'I' for Inactive)
REMARK    1  A    between atoms: C_2  and  O_3
REMARK    2  A    between atoms: C_2  and  C_18
REMARK    3  A    between atoms: O_3  and  C_4
REMARK    4  A    between atoms: C_10  and  C_11
REMARK    5  A    between atoms: C_11  and  C_12
REMARK    6  A    between atoms: C_23  and  C_24
REMARK    7  A    between atoms: C_27  and  C_28
REMARK                            x       y       z     vdW  Elec       q    Type
REMARK                         _______ _______ _______ _____ _____    ______ ____
ROOT
ATOM      1  O   UNL     1       5.491   4.788  20.382  0.00  0.00    +0.000 OA
ATOM      2  C   UNL     1       5.274   4.284  19.291  0.00  0.00    +0.000 C 
ENDROOT
BRANCH   2   3
ATOM      3  C   UNL     1       4.048   3.495  18.944  0.00  0.00    +0.000 A 
ATOM      4  C   UNL     1       4.216   2.102  18.776  0.00  0.00    +0.000 A 
ATOM      5  C   UNL     1       3.196   1.312  18.259  0.00  0.00    +0.000 A 
ATOM      6  C   UNL     1       1.992   1.898  17.905  0.00  0.00    +0.000 A 
ATOM      7  C   UNL     1       1.797   3.270  18.103  0.00  0.00    +0.000 A 
ATOM      8  C   UNL     1       2.806   4.111  18.630  0.00  0.00    +0.000 A 
BRANCH   8   9
ATOM      9  C   UNL     1       2.519   5.559  18.815  0.00  0.00    +0.000 A 
ATOM     10  C   UNL     1       2.650   6.480  17.765  0.00  0.00    +0.000 A 
ATOM     11  C   UNL     1       2.267   7.818  17.904  0.00  0.00    +0.000 A 
ATOM     12  C   UNL     1       1.810   8.304  19.131  0.00  0.00    +0.000 A 
ATOM     13  C   UNL     1       1.768   7.427  20.221  0.00  0.00    +0.000 A 
ATOM     14  C   UNL     1       2.104   6.076  20.061  0.00  0.00    +0.000 A 
BRANCH  12  15
ATOM     15  C   UNL     1       1.360   9.734  19.281  0.00  0.00    +0.000 C 
ATOM     16  F   UNL     1       0.059   9.939  18.930  0.00  0.00    +0.000 F 
ATOM     17  F   UNL     1       1.473  10.188  20.561  0.00  0.00    +0.000 F 
ATOM     18  F   UNL     1       2.090  10.595  18.519  0.00  0.00    +0.000 F 
ENDBRANCH  12  15
ENDBRANCH   8   9
ENDBRANCH   2   3
BRANCH   2  19
ATOM     19  O   UNL     1       6.079   4.422  18.169  0.00  0.00    +0.000 OA
BRANCH  19  20
ATOM     20  C   UNL     1       6.798   5.630  18.001  0.00  0.00    +0.000 A 
ATOM     21  C   UNL     1       7.806   6.006  18.904  0.00  0.00    +0.000 A 
ATOM     22  C   UNL     1       8.382   7.270  18.829  0.00  0.00    +0.000 A 
ATOM     23  C   UNL     1       7.934   8.172  17.872  0.00  0.00    +0.000 A 
ATOM     24 CL   UNL     1       8.601   9.757  17.823  0.00  0.00    +0.000 Cl
ATOM     25  C   UNL     1       6.949   7.800  16.956  0.00  0.00    +0.000 A 
ATOM     26  C   UNL     1       6.376   6.513  16.991  0.00  0.00    +0.000 A 
BRANCH  26  27
ATOM     27  C   UNL     1       5.392   6.123  15.913  0.00  0.00    +0.000 C 
BRANCH  27  28
ATOM     28  C   UNL     1       5.917   5.259  14.793  0.00  0.00    +0.000 A 
ATOM     29  C   UNL     1       5.123   4.246  14.224  0.00  0.00    +0.000 A 
ATOM     30  C   UNL     1       5.567   3.533  13.106  0.00  0.00    +0.000 A 
ATOM     31  C   UNL     1       6.811   3.816  12.549  0.00  0.00    +0.000 A 
ATOM     32  C   UNL     1       7.620   4.798  13.118  0.00  0.00    +0.000 A 
ATOM     33  C   UNL     1       7.178   5.512  14.235  0.00  0.00    +0.000 A 
ENDBRANCH  27  28
ENDBRANCH  26  27
ENDBRANCH  19  20
ENDBRANCH   2  19
TORSDOF 7
ENDMDL
MODEL 2
REMARK VINA RESULT:      -8.2      8.452     11.654
REMARK  Name = 
REMARK  7 active torsions:
REMARK  status: ('A' for Active; 'I' for Inactive)
REMARK    1  A    between atoms: C_2  and  O_3
REMARK    2  A    between atoms: C_2  and  C_18
REMARK    3  A    between atoms: O_3  and  C_4
REMARK    4  A    between atoms: C_10  and  C_11
REMARK    5  A    between atoms: C_11  and  C_12
REMARK    6  A    between atoms: C_23  and  C_24
REMARK    7  A    between atoms: C_27  and  C_28
REMARK                            x       y       z     vdW  Elec       q    Type
REMARK                         _______ _______ _______ _____ _____    ______ ____
ROOT
ATOM      1  O   UNL     1      -0.862  12.913  19.273  0.00  0.00    +0.000 OA
ATOM      2  C   UNL     1      -1.446  11.985  19.809  0.00  0.00    +0.000 C 
ENDROOT
BRANCH   2   3
ATOM      3  C   UNL     1      -0.898  11.171  20.942  0.00  0.00    +0.000 A 
ATOM      4  C   UNL     1      -0.123  10.041  20.594  0.00  0.00    +0.000 A 
ATOM      5  C   UNL     1       0.261   9.110  21.552  0.00  0.00    +0.000 A 
ATOM      6  C   UNL     1      -0.119   9.293  22.872  0.00  0.00    +0.000 A 
ATOM      7  C   UNL     1      -0.852  10.427  23.237  0.00  0.00    +0.000 A 
ATOM      8  C   UNL     1      -1.260  11.402  22.296  0.00  0.00    +0.000 A 
BRANCH   8   9
ATOM      9  C   UNL     1      -2.033  12.584  22.766  0.00  0.00    +0.000 A 
ATOM     10  C   UNL     1      -1.405  13.792  23.103  0.00  0.00    +0.000 A 
ATOM     11  C   UNL     1      -2.136  14.939  23.431  0.00  0.00    +0.000 A 
ATOM     12  C   UNL     1      -3.530  14.895  23.510  0.00  0.00    +0.000 A 
ATOM     13  C   UNL     1      -4.173  13.674  23.278  0.00  0.00    +0.000 A 
ATOM     14  C   UNL     1      -3.437  12.542  22.901  0.00  0.00    +0.000 A 
BRANCH  12  15
ATOM     15  C   UNL     1      -4.329  16.133  23.825  0.00  0.00    +0.000 C 
ATOM     16  F   UNL     1      -5.344  15.920  24.709  0.00  0.00    +0.000 F 
ATOM     17  F   UNL     1      -3.568  17.125  24.368  0.00  0.00    +0.000 F 
ATOM     18  F   UNL     1      -4.908  16.676  22.718  0.00  0.00    +0.000 F 
ENDBRANCH  12  15
ENDBRANCH   8   9
ENDBRANCH   2   3
BRANCH   2  19
ATOM     19  O   UNL     1      -2.742  11.579  19.523  0.00  0.00    +0.000 OA
BRANCH  19  20
ATOM     20  C   UNL     1      -3.020  11.079  18.228  0.00  0.00    +0.000 A 
ATOM     21  C   UNL     1      -2.104  10.252  17.557  0.00  0.00    +0.000 A 
ATOM     22  C   UNL     1      -2.308   9.912  16.223  0.00  0.00    +0.000 A 
ATOM     23  C   UNL     1      -3.411  10.420  15.548  0.00  0.00    +0.000 A 
ATOM     24 CL   UNL     1      -3.627  10.052  13.881  0.00  0.00    +0.000 Cl
ATOM     25  C   UNL     1      -4.339  11.225  16.211  0.00  0.00    +0.000 A 
ATOM     26  C   UNL     1      -4.170  11.553  17.571  0.00  0.00    +0.000 A 
BRANCH  26  27
ATOM     27  C   UNL     1      -5.255  12.338  18.272  0.00  0.00    +0.000 C 
BRANCH  27  28
ATOM     28  C   UNL     1      -6.110  11.584  19.260  0.00  0.00    +0.000 A 
ATOM     29  C   UNL     1      -6.643  12.222  20.395  0.00  0.00    +0.000 A 
ATOM     30  C   UNL     1      -7.534  11.552  21.239  0.00  0.00    +0.000 A 
ATOM     31  C   UNL     1      -7.897  10.236  20.965  0.00  0.00    +0.000 A 
ATOM     32  C   UNL     1      -7.356   9.583  19.860  0.00  0.00    +0.000 A 
ATOM     33  C   UNL     1      -6.466  10.250  19.014  0.00  0.00    +0.000 A 
ENDBRANCH  27  28
ENDBRANCH  26  27
ENDBRANCH  19  20
ENDBRANCH   2  19
TORSDOF 7
ENDMDL
MODEL 3
REMARK VINA RESULT:      -8.2      1.602      2.095
REMARK  Name = 
REMARK  7 active torsions:
REMARK  status: ('A' for Active; 'I' for Inactive)
REMARK    1  A    between atoms: C_2  and  O_3
REMARK    2  A    between atoms: C_2  and  C_18
REMARK    3  A    between atoms: O_3  and  C_4
REMARK    4  A    between atoms: C_10  and  C_11
REMARK    5  A    between atoms: C_11  and  C_12
REMARK    6  A    between atoms: C_23  and  C_24
REMARK    7  A    between atoms: C_27  and  C_28
REMARK                            x       y       z     vdW  Elec       q    Type
REMARK                         _______ _______ _______ _____ _____    ______ ____
ROOT
ATOM      1  O   UNL     1       1.645   4.367  17.098  0.00  0.00    +0.000 OA
ATOM      2  C   UNL     1       2.598   3.965  17.747  0.00  0.00    +0.000 C 
ENDROOT
BRANCH   2   3
ATOM      3  C   UNL     1       2.590   3.749  19.230  0.00  0.00    +0.000 A 
ATOM      4  C   UNL     1       2.739   2.416  19.678  0.00  0.00    +0.000 A 
ATOM      5  C   UNL     1       2.543   2.080  21.013  0.00  0.00    +0.000 A 
ATOM      6  C   UNL     1       2.199   3.067  21.921  0.00  0.00    +0.000 A 
ATOM      7  C   UNL     1       2.086   4.396  21.500  0.00  0.00    +0.000 A 
ATOM      8  C   UNL     1       2.281   4.784  20.153  0.00  0.00    +0.000 A 
BRANCH   8   9
ATOM      9  C   UNL     1       2.149   6.220  19.787  0.00  0.00    +0.000 A 
ATOM     10  C   UNL     1       2.723   6.742  18.618  0.00  0.00    +0.000 A 
ATOM     11  C   UNL     1       2.501   8.061  18.211  0.00  0.00    +0.000 A 
ATOM     12  C   UNL     1       1.755   8.935  19.005  0.00  0.00    +0.000 A 
ATOM     13  C   UNL     1       1.258   8.466  20.227  0.00  0.00    +0.000 A 
ATOM     14  C   UNL     1       1.441   7.129  20.603  0.00  0.00    +0.000 A 
BRANCH  12  15
ATOM     15  C   UNL     1       1.478  10.347  18.557  0.00  0.00    +0.000 C 
ATOM     16  F   UNL     1       0.302  10.488  17.884  0.00  0.00    +0.000 F 
ATOM     17  F   UNL     1       1.416  11.225  19.599  0.00  0.00    +0.000 F 
ATOM     18  F   UNL     1       2.442  10.830  17.725  0.00  0.00    +0.000 F 
ENDBRANCH  12  15
ENDBRANCH   8   9
ENDBRANCH   2   3
BRANCH   2  19
ATOM     19  O   UNL     1       3.818   3.564  17.220  0.00  0.00    +0.000 OA
BRANCH  19  20
ATOM     20  C   UNL     1       4.959   4.358  17.486  0.00  0.00    +0.000 A 
ATOM     21  C   UNL     1       5.605   4.307  18.732  0.00  0.00    +0.000 A 
ATOM     22  C   UNL     1       6.613   5.215  19.039  0.00  0.00    +0.000 A 
ATOM     23  C   UNL     1       6.961   6.193  18.115  0.00  0.00    +0.000 A 
ATOM     24 CL   UNL     1       8.162   7.355  18.521  0.00  0.00    +0.000 Cl
ATOM     25  C   UNL     1       6.341   6.238  16.865  0.00  0.00    +0.000 A 
ATOM     26  C   UNL     1       5.341   5.306  16.519  0.00  0.00    +0.000 A 
BRANCH  26  27
ATOM     27  C   UNL     1       4.776   5.329  15.118  0.00  0.00    +0.000 C 
BRANCH  27  28
ATOM     28  C   UNL     1       5.582   4.633  14.049  0.00  0.00    +0.000 A 
ATOM     29  C   UNL     1       4.993   3.673  13.206  0.00  0.00    +0.000 A 
ATOM     30  C   UNL     1       5.711   3.124  12.138  0.00  0.00    +0.000 A 
ATOM     31  C   UNL     1       7.025   3.520  11.905  0.00  0.00    +0.000 A 
ATOM     32  C   UNL     1       7.629   4.450  12.748  0.00  0.00    +0.000 A 
ATOM     33  C   UNL     1       6.915   5.001  13.815  0.00  0.00    +0.000 A 
ENDBRANCH  27  28
ENDBRANCH  26  27
ENDBRANCH  19  20
ENDBRANCH   2  19
TORSDOF 7
ENDMDL
MODEL 4
REMARK VINA RESULT:      -8.0      3.421      6.797
REMARK  Name = 
REMARK  7 active torsions:
REMARK  status: ('A' for Active; 'I' for Inactive)
REMARK    1  A    between atoms: C_2  and  O_3
REMARK    2  A    between atoms: C_2  and  C_18
REMARK    3  A    between atoms: O_3  and  C_4
REMARK    4  A    between atoms: C_10  and  C_11
REMARK    5  A    between atoms: C_11  and  C_12
REMARK    6  A    between atoms: C_23  and  C_24
REMARK    7  A    between atoms: C_27  and  C_28
REMARK                            x       y       z     vdW  Elec       q    Type
REMARK                         _______ _______ _______ _____ _____    ______ ____
ROOT
ATOM      1  O   UNL     1       6.924   4.851  20.077  0.00  0.00    +0.000 OA
ATOM      2  C   UNL     1       6.076   5.272  19.307  0.00  0.00    +0.000 C 
ENDROOT
BRANCH   2   3
ATOM      3  C   UNL     1       6.175   5.210  17.813  0.00  0.00    +0.000 A 
ATOM      4  C   UNL     1       5.638   4.062  17.188  0.00  0.00    +0.000 A 
ATOM      5  C   UNL     1       5.856   3.809  15.838  0.00  0.00    +0.000 A 
ATOM      6  C   UNL     1       6.609   4.700  15.090  0.00  0.00    +0.000 A 
ATOM      7  C   UNL     1       7.113   5.861  15.686  0.00  0.00    +0.000 A 
ATOM      8  C   UNL     1       6.912   6.160  17.055  0.00  0.00    +0.000 A 
BRANCH   8   9
ATOM      9  C   UNL     1       7.477   7.419  17.612  0.00  0.00    +0.000 A 
ATOM     10  C   UNL     1       8.408   7.413  18.661  0.00  0.00    +0.000 A 
ATOM     11  C   UNL     1       9.028   8.585  19.106  0.00  0.00    +0.000 A 
ATOM     12  C   UNL     1       8.678   9.824  18.566  0.00  0.00    +0.000 A 
ATOM     13  C   UNL     1       7.676   9.867  17.589  0.00  0.00    +0.000 A 
ATOM     14  C   UNL     1       7.096   8.684  17.112  0.00  0.00    +0.000 A 
BRANCH  12  15
ATOM     15  C   UNL     1       9.366  11.088  19.012  0.00  0.00    +0.000 C 
ATOM     16  F   UNL     1       9.031  11.480  20.273  0.00  0.00    +0.000 F 
ATOM     17  F   UNL     1      10.725  10.974  19.009  0.00  0.00    +0.000 F 
ATOM     18  F   UNL     1       9.083  12.149  18.205  0.00  0.00    +0.000 F 
ENDBRANCH  12  15
ENDBRANCH   8   9
ENDBRANCH   2   3
BRANCH   2  19
ATOM     19  O   UNL     1       4.846   5.799  19.676  0.00  0.00    +0.000 OA
BRANCH  19  20
ATOM     20  C   UNL     1       3.698   4.980  19.550  0.00  0.00    +0.000 A 
ATOM     21  C   UNL     1       3.579   3.779  20.268  0.00  0.00    +0.000 A 
ATOM     22  C   UNL     1       2.532   2.901  20.004  0.00  0.00    +0.000 A 
ATOM     23  C   UNL     1       1.618   3.206  19.004  0.00  0.00    +0.000 A 
ATOM     24 CL   UNL     1       0.362   2.091  18.635  0.00  0.00    +0.000 Cl
ATOM     25  C   UNL     1       1.713   4.408  18.300  0.00  0.00    +0.000 A 
ATOM     26  C   UNL     1       2.745   5.328  18.574  0.00  0.00    +0.000 A 
BRANCH  26  27
ATOM     27  C   UNL     1       2.745   6.659  17.860  0.00  0.00    +0.000 C 
BRANCH  27  28
ATOM     28  C   UNL     1       2.131   7.825  18.596  0.00  0.00    +0.000 A 
ATOM     29  C   UNL     1       1.744   8.993  17.913  0.00  0.00    +0.000 A 
ATOM     30  C   UNL     1       1.064  10.017  18.578  0.00  0.00    +0.000 A 
ATOM     31  C   UNL     1       0.770   9.893  19.934  0.00  0.00    +0.000 A 
ATOM     32  C   UNL     1       1.171   8.754  20.629  0.00  0.00    +0.000 A 
ATOM     33  C   UNL     1       1.851   7.728  19.967  0.00  0.00    +0.000 A 
ENDBRANCH  27  28
ENDBRANCH  26  27
ENDBRANCH  19  20
ENDBRANCH   2  19
TORSDOF 7
ENDMDL
MODEL 5
REMARK VINA RESULT:      -8.0      1.296      1.906
REMARK  Name = 
REMARK  7 active torsions:
REMARK  status: ('A' for Active; 'I' for Inactive)
REMARK    1  A    between atoms: C_2  and  O_3
REMARK    2  A    between atoms: C_2  and  C_18
REMARK    3  A    between atoms: O_3  and  C_4
REMARK    4  A    between atoms: C_10  and  C_11
REMARK    5  A    between atoms: C_11  and  C_12
REMARK    6  A    between atoms: C_23  and  C_24
REMARK    7  A    between atoms: C_27  and  C_28
REMARK                            x       y       z     vdW  Elec       q    Type
REMARK                         _______ _______ _______ _____ _____    ______ ____
ROOT
ATOM      1  O   UNL     1       2.950   4.369  16.968  0.00  0.00    +0.000 OA
ATOM      2  C   UNL     1       3.770   4.048  17.813  0.00  0.00    +0.000 C 
ENDROOT
BRANCH   2   3
ATOM      3  C   UNL     1       3.455   3.794  19.256  0.00  0.00    +0.000 A 
ATOM      4  C   UNL     1       3.795   2.521  19.766  0.00  0.00    +0.000 A 
ATOM      5  C   UNL     1       3.367   2.112  21.023  0.00  0.00    +0.000 A 
ATOM      6  C   UNL     1       2.595   2.967  21.793  0.00  0.00    +0.000 A 
ATOM      7  C   UNL     1       2.283   4.245  21.318  0.00  0.00    +0.000 A 
ATOM      8  C   UNL     1       2.702   4.705  20.046  0.00  0.00    +0.000 A 
BRANCH   8   9
ATOM      9  C   UNL     1       2.334   6.081  19.616  0.00  0.00    +0.000 A 
ATOM     10  C   UNL     1       1.635   6.958  20.458  0.00  0.00    +0.000 A 
ATOM     11  C   UNL     1       1.393   8.289  20.102  0.00  0.00    +0.000 A 
ATOM     12  C   UNL     1       1.775   8.771  18.848  0.00  0.00    +0.000 A 
ATOM     13  C   UNL     1       2.382   7.885  17.950  0.00  0.00    +0.000 A 
ATOM     14  C   UNL     1       2.668   6.568  18.333  0.00  0.00    +0.000 A 
BRANCH  12  15
ATOM     15  C   UNL     1       1.552  10.212  18.469  0.00  0.00    +0.000 C 
ATOM     16  F   UNL     1       1.517  11.060  19.536  0.00  0.00    +0.000 F 
ATOM     17  F   UNL     1       2.525  10.694  17.645  0.00  0.00    +0.000 F 
ATOM     18  F   UNL     1       0.378  10.402  17.805  0.00  0.00    +0.000 F 
ENDBRANCH  12  15
ENDBRANCH   8   9
ENDBRANCH   2   3
BRANCH   2  19
ATOM     19  O   UNL     1       5.111   3.782  17.570  0.00  0.00    +0.000 OA
BRANCH  19  20
ATOM     20  C   UNL     1       6.044   4.835  17.723  0.00  0.00    +0.000 A 
ATOM     21  C   UNL     1       6.867   4.918  18.858  0.00  0.00    +0.000 A 
ATOM     22  C   UNL     1       7.650   6.046  19.079  0.00  0.00    +0.000 A 
ATOM     23  C   UNL     1       7.594   7.106  18.183  0.00  0.00    +0.000 A 
ATOM     24 CL   UNL     1       8.513   8.527  18.490  0.00  0.00    +0.000 Cl
ATOM     25  C   UNL     1       6.797   7.025  17.040  0.00  0.00    +0.000 A 
ATOM     26  C   UNL     1       6.021   5.877  16.778  0.00  0.00    +0.000 A 
BRANCH  26  27
ATOM     27  C   UNL     1       5.258   5.793  15.477  0.00  0.00    +0.000 C 
BRANCH  27  28
ATOM     28  C   UNL     1       5.905   5.013  14.359  0.00  0.00    +0.000 A 
ATOM     29  C   UNL     1       5.193   4.022  13.658  0.00  0.00    +0.000 A 
ATOM     30  C   UNL     1       5.756   3.391  12.544  0.00  0.00    +0.000 A 
ATOM     31  C   UNL     1       7.037   3.735  12.122  0.00  0.00    +0.000 A 
ATOM     32  C   UNL     1       7.764   4.696  12.822  0.00  0.00    +0.000 A 
ATOM     33  C   UNL     1       7.204   5.328  13.935  0.00  0.00    +0.000 A 
ENDBRANCH  27  28
ENDBRANCH  26  27
ENDBRANCH  19  20
ENDBRANCH   2  19
TORSDOF 7
ENDMDL
MODEL 6
REMARK VINA RESULT:      -8.0      1.398      2.030
REMARK  Name = 
REMARK  7 active torsions:
REMARK  status: ('A' for Active; 'I' for Inactive)
REMARK    1  A    between atoms: C_2  and  O_3
REMARK    2  A    between atoms: C_2  and  C_18
REMARK    3  A    between atoms: O_3  and  C_4
REMARK    4  A    between atoms: C_10  and  C_11
REMARK    5  A    between atoms: C_11  and  C_12
REMARK    6  A    between atoms: C_23  and  C_24
REMARK    7  A    between atoms: C_27  and  C_28
REMARK                            x       y       z     vdW  Elec       q    Type
REMARK                         _______ _______ _______ _____ _____    ______ ____
ROOT
ATOM      1  O   UNL     1       2.541   4.350  16.987  0.00  0.00    +0.000 OA
ATOM      2  C   UNL     1       3.417   3.992  17.759  0.00  0.00    +0.000 C 
ENDROOT
BRANCH   2   3
ATOM      3  C   UNL     1       3.215   3.744  19.223  0.00  0.00    +0.000 A 
ATOM      4  C   UNL     1       3.451   2.428  19.682  0.00  0.00    +0.000 A 
ATOM      5  C   UNL     1       3.101   2.042  20.971  0.00  0.00    +0.000 A 
ATOM      6  C   UNL     1       2.514   2.964  21.822  0.00  0.00    +0.000 A 
ATOM      7  C   UNL     1       2.311   4.280  21.395  0.00  0.00    +0.000 A 
ATOM      8  C   UNL     1       2.655   4.717  20.094  0.00  0.00    +0.000 A 
BRANCH   8   9
ATOM      9  C   UNL     1       2.412   6.136  19.718  0.00  0.00    +0.000 A 
ATOM     10  C   UNL     1       2.940   6.692  18.543  0.00  0.00    +0.000 A 
ATOM     11  C   UNL     1       2.616   7.987  18.127  0.00  0.00    +0.000 A 
ATOM     12  C   UNL     1       1.809   8.807  18.919  0.00  0.00    +0.000 A 
ATOM     13  C   UNL     1       1.354   8.311  20.147  0.00  0.00    +0.000 A 
ATOM     14  C   UNL     1       1.640   6.994  20.531  0.00  0.00    +0.000 A 
BRANCH  12  15
ATOM     15  C   UNL     1       1.423  10.191  18.463  0.00  0.00    +0.000 C 
ATOM     16  F   UNL     1       1.283  11.085  19.482  0.00  0.00    +0.000 F 
ATOM     17  F   UNL     1       2.339  10.738  17.615  0.00  0.00    +0.000 F 
ATOM     18  F   UNL     1       0.240  10.208  17.790  0.00  0.00    +0.000 F 
ENDBRANCH  12  15
ENDBRANCH   8   9
ENDBRANCH   2   3
BRANCH   2  19
ATOM     19  O   UNL     1       4.721   3.675  17.403  0.00  0.00    +0.000 OA
BRANCH  19  20
ATOM     20  C   UNL     1       5.729   4.649  17.604  0.00  0.00    +0.000 A 
ATOM     21  C   UNL     1       6.520   4.646  18.764  0.00  0.00    +0.000 A 
ATOM     22  C   UNL     1       7.383   5.705  19.031  0.00  0.00    +0.000 A 
ATOM     23  C   UNL     1       7.437   6.782  18.156  0.00  0.00    +0.000 A 
ATOM     24 CL   UNL     1       8.455   8.119  18.519  0.00  0.00    +0.000 Cl
ATOM     25  C   UNL     1       6.671   6.785  16.988  0.00  0.00    +0.000 A 
ATOM     26  C   UNL     1       5.817   5.706  16.681  0.00  0.00    +0.000 A 
BRANCH  26  27
ATOM     27  C   UNL     1       5.090   5.707  15.356  0.00  0.00    +0.000 C 
BRANCH  27  28
ATOM     28  C   UNL     1       5.794   5.051  14.194  0.00  0.00    +0.000 A 
ATOM     29  C   UNL     1       7.111   5.406  13.848  0.00  0.00    +0.000 A 
ATOM     30  C   UNL     1       7.802   4.709  12.852  0.00  0.00    +0.000 A 
ATOM     31  C   UNL     1       7.184   3.655  12.184  0.00  0.00    +0.000 A 
ATOM     32  C   UNL     1       5.871   3.310  12.497  0.00  0.00    +0.000 A 
ATOM     33  C   UNL     1       5.179   4.004  13.492  0.00  0.00    +0.000 A 
ENDBRANCH  27  28
ENDBRANCH  26  27
ENDBRANCH  19  20
ENDBRANCH   2  19
TORSDOF 7
ENDMDL
MODEL 7
REMARK VINA RESULT:      -7.9      0.679      1.079
REMARK  Name = 
REMARK  7 active torsions:
REMARK  status: ('A' for Active; 'I' for Inactive)
REMARK    1  A    between atoms: C_2  and  O_3
REMARK    2  A    between atoms: C_2  and  C_18
REMARK    3  A    between atoms: O_3  and  C_4
REMARK    4  A    between atoms: C_10  and  C_11
REMARK    5  A    between atoms: C_11  and  C_12
REMARK    6  A    between atoms: C_23  and  C_24
REMARK    7  A    between atoms: C_27  and  C_28
REMARK                            x       y       z     vdW  Elec       q    Type
REMARK                         _______ _______ _______ _____ _____    ______ ____
ROOT
ATOM      1  O   UNL     1       5.195   5.260  20.333  0.00  0.00    +0.000 OA
ATOM      2  C   UNL     1       5.170   4.699  19.249  0.00  0.00    +0.000 C 
ENDROOT
BRANCH   2   3
ATOM      3  C   UNL     1       3.995   3.941  18.708  0.00  0.00    +0.000 A 
ATOM      4  C   UNL     1       4.243   2.626  18.255  0.00  0.00    +0.000 A 
ATOM      5  C   UNL     1       3.277   1.913  17.553  0.00  0.00    +0.000 A 
ATOM      6  C   UNL     1       2.048   2.499  17.298  0.00  0.00    +0.000 A 
ATOM      7  C   UNL     1       1.775   3.785  17.775  0.00  0.00    +0.000 A 
ATOM      8  C   UNL     1       2.726   4.545  18.496  0.00  0.00    +0.000 A 
BRANCH   8   9
ATOM      9  C   UNL     1       2.356   5.905  18.975  0.00  0.00    +0.000 A 
ATOM     10  C   UNL     1       2.505   7.041  18.167  0.00  0.00    +0.000 A 
ATOM     11  C   UNL     1       2.049   8.300  18.569  0.00  0.00    +0.000 A 
ATOM     12  C   UNL     1       1.492   8.483  19.837  0.00  0.00    +0.000 A 
ATOM     13  C   UNL     1       1.426   7.384  20.702  0.00  0.00    +0.000 A 
ATOM     14  C   UNL     1       1.838   6.115  20.272  0.00  0.00    +0.000 A 
BRANCH  12  15
ATOM     15  C   UNL     1       0.962   9.826  20.267  0.00  0.00    +0.000 C 
ATOM     16  F   UNL     1      -0.399   9.904  20.269  0.00  0.00    +0.000 F 
ATOM     17  F   UNL     1       1.354  10.166  21.528  0.00  0.00    +0.000 F 
ATOM     18  F   UNL     1       1.391  10.839  19.462  0.00  0.00    +0.000 F 
ENDBRANCH  12  15
ENDBRANCH   8   9
ENDBRANCH   2   3
BRANCH   2  19
ATOM     19  O   UNL     1       6.183   4.735  18.301  0.00  0.00    +0.000 OA
BRANCH  19  20
ATOM     20  C   UNL     1       6.899   5.944  18.127  0.00  0.00    +0.000 A 
ATOM     21  C   UNL     1       7.990   6.267  18.949  0.00  0.00    +0.000 A 
ATOM     22  C   UNL     1       8.572   7.529  18.883  0.00  0.00    +0.000 A 
ATOM     23  C   UNL     1       8.049   8.481  18.018  0.00  0.00    +0.000 A 
ATOM     24 CL   UNL     1       8.727  10.061  17.984  0.00  0.00    +0.000 Cl
ATOM     25  C   UNL     1       6.978   8.163  17.180  0.00  0.00    +0.000 A 
ATOM     26  C   UNL     1       6.396   6.880  17.205  0.00  0.00    +0.000 A 
BRANCH  26  27
ATOM     27  C   UNL     1       5.311   6.551  16.206  0.00  0.00    +0.000 C 
BRANCH  27  28
ATOM     28  C   UNL     1       5.668   5.578  15.110  0.00  0.00    +0.000 A 
ATOM     29  C   UNL     1       6.902   5.659  14.440  0.00  0.00    +0.000 A 
ATOM     30  C   UNL     1       7.279   4.681  13.514  0.00  0.00    +0.000 A 
ATOM     31  C   UNL     1       6.425   3.615  13.240  0.00  0.00    +0.000 A 
ATOM     32  C   UNL     1       5.187   3.537  13.876  0.00  0.00    +0.000 A 
ATOM     33  C   UNL     1       4.809   4.513  14.802  0.00  0.00    +0.000 A 
ENDBRANCH  27  28
ENDBRANCH  26  27
ENDBRANCH  19  20
ENDBRANCH   2  19
TORSDOF 7
ENDMDL
MODEL 8
REMARK VINA RESULT:      -7.9      4.002      7.181
REMARK  Name = 
REMARK  7 active torsions:
REMARK  status: ('A' for Active; 'I' for Inactive)
REMARK    1  A    between atoms: C_2  and  O_3
REMARK    2  A    between atoms: C_2  and  C_18
REMARK    3  A    between atoms: O_3  and  C_4
REMARK    4  A    between atoms: C_10  and  C_11
REMARK    5  A    between atoms: C_11  and  C_12
REMARK    6  A    between atoms: C_23  and  C_24
REMARK    7  A    between atoms: C_27  and  C_28
REMARK                            x       y       z     vdW  Elec       q    Type
REMARK                         _______ _______ _______ _____ _____    ______ ____
ROOT
ATOM      1  O   UNL     1       4.626   7.391  16.434  0.00  0.00    +0.000 OA
ATOM      2  C   UNL     1       4.569   6.498  17.264  0.00  0.00    +0.000 C 
ENDROOT
BRANCH   2   3
ATOM      3  C   UNL     1       5.759   5.803  17.853  0.00  0.00    +0.000 A 
ATOM      4  C   UNL     1       6.078   6.118  19.194  0.00  0.00    +0.000 A 
ATOM      5  C   UNL     1       7.269   5.691  19.769  0.00  0.00    +0.000 A 
ATOM      6  C   UNL     1       8.159   4.941  19.018  0.00  0.00    +0.000 A 
ATOM      7  C   UNL     1       7.839   4.588  17.703  0.00  0.00    +0.000 A 
ATOM      8  C   UNL     1       6.637   4.998  17.078  0.00  0.00    +0.000 A 
BRANCH   8   9
ATOM      9  C   UNL     1       6.368   4.576  15.677  0.00  0.00    +0.000 A 
ATOM     10  C   UNL     1       7.263   4.858  14.634  0.00  0.00    +0.000 A 
ATOM     11  C   UNL     1       7.071   4.362  13.341  0.00  0.00    +0.000 A 
ATOM     12  C   UNL     1       5.928   3.625  13.024  0.00  0.00    +0.000 A 
ATOM     13  C   UNL     1       4.970   3.418  14.023  0.00  0.00    +0.000 A 
ATOM     14  C   UNL     1       5.193   3.874  15.329  0.00  0.00    +0.000 A 
BRANCH  12  15
ATOM     15  C   UNL     1       5.730   3.053  11.644  0.00  0.00    +0.000 C 
ATOM     16  F   UNL     1       4.615   3.517  11.013  0.00  0.00    +0.000 F 
ATOM     17  F   UNL     1       6.770   3.330  10.807  0.00  0.00    +0.000 F 
ATOM     18  F   UNL     1       5.614   1.696  11.652  0.00  0.00    +0.000 F 
ENDBRANCH  12  15
ENDBRANCH   8   9
ENDBRANCH   2   3
BRANCH   2  19
ATOM     19  O   UNL     1       3.407   6.030  17.862  0.00  0.00    +0.000 OA
BRANCH  19  20
ATOM     20  C   UNL     1       2.563   6.963  18.513  0.00  0.00    +0.000 A 
ATOM     21  C   UNL     1       2.103   8.111  17.849  0.00  0.00    +0.000 A 
ATOM     22  C   UNL     1       1.422   9.103  18.548  0.00  0.00    +0.000 A 
ATOM     23  C   UNL     1       1.224   8.964  19.916  0.00  0.00    +0.000 A 
ATOM     24 CL   UNL     1       0.440  10.220  20.792  0.00  0.00    +0.000 Cl
ATOM     25  C   UNL     1       1.658   7.816  20.582  0.00  0.00    +0.000 A 
ATOM     26  C   UNL     1       2.318   6.783  19.886  0.00  0.00    +0.000 A 
BRANCH  26  27
ATOM     27  C   UNL     1       2.673   5.515  20.628  0.00  0.00    +0.000 C 
BRANCH  27  28
ATOM     28  C   UNL     1       2.387   4.212  19.923  0.00  0.00    +0.000 A 
ATOM     29  C   UNL     1       1.069   3.830  19.610  0.00  0.00    +0.000 A 
ATOM     30  C   UNL     1       0.819   2.685  18.848  0.00  0.00    +0.000 A 
ATOM     31  C   UNL     1       1.880   1.903  18.397  0.00  0.00    +0.000 A 
ATOM     32  C   UNL     1       3.188   2.254  18.722  0.00  0.00    +0.000 A 
ATOM     33  C   UNL     1       3.441   3.399  19.483  0.00  0.00    +0.000 A 
ENDBRANCH  27  28
ENDBRANCH  26  27
ENDBRANCH  19  20
ENDBRANCH   2  19
TORSDOF 7
ENDMDL
MODEL 9
REMARK VINA RESULT:      -7.8      0.700      1.282
REMARK  Name = 
REMARK  7 active torsions:
REMARK  status: ('A' for Active; 'I' for Inactive)
REMARK    1  A    between atoms: C_2  and  O_3
REMARK    2  A    between atoms: C_2  and  C_18
REMARK    3  A    between atoms: O_3  and  C_4
REMARK    4  A    between atoms: C_10  and  C_11
REMARK    5  A    between atoms: C_11  and  C_12
REMARK    6  A    between atoms: C_23  and  C_24
REMARK    7  A    between atoms: C_27  and  C_28
REMARK                            x       y       z     vdW  Elec       q    Type
REMARK                         _______ _______ _______ _____ _____    ______ ____
ROOT
ATOM      1  O   UNL     1       5.137   5.186  20.358  0.00  0.00    +0.000 OA
ATOM      2  C   UNL     1       5.190   4.542  19.322  0.00  0.00    +0.000 C 
ENDROOT
BRANCH   2   3
ATOM      3  C   UNL     1       4.076   3.696  18.785  0.00  0.00    +0.000 A 
ATOM      4  C   UNL     1       4.432   2.427  18.274  0.00  0.00    +0.000 A 
ATOM      5  C   UNL     1       3.516   1.652  17.572  0.00  0.00    +0.000 A 
ATOM      6  C   UNL     1       2.231   2.127  17.374  0.00  0.00    +0.000 A 
ATOM      7  C   UNL     1       1.852   3.363  17.908  0.00  0.00    +0.000 A 
ATOM      8  C   UNL     1       2.750   4.184  18.632  0.00  0.00    +0.000 A 
BRANCH   8   9
ATOM      9  C   UNL     1       2.268   5.483  19.174  0.00  0.00    +0.000 A 
ATOM     10  C   UNL     1       1.627   5.574  20.418  0.00  0.00    +0.000 A 
ATOM     11  C   UNL     1       1.279   6.806  20.982  0.00  0.00    +0.000 A 
ATOM     12  C   UNL     1       1.493   7.995  20.281  0.00  0.00    +0.000 A 
ATOM     13  C   UNL     1       2.039   7.922  18.994  0.00  0.00    +0.000 A 
ATOM     14  C   UNL     1       2.431   6.688  18.457  0.00  0.00    +0.000 A 
BRANCH  12  15
ATOM     15  C   UNL     1       1.158   9.329  20.895  0.00  0.00    +0.000 C 
ATOM     16  F   UNL     1       1.506  10.394  20.118  0.00  0.00    +0.000 F 
ATOM     17  F   UNL     1      -0.174   9.473  21.145  0.00  0.00    +0.000 F 
ATOM     18  F   UNL     1       1.781   9.525  22.091  0.00  0.00    +0.000 F 
ENDBRANCH  12  15
ENDBRANCH   8   9
ENDBRANCH   2   3
BRANCH   2  19
ATOM     19  O   UNL     1       6.251   4.546  18.428  0.00  0.00    +0.000 OA
BRANCH  19  20
ATOM     20  C   UNL     1       6.922   5.769  18.186  0.00  0.00    +0.000 A 
ATOM     21  C   UNL     1       7.987   6.187  19.001  0.00  0.00    +0.000 A 
ATOM     22  C   UNL     1       8.520   7.465  18.862  0.00  0.00    +0.000 A 
ATOM     23  C   UNL     1       7.975   8.337  17.929  0.00  0.00    +0.000 A 
ATOM     24 CL   UNL     1       8.592   9.938  17.803  0.00  0.00    +0.000 Cl
ATOM     25  C   UNL     1       6.931   7.924  17.098  0.00  0.00    +0.000 A 
ATOM     26  C   UNL     1       6.399   6.623  17.198  0.00  0.00    +0.000 A 
BRANCH  26  27
ATOM     27  C   UNL     1       5.344   6.189  16.207  0.00  0.00    +0.000 C 
BRANCH  27  28
ATOM     28  C   UNL     1       5.800   5.302  15.074  0.00  0.00    +0.000 A 
ATOM     29  C   UNL     1       4.933   4.353  14.501  0.00  0.00    +0.000 A 
ATOM     30  C   UNL     1       5.319   3.623  13.373  0.00  0.00    +0.000 A 
ATOM     31  C   UNL     1       6.576   3.824  12.809  0.00  0.00    +0.000 A 
ATOM     32  C   UNL     1       7.455   4.740  13.382  0.00  0.00    +0.000 A 
ATOM     33  C   UNL     1       7.072   5.472  14.510  0.00  0.00    +0.000 A 
ENDBRANCH  27  28
ENDBRANCH  26  27
ENDBRANCH  19  20
ENDBRANCH   2  19
TORSDOF 7
ENDMDL
