MODEL 1
REMARK VINA RESULT:      -8.7      0.000      0.000
REMARK  Name = 
REMARK  11 active torsions:
REMARK  status: ('A' for Active; 'I' for Inactive)
REMARK    1  A    between atoms: C_1  and  C_2
REMARK    2  A    between atoms: C_2  and  C_3
REMARK    3  A    between atoms: C_2  and  N_24
REMARK    4  A    between atoms: C_3  and  O_4
REMARK    5  A    between atoms: O_4  and  C_5
REMARK    6  A    between atoms: C_5  and  C_7
REMARK    7  A    between atoms: C_7  and  C_8
REMARK    8  A    between atoms: C_7  and  N_15
REMARK    9  A    between atoms: C_8  and  C_9
REMARK   10  A    between atoms: C_16  and  C_18
REMARK   11  A    between atoms: C_25  and  C_27
REMARK                            x       y       z     vdW  Elec       q    Type
REMARK                         _______ _______ _______ _____ _____    ______ ____
ROOT
ATOM      1  C   UNL     1       2.745   6.768  18.557  0.00  0.00    +0.000 C 
ENDROOT
BRANCH   1   2
ATOM      2  N   UNL     1       2.055   8.050  18.402  0.00  0.00    +0.000 N 
ATOM      3  C   UNL     1       1.476   8.697  19.468  0.00  0.00    +0.000 C 
ATOM      4  O   UNL     1       1.491   8.255  20.611  0.00  0.00    +0.000 OA
ATOM      5  H   UNL     1       2.208   8.551  17.534  0.00  0.00    +0.000 HD
BRANCH   3   6
ATOM      6  C   UNL     1       0.843  10.008  19.174  0.00  0.00    +0.000 A 
ATOM      7  C   UNL     1      -0.547  10.176  19.199  0.00  0.00    +0.000 A 
ATOM      8  C   UNL     1      -1.103  11.416  18.879  0.00  0.00    +0.000 A 
ATOM      9  C   UNL     1      -0.274  12.489  18.550  0.00  0.00    +0.000 A 
ATOM     10  C   UNL     1       1.112  12.332  18.559  0.00  0.00    +0.000 A 
ATOM     11  C   UNL     1       1.672  11.095  18.878  0.00  0.00    +0.000 A 
ENDBRANCH   3   6
ENDBRANCH   1   2
BRANCH   1  12
ATOM     12  C   UNL     1       4.122   6.751  17.877  0.00  0.00    +0.000 C 
ATOM     13  O   UNL     1       4.310   6.940  16.680  0.00  0.00    +0.000 OA
BRANCH  12  14
ATOM     14  O   UNL     1       5.079   6.292  18.740  0.00  0.00    +0.000 OA
BRANCH  14  15
ATOM     15  C   UNL     1       5.289   4.867  18.704  0.00  0.00    +0.000 C 
BRANCH  15  17
ATOM     16  C   UNL     1       7.706   5.653  18.525  0.00  0.00    +0.000 C 
ATOM     17  C   UNL     1       6.704   4.555  18.161  0.00  0.00    +0.000 C 
BRANCH  17  18
ATOM     18  N   UNL     1       6.720   4.256  16.735  0.00  0.00    +0.000 N 
ATOM     19  C   UNL     1       7.036   5.200  15.782  0.00  0.00    +0.000 C 
ATOM     20  O   UNL     1       7.333   6.357  16.054  0.00  0.00    +0.000 OA
ATOM     21  H   UNL     1       6.334   3.368  16.445  0.00  0.00    +0.000 HD
BRANCH  19  22
ATOM     22  C   UNL     1       6.949   4.773  14.360  0.00  0.00    +0.000 A 
ATOM     23  C   UNL     1       5.962   3.841  14.022  0.00  0.00    +0.000 A 
ATOM     24  C   UNL     1       5.858   3.371  12.712  0.00  0.00    +0.000 A 
ATOM     25  C   UNL     1       6.726   3.851  11.732  0.00  0.00    +0.000 A 
ATOM     26  C   UNL     1       7.687   4.807  12.053  0.00  0.00    +0.000 A 
ATOM     27  C   UNL     1       7.799   5.276  13.365  0.00  0.00    +0.000 A 
ENDBRANCH  19  22
ENDBRANCH  17  18
ENDBRANCH  15  17
ENDBRANCH  14  15
ENDBRANCH  12  14
ENDBRANCH   1  12
BRANCH   1  28
ATOM     28  C   UNL     1       1.903   5.547  18.153  0.00  0.00    +0.000 C 
BRANCH  28  29
ATOM     29  C   UNL     1       1.754   4.515  19.246  0.00  0.00    +0.000 A 
ATOM     30  C   UNL     1       2.165   4.798  20.553  0.00  0.00    +0.000 A 
ATOM     31  C   UNL     1       2.061   3.828  21.550  0.00  0.00    +0.000 A 
ATOM     32  C   UNL     1       1.547   2.568  21.247  0.00  0.00    +0.000 A 
ATOM     33  C   UNL     1       1.124   2.280  19.952  0.00  0.00    +0.000 A 
ATOM     34  C   UNL     1       1.221   3.251  18.957  0.00  0.00    +0.000 A 
ENDBRANCH  28  29
ENDBRANCH   1  28
TORSDOF 10
ENDMDL
MODEL 2
REMARK VINA RESULT:      -8.6      0.838      1.408
REMARK  Name = 
REMARK  11 active torsions:
REMARK  status: ('A' for Active; 'I' for Inactive)
REMARK    1  A    between atoms: C_1  and  C_2
REMARK    2  A    between atoms: C_2  and  C_3
REMARK    3  A    between atoms: C_2  and  N_24
REMARK    4  A    between atoms: C_3  and  O_4
REMARK    5  A    between atoms: O_4  and  C_5
REMARK    6  A    between atoms: C_5  and  C_7
REMARK    7  A    between atoms: C_7  and  C_8
REMARK    8  A    between atoms: C_7  and  N_15
REMARK    9  A    between atoms: C_8  and  C_9
REMARK   10  A    between atoms: C_16  and  C_18
REMARK   11  A    between atoms: C_25  and  C_27
REMARK                            x       y       z     vdW  Elec       q    Type
REMARK                         _______ _______ _______ _____ _____    ______ ____
ROOT
ATOM      1  C   UNL     1       2.834   6.866  18.391  0.00  0.00    +0.000 C 
ENDROOT
BRANCH   1   2
ATOM      2  N   UNL     1       2.254   8.204  18.250  0.00  0.00    +0.000 N 
ATOM      3  C   UNL     1       1.550   8.800  19.269  0.00  0.00    +0.000 C 
ATOM      4  O   UNL     1       1.354   8.265  20.354  0.00  0.00    +0.000 OA
ATOM      5  H   UNL     1       2.574   8.761  17.467  0.00  0.00    +0.000 HD
BRANCH   3   6
ATOM      6  C   UNL     1       1.050  10.173  19.004  0.00  0.00    +0.000 A 
ATOM      7  C   UNL     1      -0.299  10.511  19.172  0.00  0.00    +0.000 A 
ATOM      8  C   UNL     1      -0.733  11.804  18.874  0.00  0.00    +0.000 A 
ATOM      9  C   UNL     1       0.177  12.761  18.424  0.00  0.00    +0.000 A 
ATOM     10  C   UNL     1       1.526  12.436  18.290  0.00  0.00    +0.000 A 
ATOM     11  C   UNL     1       1.966  11.145  18.586  0.00  0.00    +0.000 A 
ENDBRANCH   3   6
ENDBRANCH   1   2
BRANCH   1  12
ATOM     12  C   UNL     1       4.247   6.769  17.797  0.00  0.00    +0.000 C 
ATOM     13  O   UNL     1       4.511   6.874  16.604  0.00  0.00    +0.000 OA
BRANCH  12  14
ATOM     14  O   UNL     1       5.138   6.344  18.745  0.00  0.00    +0.000 OA
BRANCH  14  15
ATOM     15  C   UNL     1       5.547   4.969  18.612  0.00  0.00    +0.000 C 
BRANCH  15  17
ATOM     16  C   UNL     1       7.882   5.971  18.807  0.00  0.00    +0.000 C 
ATOM     17  C   UNL     1       7.019   4.899  18.139  0.00  0.00    +0.000 C 
BRANCH  17  18
ATOM     18  N   UNL     1       7.159   4.917  16.688  0.00  0.00    +0.000 N 
ATOM     19  C   UNL     1       6.328   4.201  15.852  0.00  0.00    +0.000 C 
ATOM     20  O   UNL     1       5.409   3.501  16.257  0.00  0.00    +0.000 OA
ATOM     21  H   UNL     1       7.992   5.348  16.310  0.00  0.00    +0.000 HD
BRANCH  19  22
ATOM     22  C   UNL     1       6.629   4.261  14.397  0.00  0.00    +0.000 A 
ATOM     23  C   UNL     1       7.577   5.196  13.968  0.00  0.00    +0.000 A 
ATOM     24  C   UNL     1       7.869   5.327  12.609  0.00  0.00    +0.000 A 
ATOM     25  C   UNL     1       7.232   4.505  11.680  0.00  0.00    +0.000 A 
ATOM     26  C   UNL     1       6.315   3.546  12.104  0.00  0.00    +0.000 A 
ATOM     27  C   UNL     1       6.014   3.416  13.462  0.00  0.00    +0.000 A 
ENDBRANCH  19  22
ENDBRANCH  17  18
ENDBRANCH  15  17
ENDBRANCH  14  15
ENDBRANCH  12  14
ENDBRANCH   1  12
BRANCH   1  28
ATOM     28  C   UNL     1       1.931   5.732  17.881  0.00  0.00    +0.000 C 
BRANCH  28  29
ATOM     29  C   UNL     1       1.819   4.562  18.830  0.00  0.00    +0.000 A 
ATOM     30  C   UNL     1       1.902   3.249  18.352  0.00  0.00    +0.000 A 
ATOM     31  C   UNL     1       1.760   2.171  19.227  0.00  0.00    +0.000 A 
ATOM     32  C   UNL     1       1.533   2.398  20.584  0.00  0.00    +0.000 A 
ATOM     33  C   UNL     1       1.462   3.701  21.071  0.00  0.00    +0.000 A 
ATOM     34  C   UNL     1       1.610   4.778  20.199  0.00  0.00    +0.000 A 
ENDBRANCH  28  29
ENDBRANCH   1  28
TORSDOF 10
ENDMDL
MODEL 3
REMARK VINA RESULT:      -8.5      1.766      8.266
REMARK  Name = 
REMARK  11 active torsions:
REMARK  status: ('A' for Active; 'I' for Inactive)
REMARK    1  A    between atoms: C_1  and  C_2
REMARK    2  A    between atoms: C_2  and  C_3
REMARK    3  A    between atoms: C_2  and  N_24
REMARK    4  A    between atoms: C_3  and  O_4
REMARK    5  A    between atoms: O_4  and  C_5
REMARK    6  A    between atoms: C_5  and  C_7
REMARK    7  A    between atoms: C_7  and  C_8
REMARK    8  A    between atoms: C_7  and  N_15
REMARK    9  A    between atoms: C_8  and  C_9
REMARK   10  A    between atoms: C_16  and  C_18
REMARK   11  A    between atoms: C_25  and  C_27
REMARK                            x       y       z     vdW  Elec       q    Type
REMARK                         _______ _______ _______ _____ _____    ______ ____
ROOT
ATOM      1  C   UNL     1       4.478   3.849  17.618  0.00  0.00    +0.000 C 
ENDROOT
BRANCH   1   2
ATOM      2  N   UNL     1       5.129   3.723  16.312  0.00  0.00    +0.000 N 
ATOM      3  C   UNL     1       5.320   4.808  15.489  0.00  0.00    +0.000 C 
ATOM      4  O   UNL     1       4.963   5.944  15.780  0.00  0.00    +0.000 OA
ATOM      5  H   UNL     1       5.630   2.861  16.131  0.00  0.00    +0.000 HD
BRANCH   3   6
ATOM      6  C   UNL     1       6.027   4.544  14.211  0.00  0.00    +0.000 A 
ATOM      7  C   UNL     1       5.534   3.627  13.273  0.00  0.00    +0.000 A 
ATOM      8  C   UNL     1       6.251   3.381  12.100  0.00  0.00    +0.000 A 
ATOM      9  C   UNL     1       7.447   4.057  11.857  0.00  0.00    +0.000 A 
ATOM     10  C   UNL     1       7.920   4.995  12.773  0.00  0.00    +0.000 A 
ATOM     11  C   UNL     1       7.209   5.245  13.946  0.00  0.00    +0.000 A 
ENDBRANCH   3   6
ENDBRANCH   1   2
BRANCH   1  12
ATOM     12  C   UNL     1       5.283   4.715  18.599  0.00  0.00    +0.000 C 
ATOM     13  O   UNL     1       6.191   4.301  19.311  0.00  0.00    +0.000 OA
BRANCH  12  14
ATOM     14  O   UNL     1       4.715   5.953  18.724  0.00  0.00    +0.000 OA
BRANCH  14  15
ATOM     15  C   UNL     1       3.410   5.958  19.335  0.00  0.00    +0.000 C 
BRANCH  15  17
ATOM     16  C   UNL     1       3.399   8.046  17.874  0.00  0.00    +0.000 C 
ATOM     17  C   UNL     1       2.568   7.128  18.774  0.00  0.00    +0.000 C 
BRANCH  17  18
ATOM     18  N   UNL     1       1.861   7.876  19.806  0.00  0.00    +0.000 N 
ATOM     19  C   UNL     1       0.987   8.902  19.513  0.00  0.00    +0.000 C 
ATOM     20  O   UNL     1       0.731   9.261  18.371  0.00  0.00    +0.000 OA
ATOM     21  H   UNL     1       2.152   7.730  20.763  0.00  0.00    +0.000 HD
BRANCH  19  22
ATOM     22  C   UNL     1       0.388   9.622  20.669  0.00  0.00    +0.000 A 
ATOM     23  C   UNL     1       0.226  11.007  20.557  0.00  0.00    +0.000 A 
ATOM     24  C   UNL     1      -0.292  11.742  21.625  0.00  0.00    +0.000 A 
ATOM     25  C   UNL     1      -0.673  11.089  22.797  0.00  0.00    +0.000 A 
ATOM     26  C   UNL     1      -0.550   9.705  22.901  0.00  0.00    +0.000 A 
ATOM     27  C   UNL     1      -0.026   8.966  21.837  0.00  0.00    +0.000 A 
ENDBRANCH  19  22
ENDBRANCH  17  18
ENDBRANCH  15  17
ENDBRANCH  14  15
ENDBRANCH  12  14
ENDBRANCH   1  12
BRANCH   1  28
ATOM     28  C   UNL     1       4.076   2.508  18.252  0.00  0.00    +0.000 C 
BRANCH  28  29
ATOM     29  C   UNL     1       3.014   2.627  19.320  0.00  0.00    +0.000 A 
ATOM     30  C   UNL     1       1.677   2.849  18.971  0.00  0.00    +0.000 A 
ATOM     31  C   UNL     1       0.706   2.996  19.962  0.00  0.00    +0.000 A 
ATOM     32  C   UNL     1       1.065   2.925  21.307  0.00  0.00    +0.000 A 
ATOM     33  C   UNL     1       2.390   2.692  21.664  0.00  0.00    +0.000 A 
ATOM     34  C   UNL     1       3.360   2.537  20.675  0.00  0.00    +0.000 A 
ENDBRANCH  28  29
ENDBRANCH   1  28
TORSDOF 10
ENDMDL
MODEL 4
REMARK VINA RESULT:      -8.4      1.775      2.946
REMARK  Name = 
REMARK  11 active torsions:
REMARK  status: ('A' for Active; 'I' for Inactive)
REMARK    1  A    between atoms: C_1  and  C_2
REMARK    2  A    between atoms: C_2  and  C_3
REMARK    3  A    between atoms: C_2  and  N_24
REMARK    4  A    between atoms: C_3  and  O_4
REMARK    5  A    between atoms: O_4  and  C_5
REMARK    6  A    between atoms: C_5  and  C_7
REMARK    7  A    between atoms: C_7  and  C_8
REMARK    8  A    between atoms: C_7  and  N_15
REMARK    9  A    between atoms: C_8  and  C_9
REMARK   10  A    between atoms: C_16  and  C_18
REMARK   11  A    between atoms: C_25  and  C_27
REMARK                            x       y       z     vdW  Elec       q    Type
REMARK                         _______ _______ _______ _____ _____    ______ ____
ROOT
ATOM      1  C   UNL     1       4.957   5.069  19.152  0.00  0.00    +0.000 C 
ENDROOT
BRANCH   1   2
ATOM      2  N   UNL     1       4.073   6.215  18.924  0.00  0.00    +0.000 N 
ATOM      3  C   UNL     1       2.967   6.445  19.708  0.00  0.00    +0.000 C 
ATOM      4  O   UNL     1       2.640   5.720  20.640  0.00  0.00    +0.000 OA
ATOM      5  H   UNL     1       4.422   6.949  18.318  0.00  0.00    +0.000 HD
BRANCH   3   6
ATOM      6  C   UNL     1       2.181   7.664  19.389  0.00  0.00    +0.000 A 
ATOM      7  C   UNL     1       2.180   8.224  18.105  0.00  0.00    +0.000 A 
ATOM      8  C   UNL     1       1.456   9.393  17.858  0.00  0.00    +0.000 A 
ATOM      9  C   UNL     1       0.725   9.992  18.884  0.00  0.00    +0.000 A 
ATOM     10  C   UNL     1       0.696   9.415  20.153  0.00  0.00    +0.000 A 
ATOM     11  C   UNL     1       1.417   8.248  20.405  0.00  0.00    +0.000 A 
ENDBRANCH   3   6
ENDBRANCH   1   2
BRANCH   1  12
ATOM     12  C   UNL     1       6.444   5.443  19.060  0.00  0.00    +0.000 C 
ATOM     13  O   UNL     1       7.278   5.203  19.926  0.00  0.00    +0.000 OA
BRANCH  12  14
ATOM     14  O   UNL     1       6.668   6.259  17.985  0.00  0.00    +0.000 OA
BRANCH  14  15
ATOM     15  C   UNL     1       7.176   5.589  16.815  0.00  0.00    +0.000 C 
BRANCH  15  17
ATOM     16  C   UNL     1       5.038   6.678  15.954  0.00  0.00    +0.000 C 
ATOM     17  C   UNL     1       6.361   6.010  15.569  0.00  0.00    +0.000 C 
BRANCH  17  18
ATOM     18  N   UNL     1       6.163   4.925  14.616  0.00  0.00    +0.000 N 
ATOM     19  C   UNL     1       6.942   4.777  13.487  0.00  0.00    +0.000 C 
ATOM     20  O   UNL     1       7.859   5.535  13.199  0.00  0.00    +0.000 OA
ATOM     21  H   UNL     1       5.327   4.367  14.719  0.00  0.00    +0.000 HD
BRANCH  19  22
ATOM     22  C   UNL     1       6.585   3.663  12.569  0.00  0.00    +0.000 A 
ATOM     23  C   UNL     1       7.631   2.979  11.941  0.00  0.00    +0.000 A 
ATOM     24  C   UNL     1       7.356   1.953  11.036  0.00  0.00    +0.000 A 
ATOM     25  C   UNL     1       6.035   1.591  10.777  0.00  0.00    +0.000 A 
ATOM     26  C   UNL     1       4.989   2.242  11.427  0.00  0.00    +0.000 A 
ATOM     27  C   UNL     1       5.259   3.275  12.329  0.00  0.00    +0.000 A 
ENDBRANCH  19  22
ENDBRANCH  17  18
ENDBRANCH  15  17
ENDBRANCH  14  15
ENDBRANCH  12  14
ENDBRANCH   1  12
BRANCH   1  28
ATOM     28  C   UNL     1       4.631   3.841  18.289  0.00  0.00    +0.000 C 
BRANCH  28  29
ATOM     29  C   UNL     1       3.229   3.310  18.481  0.00  0.00    +0.000 A 
ATOM     30  C   UNL     1       2.163   3.832  17.739  0.00  0.00    +0.000 A 
ATOM     31  C   UNL     1       0.865   3.365  17.947  0.00  0.00    +0.000 A 
ATOM     32  C   UNL     1       0.624   2.375  18.899  0.00  0.00    +0.000 A 
ATOM     33  C   UNL     1       1.679   1.841  19.633  0.00  0.00    +0.000 A 
ATOM     34  C   UNL     1       2.977   2.301  19.421  0.00  0.00    +0.000 A 
ENDBRANCH  28  29
ENDBRANCH   1  28
TORSDOF 10
ENDMDL
MODEL 5
REMARK VINA RESULT:      -8.4      1.849      2.923
REMARK  Name = 
REMARK  11 active torsions:
REMARK  status: ('A' for Active; 'I' for Inactive)
REMARK    1  A    between atoms: C_1  and  C_2
REMARK    2  A    between atoms: C_2  and  C_3
REMARK    3  A    between atoms: C_2  and  N_24
REMARK    4  A    between atoms: C_3  and  O_4
REMARK    5  A    between atoms: O_4  and  C_5
REMARK    6  A    between atoms: C_5  and  C_7
REMARK    7  A    between atoms: C_7  and  C_8
REMARK    8  A    between atoms: C_7  and  N_15
REMARK    9  A    between atoms: C_8  and  C_9
REMARK   10  A    between atoms: C_16  and  C_18
REMARK   11  A    between atoms: C_25  and  C_27
REMARK                            x       y       z     vdW  Elec       q    Type
REMARK                         _______ _______ _______ _____ _____    ______ ____
ROOT
ATOM      1  C   UNL     1       5.121   4.957  19.344  0.00  0.00    +0.000 C 
ENDROOT
BRANCH   1   2
ATOM      2  N   UNL     1       4.247   6.100  19.070  0.00  0.00    +0.000 N 
ATOM      3  C   UNL     1       3.096   6.322  19.789  0.00  0.00    +0.000 C 
ATOM      4  O   UNL     1       2.719   5.590  20.697  0.00  0.00    +0.000 OA
ATOM      5  H   UNL     1       4.628   6.839  18.490  0.00  0.00    +0.000 HD
BRANCH   3   6
ATOM      6  C   UNL     1       2.325   7.539  19.431  0.00  0.00    +0.000 A 
ATOM      7  C   UNL     1       1.581   8.246  20.384  0.00  0.00    +0.000 A 
ATOM      8  C   UNL     1       0.839   9.364  19.996  0.00  0.00    +0.000 A 
ATOM      9  C   UNL     1       0.851   9.784  18.666  0.00  0.00    +0.000 A 
ATOM     10  C   UNL     1       1.620   9.102  17.723  0.00  0.00    +0.000 A 
ATOM     11  C   UNL     1       2.363   7.985  18.105  0.00  0.00    +0.000 A 
ENDBRANCH   3   6
ENDBRANCH   1   2
BRANCH   1  12
ATOM     12  C   UNL     1       6.611   5.331  19.309  0.00  0.00    +0.000 C 
ATOM     13  O   UNL     1       7.365   5.276  20.274  0.00  0.00    +0.000 OA
BRANCH  12  14
ATOM     14  O   UNL     1       6.928   5.929  18.120  0.00  0.00    +0.000 OA
BRANCH  14  15
ATOM     15  C   UNL     1       7.288   5.018  17.064  0.00  0.00    +0.000 C 
BRANCH  15  17
ATOM     16  C   UNL     1       5.533   6.426  15.868  0.00  0.00    +0.000 C 
ATOM     17  C   UNL     1       6.782   5.556  15.705  0.00  0.00    +0.000 C 
BRANCH  17  18
ATOM     18  N   UNL     1       6.589   4.511  14.707  0.00  0.00    +0.000 N 
ATOM     19  C   UNL     1       6.947   4.672  13.386  0.00  0.00    +0.000 C 
ATOM     20  O   UNL     1       7.458   5.694  12.947  0.00  0.00    +0.000 OA
ATOM     21  H   UNL     1       6.031   3.713  14.977  0.00  0.00    +0.000 HD
BRANCH  19  22
ATOM     22  C   UNL     1       6.630   3.547  12.465  0.00  0.00    +0.000 A 
ATOM     23  C   UNL     1       5.283   3.302  12.179  0.00  0.00    +0.000 A 
ATOM     24  C   UNL     1       4.922   2.235  11.355  0.00  0.00    +0.000 A 
ATOM     25  C   UNL     1       5.911   1.426  10.795  0.00  0.00    +0.000 A 
ATOM     26  C   UNL     1       7.256   1.687  11.045  0.00  0.00    +0.000 A 
ATOM     27  C   UNL     1       7.621   2.750  11.875  0.00  0.00    +0.000 A 
ENDBRANCH  19  22
ENDBRANCH  17  18
ENDBRANCH  15  17
ENDBRANCH  14  15
ENDBRANCH  12  14
ENDBRANCH   1  12
BRANCH   1  28
ATOM     28  C   UNL     1       4.831   3.722  18.477  0.00  0.00    +0.000 C 
BRANCH  28  29
ATOM     29  C   UNL     1       3.408   3.224  18.574  0.00  0.00    +0.000 A 
ATOM     30  C   UNL     1       2.442   3.648  17.653  0.00  0.00    +0.000 A 
ATOM     31  C   UNL     1       1.121   3.216  17.769  0.00  0.00    +0.000 A 
ATOM     32  C   UNL     1       0.755   2.360  18.807  0.00  0.00    +0.000 A 
ATOM     33  C   UNL     1       1.710   1.923  19.721  0.00  0.00    +0.000 A 
ATOM     34  C   UNL     1       3.032   2.349  19.601  0.00  0.00    +0.000 A 
ENDBRANCH  28  29
ENDBRANCH   1  28
TORSDOF 10
ENDMDL
MODEL 6
REMARK VINA RESULT:      -8.3      1.941      8.725
REMARK  Name = 
REMARK  11 active torsions:
REMARK  status: ('A' for Active; 'I' for Inactive)
REMARK    1  A    between atoms: C_1  and  C_2
REMARK    2  A    between atoms: C_2  and  C_3
REMARK    3  A    between atoms: C_2  and  N_24
REMARK    4  A    between atoms: C_3  and  O_4
REMARK    5  A    between atoms: O_4  and  C_5
REMARK    6  A    between atoms: C_5  and  C_7
REMARK    7  A    between atoms: C_7  and  C_8
REMARK    8  A    between atoms: C_7  and  N_15
REMARK    9  A    between atoms: C_8  and  C_9
REMARK   10  A    between atoms: C_16  and  C_18
REMARK   11  A    between atoms: C_25  and  C_27
REMARK                            x       y       z     vdW  Elec       q    Type
REMARK                         _______ _______ _______ _____ _____    ______ ____
ROOT
ATOM      1  C   UNL     1       3.836   4.560  17.277  0.00  0.00    +0.000 C 
ENDROOT
BRANCH   1   2
ATOM      2  N   UNL     1       4.460   4.541  15.952  0.00  0.00    +0.000 N 
ATOM      3  C   UNL     1       5.814   4.363  15.790  0.00  0.00    +0.000 C 
ATOM      4  O   UNL     1       6.589   4.214  16.728  0.00  0.00    +0.000 OA
ATOM      5  H   UNL     1       3.841   4.440  15.156  0.00  0.00    +0.000 HD
BRANCH   3   6
ATOM      6  C   UNL     1       6.306   4.327  14.390  0.00  0.00    +0.000 A 
ATOM      7  C   UNL     1       5.747   3.469  13.435  0.00  0.00    +0.000 A 
ATOM      8  C   UNL     1       6.266   3.441  12.139  0.00  0.00    +0.000 A 
ATOM      9  C   UNL     1       7.330   4.274  11.793  0.00  0.00    +0.000 A 
ATOM     10  C   UNL     1       7.865   5.154  12.734  0.00  0.00    +0.000 A 
ATOM     11  C   UNL     1       7.350   5.187  14.030  0.00  0.00    +0.000 A 
ENDBRANCH   3   6
ENDBRANCH   1   2
BRANCH   1  12
ATOM     12  C   UNL     1       4.224   5.800  18.096  0.00  0.00    +0.000 C 
ATOM     13  O   UNL     1       5.053   5.807  18.999  0.00  0.00    +0.000 OA
BRANCH  12  14
ATOM     14  O   UNL     1       3.376   6.839  17.826  0.00  0.00    +0.000 OA
BRANCH  14  15
ATOM     15  C   UNL     1       2.563   7.258  18.940  0.00  0.00    +0.000 C 
BRANCH  15  17
ATOM     16  C   UNL     1       2.602   9.523  17.774  0.00  0.00    +0.000 C 
ATOM     17  C   UNL     1       1.754   8.520  18.559  0.00  0.00    +0.000 C 
BRANCH  17  18
ATOM     18  N   UNL     1       1.090   9.144  19.697  0.00  0.00    +0.000 N 
ATOM     19  C   UNL     1      -0.035   9.929  19.561  0.00  0.00    +0.000 C 
ATOM     20  O   UNL     1      -0.569  10.158  18.483  0.00  0.00    +0.000 OA
ATOM     21  H   UNL     1       1.574   9.120  20.584  0.00  0.00    +0.000 HD
BRANCH  19  22
ATOM     22  C   UNL     1      -0.567  10.557  20.800  0.00  0.00    +0.000 A 
ATOM     23  C   UNL     1      -1.185  11.807  20.680  0.00  0.00    +0.000 A 
ATOM     24  C   UNL     1      -1.666  12.464  21.814  0.00  0.00    +0.000 A 
ATOM     25  C   UNL     1      -1.552  11.861  23.066  0.00  0.00    +0.000 A 
ATOM     26  C   UNL     1      -0.973  10.600  23.188  0.00  0.00    +0.000 A 
ATOM     27  C   UNL     1      -0.484   9.941  22.057  0.00  0.00    +0.000 A 
ENDBRANCH  19  22
ENDBRANCH  17  18
ENDBRANCH  15  17
ENDBRANCH  14  15
ENDBRANCH  12  14
ENDBRANCH   1  12
BRANCH   1  28
ATOM     28  C   UNL     1       4.035   3.267  18.085  0.00  0.00    +0.000 C 
BRANCH  28  29
ATOM     29  C   UNL     1       3.076   3.112  19.242  0.00  0.00    +0.000 A 
ATOM     30  C   UNL     1       3.532   2.666  20.488  0.00  0.00    +0.000 A 
ATOM     31  C   UNL     1       2.636   2.487  21.542  0.00  0.00    +0.000 A 
ATOM     32  C   UNL     1       1.279   2.752  21.358  0.00  0.00    +0.000 A 
ATOM     33  C   UNL     1       0.818   3.208  20.126  0.00  0.00    +0.000 A 
ATOM     34  C   UNL     1       1.713   3.393  19.075  0.00  0.00    +0.000 A 
ENDBRANCH  28  29
ENDBRANCH   1  28
TORSDOF 10
ENDMDL
MODEL 7
REMARK VINA RESULT:      -8.2      1.647      8.260
REMARK  Name = 
REMARK  11 active torsions:
REMARK  status: ('A' for Active; 'I' for Inactive)
REMARK    1  A    between atoms: C_1  and  C_2
REMARK    2  A    between atoms: C_2  and  C_3
REMARK    3  A    between atoms: C_2  and  N_24
REMARK    4  A    between atoms: C_3  and  O_4
REMARK    5  A    between atoms: O_4  and  C_5
REMARK    6  A    between atoms: C_5  and  C_7
REMARK    7  A    between atoms: C_7  and  C_8
REMARK    8  A    between atoms: C_7  and  N_15
REMARK    9  A    between atoms: C_8  and  C_9
REMARK   10  A    between atoms: C_16  and  C_18
REMARK   11  A    between atoms: C_25  and  C_27
REMARK                            x       y       z     vdW  Elec       q    Type
REMARK                         _______ _______ _______ _____ _____    ______ ____
ROOT
ATOM      1  C   UNL     1       4.041   4.783  17.297  0.00  0.00    +0.000 C 
ENDROOT
BRANCH   1   2
ATOM      2  N   UNL     1       4.631   4.771  15.956  0.00  0.00    +0.000 N 
ATOM      3  C   UNL     1       5.916   4.336  15.732  0.00  0.00    +0.000 C 
ATOM      4  O   UNL     1       6.654   3.934  16.624  0.00  0.00    +0.000 OA
ATOM      5  H   UNL     1       3.994   4.882  15.175  0.00  0.00    +0.000 HD
BRANCH   3   6
ATOM      6  C   UNL     1       6.372   4.342  14.319  0.00  0.00    +0.000 A 
ATOM      7  C   UNL     1       5.790   3.512  13.353  0.00  0.00    +0.000 A 
ATOM      8  C   UNL     1       6.276   3.523  12.044  0.00  0.00    +0.000 A 
ATOM      9  C   UNL     1       7.329   4.368  11.697  0.00  0.00    +0.000 A 
ATOM     10  C   UNL     1       7.886   5.221  12.649  0.00  0.00    +0.000 A 
ATOM     11  C   UNL     1       7.405   5.215  13.958  0.00  0.00    +0.000 A 
ENDBRANCH   3   6
ENDBRANCH   1   2
BRANCH   1  12
ATOM     12  C   UNL     1       4.487   5.995  18.128  0.00  0.00    +0.000 C 
ATOM     13  O   UNL     1       5.654   6.318  18.319  0.00  0.00    +0.000 OA
BRANCH  12  14
ATOM     14  O   UNL     1       3.422   6.538  18.795  0.00  0.00    +0.000 OA
BRANCH  14  15
ATOM     15  C   UNL     1       2.699   7.543  18.059  0.00  0.00    +0.000 C 
BRANCH  15  17
ATOM     16  C   UNL     1       1.768   7.822  20.414  0.00  0.00    +0.000 C 
ATOM     17  C   UNL     1       1.935   8.467  19.036  0.00  0.00    +0.000 C 
BRANCH  17  18
ATOM     18  N   UNL     1       0.665   8.945  18.504  0.00  0.00    +0.000 N 
ATOM     19  C   UNL     1       0.131  10.170  18.845  0.00  0.00    +0.000 C 
ATOM     20  O   UNL     1       0.679  10.952  19.611  0.00  0.00    +0.000 OA
ATOM     21  H   UNL     1       0.098   8.280  17.996  0.00  0.00    +0.000 HD
BRANCH  19  22
ATOM     22  C   UNL     1      -1.204  10.499  18.278  0.00  0.00    +0.000 A 
ATOM     23  C   UNL     1      -1.605   9.819  17.122  0.00  0.00    +0.000 A 
ATOM     24  C   UNL     1      -2.829  10.117  16.521  0.00  0.00    +0.000 A 
ATOM     25  C   UNL     1      -3.666  11.077  17.089  0.00  0.00    +0.000 A 
ATOM     26  C   UNL     1      -3.290  11.730  18.260  0.00  0.00    +0.000 A 
ATOM     27  C   UNL     1      -2.063  11.441  18.862  0.00  0.00    +0.000 A 
ENDBRANCH  19  22
ENDBRANCH  17  18
ENDBRANCH  15  17
ENDBRANCH  14  15
ENDBRANCH  12  14
ENDBRANCH   1  12
BRANCH   1  28
ATOM     28  C   UNL     1       4.222   3.470  18.075  0.00  0.00    +0.000 C 
BRANCH  28  29
ATOM     29  C   UNL     1       3.173   3.235  19.136  0.00  0.00    +0.000 A 
ATOM     30  C   UNL     1       1.812   3.347  18.828  0.00  0.00    +0.000 A 
ATOM     31  C   UNL     1       0.848   3.167  19.820  0.00  0.00    +0.000 A 
ATOM     32  C   UNL     1       1.238   2.875  21.127  0.00  0.00    +0.000 A 
ATOM     33  C   UNL     1       2.588   2.750  21.441  0.00  0.00    +0.000 A 
ATOM     34  C   UNL     1       3.551   2.923  20.449  0.00  0.00    +0.000 A 
ENDBRANCH  28  29
ENDBRANCH   1  28
TORSDOF 10
ENDMDL
MODEL 8
REMARK VINA RESULT:      -8.2      2.014      8.809
REMARK  Name = 
REMARK  11 active torsions:
REMARK  status: ('A' for Active; 'I' for Inactive)
REMARK    1  A    between atoms: C_1  and  C_2
REMARK    2  A    between atoms: C_2  and  C_3
REMARK    3  A    between atoms: C_2  and  N_24
REMARK    4  A    between atoms: C_3  and  O_4
REMARK    5  A    between atoms: O_4  and  C_5
REMARK    6  A    between atoms: C_5  and  C_7
REMARK    7  A    between atoms: C_7  and  C_8
REMARK    8  A    between atoms: C_7  and  N_15
REMARK    9  A    between atoms: C_8  and  C_9
REMARK   10  A    between atoms: C_16  and  C_18
REMARK   11  A    between atoms: C_25  and  C_27
REMARK                            x       y       z     vdW  Elec       q    Type
REMARK                         _______ _______ _______ _____ _____    ______ ____
ROOT
ATOM      1  C   UNL     1       3.643   4.808  17.189  0.00  0.00    +0.000 C 
ENDROOT
BRANCH   1   2
ATOM      2  N   UNL     1       4.302   4.692  15.886  0.00  0.00    +0.000 N 
ATOM      3  C   UNL     1       5.662   4.526  15.772  0.00  0.00    +0.000 C 
ATOM      4  O   UNL     1       6.415   4.469  16.738  0.00  0.00    +0.000 OA
ATOM      5  H   UNL     1       3.705   4.514  15.086  0.00  0.00    +0.000 HD
BRANCH   3   6
ATOM      6  C   UNL     1       6.192   4.384  14.393  0.00  0.00    +0.000 A 
ATOM      7  C   UNL     1       5.574   3.554  13.449  0.00  0.00    +0.000 A 
ATOM      8  C   UNL     1       6.127   3.421  12.173  0.00  0.00    +0.000 A 
ATOM      9  C   UNL     1       7.284   4.123  11.837  0.00  0.00    +0.000 A 
ATOM     10  C   UNL     1       7.881   4.977  12.764  0.00  0.00    +0.000 A 
ATOM     11  C   UNL     1       7.332   5.115  14.039  0.00  0.00    +0.000 A 
ENDBRANCH   3   6
ENDBRANCH   1   2
BRANCH   1  12
ATOM     12  C   UNL     1       3.683   6.239  17.746  0.00  0.00    +0.000 C 
ATOM     13  O   UNL     1       4.706   6.895  17.908  0.00  0.00    +0.000 OA
BRANCH  12  14
ATOM     14  O   UNL     1       2.456   6.600  18.230  0.00  0.00    +0.000 OA
BRANCH  14  15
ATOM     15  C   UNL     1       2.376   7.953  18.720  0.00  0.00    +0.000 C 
BRANCH  15  17
ATOM     16  C   UNL     1       1.423   6.566  20.634  0.00  0.00    +0.000 C 
ATOM     17  C   UNL     1       1.884   7.956  20.186  0.00  0.00    +0.000 C 
BRANCH  17  18
ATOM     18  N   UNL     1       0.875   8.974  20.454  0.00  0.00    +0.000 N 
ATOM     19  C   UNL     1       0.796   9.642  21.657  0.00  0.00    +0.000 C 
ATOM     20  O   UNL     1       1.564   9.441  22.590  0.00  0.00    +0.000 OA
ATOM     21  H   UNL     1       0.124   9.066  19.784  0.00  0.00    +0.000 HD
BRANCH  19  22
ATOM     22  C   UNL     1      -0.325  10.607  21.815  0.00  0.00    +0.000 A 
ATOM     23  C   UNL     1      -0.909  10.722  23.081  0.00  0.00    +0.000 A 
ATOM     24  C   UNL     1      -1.992  11.581  23.280  0.00  0.00    +0.000 A 
ATOM     25  C   UNL     1      -2.476  12.344  22.218  0.00  0.00    +0.000 A 
ATOM     26  C   UNL     1      -1.875  12.262  20.964  0.00  0.00    +0.000 A 
ATOM     27  C   UNL     1      -0.795  11.399  20.759  0.00  0.00    +0.000 A 
ENDBRANCH  19  22
ENDBRANCH  17  18
ENDBRANCH  15  17
ENDBRANCH  14  15
ENDBRANCH  12  14
ENDBRANCH   1  12
BRANCH   1  28
ATOM     28  C   UNL     1       4.124   3.785  18.230  0.00  0.00    +0.000 C 
BRANCH  28  29
ATOM     29  C   UNL     1       3.088   3.435  19.272  0.00  0.00    +0.000 A 
ATOM     30  C   UNL     1       3.455   3.266  20.612  0.00  0.00    +0.000 A 
ATOM     31  C   UNL     1       2.501   2.905  21.563  0.00  0.00    +0.000 A 
ATOM     32  C   UNL     1       1.174   2.709  21.182  0.00  0.00    +0.000 A 
ATOM     33  C   UNL     1       0.796   2.887  19.854  0.00  0.00    +0.000 A 
ATOM     34  C   UNL     1       1.747   3.255  18.904  0.00  0.00    +0.000 A 
ENDBRANCH  28  29
ENDBRANCH   1  28
TORSDOF 10
ENDMDL
MODEL 9
REMARK VINA RESULT:      -8.2      2.321      8.376
REMARK  Name = 
REMARK  11 active torsions:
REMARK  status: ('A' for Active; 'I' for Inactive)
REMARK    1  A    between atoms: C_1  and  C_2
REMARK    2  A    between atoms: C_2  and  C_3
REMARK    3  A    between atoms: C_2  and  N_24
REMARK    4  A    between atoms: C_3  and  O_4
REMARK    5  A    between atoms: O_4  and  C_5
REMARK    6  A    between atoms: C_5  and  C_7
REMARK    7  A    between atoms: C_7  and  C_8
REMARK    8  A    between atoms: C_7  and  N_15
REMARK    9  A    between atoms: C_8  and  C_9
REMARK   10  A    between atoms: C_16  and  C_18
REMARK   11  A    between atoms: C_25  and  C_27
REMARK                            x       y       z     vdW  Elec       q    Type
REMARK                         _______ _______ _______ _____ _____    ______ ____
ROOT
ATOM      1  C   UNL     1       3.146   7.669  18.075  0.00  0.00    +0.000 C 
ENDROOT
BRANCH   1   2
ATOM      2  N   UNL     1       2.500   6.396  18.405  0.00  0.00    +0.000 N 
ATOM      3  C   UNL     1       3.084   5.485  19.254  0.00  0.00    +0.000 C 
ATOM      4  O   UNL     1       4.173   5.664  19.786  0.00  0.00    +0.000 OA
ATOM      5  H   UNL     1       1.519   6.307  18.169  0.00  0.00    +0.000 HD
BRANCH   3   6
ATOM      6  C   UNL     1       2.301   4.254  19.531  0.00  0.00    +0.000 A 
ATOM      7  C   UNL     1       2.004   3.850  20.839  0.00  0.00    +0.000 A 
ATOM      8  C   UNL     1       1.297   2.665  21.055  0.00  0.00    +0.000 A 
ATOM      9  C   UNL     1       0.877   1.894  19.971  0.00  0.00    +0.000 A 
ATOM     10  C   UNL     1       1.141   2.314  18.668  0.00  0.00    +0.000 A 
ATOM     11  C   UNL     1       1.846   3.496  18.446  0.00  0.00    +0.000 A 
ENDBRANCH   3   6
ENDBRANCH   1   2
BRANCH   1  12
ATOM     12  C   UNL     1       2.184   8.862  18.167  0.00  0.00    +0.000 C 
ATOM     13  O   UNL     1       2.247   9.864  17.464  0.00  0.00    +0.000 OA
BRANCH  12  14
ATOM     14  O   UNL     1       1.384   8.750  19.272  0.00  0.00    +0.000 OA
BRANCH  14  15
ATOM     15  C   UNL     1       1.482   9.846  20.201  0.00  0.00    +0.000 C 
BRANCH  15  17
ATOM     16  C   UNL     1      -0.344   9.478  21.939  0.00  0.00    +0.000 C 
ATOM     17  C   UNL     1       0.072  10.255  20.688  0.00  0.00    +0.000 C 
BRANCH  17  18
ATOM     18  N   UNL     1      -0.942  10.183  19.643  0.00  0.00    +0.000 N 
ATOM     19  C   UNL     1      -1.057  11.135  18.652  0.00  0.00    +0.000 C 
ATOM     20  O   UNL     1      -0.318  12.108  18.566  0.00  0.00    +0.000 OA
ATOM     21  H   UNL     1      -1.672   9.492  19.755  0.00  0.00    +0.000 HD
BRANCH  19  22
ATOM     22  C   UNL     1      -2.179  10.969  17.690  0.00  0.00    +0.000 A 
ATOM     23  C   UNL     1      -2.006  10.058  16.642  0.00  0.00    +0.000 A 
ATOM     24  C   UNL     1      -3.008   9.891  15.685  0.00  0.00    +0.000 A 
ATOM     25  C   UNL     1      -4.195  10.616  15.788  0.00  0.00    +0.000 A 
ATOM     26  C   UNL     1      -4.389  11.496  16.850  0.00  0.00    +0.000 A 
ATOM     27  C   UNL     1      -3.386  11.672  17.807  0.00  0.00    +0.000 A 
ENDBRANCH  19  22
ENDBRANCH  17  18
ENDBRANCH  15  17
ENDBRANCH  14  15
ENDBRANCH  12  14
ENDBRANCH   1  12
BRANCH   1  28
ATOM     28  C   UNL     1       3.905   7.660  16.739  0.00  0.00    +0.000 C 
BRANCH  28  29
ATOM     29  C   UNL     1       5.058   6.685  16.693  0.00  0.00    +0.000 A 
ATOM     30  C   UNL     1       6.286   7.008  17.281  0.00  0.00    +0.000 A 
ATOM     31  C   UNL     1       7.359   6.120  17.203  0.00  0.00    +0.000 A 
ATOM     32  C   UNL     1       7.213   4.904  16.535  0.00  0.00    +0.000 A 
ATOM     33  C   UNL     1       5.991   4.569  15.957  0.00  0.00    +0.000 A 
ATOM     34  C   UNL     1       4.917   5.452  16.041  0.00  0.00    +0.000 A 
ENDBRANCH  28  29
ENDBRANCH   1  28
TORSDOF 10
ENDMDL
