MODEL 1
REMARK VINA RESULT:      -7.1      0.000      0.000
REMARK  Name = 
REMARK  5 active torsions:
REMARK  status: ('A' for Active; 'I' for Inactive)
REMARK    1  A    between atoms: C_1  and  C_2
REMARK    2  A    between atoms: C_7  and  N_8
REMARK    3  A    between atoms: N_11  and  C_12
REMARK    4  A    between atoms: C_12  and  C_13
REMARK    5  A    between atoms: C_13  and  N_14
REMARK                            x       y       z     vdW  Elec       q    Type
REMARK                         _______ _______ _______ _____ _____    ______ ____
ROOT
ATOM      1  C   UNL     1      -0.688   9.964  19.101  0.00  0.00    +0.000 C 
ENDROOT
BRANCH   1   5
ATOM      2  N   UNL     1      -3.831  11.639  18.403  0.00  0.00    +0.000 N 
ATOM      3  C   UNL     1      -3.540  10.303  17.871  0.00  0.00    +0.000 C 
ATOM      4  C   UNL     1      -2.162  10.284  17.167  0.00  0.00    +0.000 C 
ATOM      5  N   UNL     1      -1.027  10.817  17.957  0.00  0.00    +0.000 NA
ATOM      6  C   UNL     1      -1.415  12.176  18.433  0.00  0.00    +0.000 C 
ATOM      7  C   UNL     1      -2.760  12.249  19.203  0.00  0.00    +0.000 C 
BRANCH   2  14
ATOM      8  C   UNL     1      -5.354  12.259  20.972  0.00  0.00    +0.000 C 
ATOM      9  C   UNL     1      -5.875  12.436  19.567  0.00  0.00    +0.000 A 
ATOM     10  C   UNL     1      -7.199  12.910  19.442  0.00  0.00    +0.000 A 
ATOM     11  C   UNL     1      -7.758  13.184  18.197  0.00  0.00    +0.000 A 
ATOM     12  C   UNL     1      -7.004  12.983  17.054  0.00  0.00    +0.000 A 
ATOM     13  C   UNL     1      -5.704  12.486  17.165  0.00  0.00    +0.000 A 
ATOM     14  C   UNL     1      -5.103  12.188  18.409  0.00  0.00    +0.000 A 
ENDBRANCH   2  14
ENDBRANCH   1   5
BRANCH   1  15
ATOM     15  C   UNL     1       0.735  10.114  19.693  0.00  0.00    +0.000 C 
BRANCH  15  16
ATOM     16  N   UNL     1       1.429   8.848  19.468  0.00  0.00    +0.000 N 
ATOM     17  C   UNL     1       1.616   7.988  20.532  0.00  0.00    +0.000 C 
ATOM     18  O   UNL     1       1.614   8.340  21.706  0.00  0.00    +0.000 OA
ATOM     19  C   UNL     1       1.713   6.530  20.158  0.00  0.00    +0.000 C 
ATOM     20  C   UNL     1       2.523   6.254  18.888  0.00  0.00    +0.000 C 
ATOM     21  C   UNL     1       2.253   4.794  18.430  0.00  0.00    +0.000 C 
ATOM     22  C   UNL     1       3.610   4.106  18.372  0.00  0.00    +0.000 C 
ATOM     23  C   UNL     1       4.442   4.854  19.395  0.00  0.00    +0.000 C 
ATOM     24  C   UNL     1       4.045   6.306  19.170  0.00  0.00    +0.000 C 
ATOM     25  C   UNL     1       2.123   7.225  17.783  0.00  0.00    +0.000 C 
ATOM     26  C   UNL     1       2.019   8.659  18.226  0.00  0.00    +0.000 C 
ATOM     27  O   UNL     1       2.320   9.582  17.469  0.00  0.00    +0.000 OA
ENDBRANCH  15  16
ENDBRANCH   1  15
TORSDOF 4
ENDMDL
MODEL 2
REMARK VINA RESULT:      -7.1      4.018      8.362
REMARK  Name = 
REMARK  5 active torsions:
REMARK  status: ('A' for Active; 'I' for Inactive)
REMARK    1  A    between atoms: C_1  and  C_2
REMARK    2  A    between atoms: C_7  and  N_8
REMARK    3  A    between atoms: N_11  and  C_12
REMARK    4  A    between atoms: C_12  and  C_13
REMARK    5  A    between atoms: C_13  and  N_14
REMARK                            x       y       z     vdW  Elec       q    Type
REMARK                         _______ _______ _______ _____ _____    ______ ____
ROOT
ATOM      1  C   UNL     1       0.212  11.069  21.610  0.00  0.00    +0.000 C 
ENDROOT
BRANCH   1   5
ATOM      2  N   UNL     1       1.593   8.300  19.714  0.00  0.00    +0.000 N 
ATOM      3  C   UNL     1       1.072   9.500  19.049  0.00  0.00    +0.000 C 
ATOM      4  C   UNL     1      -0.347   9.837  19.565  0.00  0.00    +0.000 C 
ATOM      5  N   UNL     1      -0.496   9.919  21.037  0.00  0.00    +0.000 NA
ATOM      6  C   UNL     1       0.043   8.653  21.611  0.00  0.00    +0.000 C 
ATOM      7  C   UNL     1       1.489   8.293  21.179  0.00  0.00    +0.000 C 
BRANCH   2  14
ATOM      8  C   UNL     1       1.679   5.363  20.531  0.00  0.00    +0.000 C 
ATOM      9  C   UNL     1       2.504   6.006  19.445  0.00  0.00    +0.000 A 
ATOM     10  C   UNL     1       3.413   5.166  18.766  0.00  0.00    +0.000 A 
ATOM     11  C   UNL     1       4.171   5.631  17.695  0.00  0.00    +0.000 A 
ATOM     12  C   UNL     1       4.035   6.946  17.286  0.00  0.00    +0.000 A 
ATOM     13  C   UNL     1       3.161   7.792  17.970  0.00  0.00    +0.000 A 
ATOM     14  C   UNL     1       2.381   7.362  19.067  0.00  0.00    +0.000 A 
ENDBRANCH   2  14
ENDBRANCH   1   5
BRANCH   1  15
ATOM     15  C   UNL     1      -0.464  12.455  21.461  0.00  0.00    +0.000 C 
BRANCH  15  16
ATOM     16  N   UNL     1       0.399  13.262  20.601  0.00  0.00    +0.000 N 
ATOM     17  C   UNL     1       1.365  14.061  21.181  0.00  0.00    +0.000 C 
ATOM     18  O   UNL     1       1.318  14.462  22.338  0.00  0.00    +0.000 OA
ATOM     19  C   UNL     1       2.572  14.323  20.315  0.00  0.00    +0.000 C 
ATOM     20  C   UNL     1       2.250  14.579  18.840  0.00  0.00    +0.000 C 
ATOM     21  C   UNL     1       3.564  14.484  18.017  0.00  0.00    +0.000 C 
ATOM     22  C   UNL     1       3.712  15.814  17.291  0.00  0.00    +0.000 C 
ATOM     23  C   UNL     1       2.985  16.799  18.184  0.00  0.00    +0.000 C 
ATOM     24  C   UNL     1       1.747  16.026  18.617  0.00  0.00    +0.000 C 
ATOM     25  C   UNL     1       1.246  13.551  18.331  0.00  0.00    +0.000 C 
ATOM     26  C   UNL     1       0.080  13.316  19.252  0.00  0.00    +0.000 C 
ATOM     27  O   UNL     1      -1.040  13.060  18.807  0.00  0.00    +0.000 OA
ENDBRANCH  15  16
ENDBRANCH   1  15
TORSDOF 4
ENDMDL
MODEL 3
REMARK VINA RESULT:      -7.0      3.035      3.811
REMARK  Name = 
REMARK  5 active torsions:
REMARK  status: ('A' for Active; 'I' for Inactive)
REMARK    1  A    between atoms: C_1  and  C_2
REMARK    2  A    between atoms: C_7  and  N_8
REMARK    3  A    between atoms: N_11  and  C_12
REMARK    4  A    between atoms: C_12  and  C_13
REMARK    5  A    between atoms: C_13  and  N_14
REMARK                            x       y       z     vdW  Elec       q    Type
REMARK                         _______ _______ _______ _____ _____    ______ ____
ROOT
ATOM      1  C   UNL     1       1.771   8.876  18.552  0.00  0.00    +0.000 C 
ENDROOT
BRANCH   1   5
ATOM      2  N   UNL     1      -0.487  11.139  20.270  0.00  0.00    +0.000 N 
ATOM      3  C   UNL     1      -0.988   9.990  19.506  0.00  0.00    +0.000 C 
ATOM      4  C   UNL     1      -0.374   9.970  18.086  0.00  0.00    +0.000 C 
ATOM      5  N   UNL     1       1.104  10.069  18.020  0.00  0.00    +0.000 NA
ATOM      6  C   UNL     1       1.505  11.270  18.808  0.00  0.00    +0.000 C 
ATOM      7  C   UNL     1       0.971  11.317  20.264  0.00  0.00    +0.000 C 
BRANCH   2  14
ATOM      8  C   UNL     1      -0.898  10.262  23.163  0.00  0.00    +0.000 C 
ATOM      9  C   UNL     1      -1.543  11.452  22.496  0.00  0.00    +0.000 A 
ATOM     10  C   UNL     1      -2.435  12.208  23.286  0.00  0.00    +0.000 A 
ATOM     11  C   UNL     1      -3.029  13.370  22.802  0.00  0.00    +0.000 A 
ATOM     12  C   UNL     1      -2.744  13.793  21.515  0.00  0.00    +0.000 A 
ATOM     13  C   UNL     1      -1.887  13.036  20.716  0.00  0.00    +0.000 A 
ATOM     14  C   UNL     1      -1.271  11.847  21.167  0.00  0.00    +0.000 A 
ENDBRANCH   2  14
ENDBRANCH   1   5
BRANCH   1  15
ATOM     15  C   UNL     1       3.048   8.399  17.817  0.00  0.00    +0.000 C 
BRANCH  15  16
ATOM     16  N   UNL     1       3.188   6.969  18.084  0.00  0.00    +0.000 N 
ATOM     17  C   UNL     1       2.531   6.423  19.169  0.00  0.00    +0.000 C 
ATOM     18  O   UNL     1       2.170   7.069  20.147  0.00  0.00    +0.000 OA
ATOM     19  C   UNL     1       2.176   4.965  19.026  0.00  0.00    +0.000 C 
ATOM     20  C   UNL     1       3.262   4.111  18.366  0.00  0.00    +0.000 C 
ATOM     21  C   UNL     1       2.647   2.741  17.965  0.00  0.00    +0.000 C 
ATOM     22  C   UNL     1       3.485   1.676  18.658  0.00  0.00    +0.000 C 
ATOM     23  C   UNL     1       4.021   2.378  19.890  0.00  0.00    +0.000 C 
ATOM     24  C   UNL     1       4.389   3.760  19.368  0.00  0.00    +0.000 C 
ATOM     25  C   UNL     1       3.810   4.812  17.128  0.00  0.00    +0.000 C 
ATOM     26  C   UNL     1       4.120   6.270  17.330  0.00  0.00    +0.000 C 
ATOM     27  O   UNL     1       5.063   6.807  16.748  0.00  0.00    +0.000 OA
ENDBRANCH  15  16
ENDBRANCH   1  15
TORSDOF 4
ENDMDL
MODEL 4
REMARK VINA RESULT:      -6.9      3.450      4.144
REMARK  Name = 
REMARK  5 active torsions:
REMARK  status: ('A' for Active; 'I' for Inactive)
REMARK    1  A    between atoms: C_1  and  C_2
REMARK    2  A    between atoms: C_7  and  N_8
REMARK    3  A    between atoms: N_11  and  C_12
REMARK    4  A    between atoms: C_12  and  C_13
REMARK    5  A    between atoms: C_13  and  N_14
REMARK                            x       y       z     vdW  Elec       q    Type
REMARK                         _______ _______ _______ _____ _____    ______ ____
ROOT
ATOM      1  C   UNL     1       1.439   8.605  18.149  0.00  0.00    +0.000 C 
ENDROOT
BRANCH   1   5
ATOM      2  N   UNL     1      -0.250  11.151  20.108  0.00  0.00    +0.000 N 
ATOM      3  C   UNL     1      -1.001  10.159  19.330  0.00  0.00    +0.000 C 
ATOM      4  C   UNL     1      -0.483  10.103  17.873  0.00  0.00    +0.000 C 
ATOM      5  N   UNL     1       0.981   9.929  17.714  0.00  0.00    +0.000 NA
ATOM      6  C   UNL     1       1.646  10.989  18.525  0.00  0.00    +0.000 C 
ATOM      7  C   UNL     1       1.213  11.055  20.013  0.00  0.00    +0.000 C 
BRANCH   2  14
ATOM      8  C   UNL     1      -0.801  14.125  19.717  0.00  0.00    +0.000 C 
ATOM      9  C   UNL     1      -1.054  13.334  20.976  0.00  0.00    +0.000 A 
ATOM     10  C   UNL     1      -1.570  14.052  22.076  0.00  0.00    +0.000 A 
ATOM     11  C   UNL     1      -1.914  13.413  23.264  0.00  0.00    +0.000 A 
ATOM     12  C   UNL     1      -1.742  12.044  23.374  0.00  0.00    +0.000 A 
ATOM     13  C   UNL     1      -1.204  11.330  22.302  0.00  0.00    +0.000 A 
ATOM     14  C   UNL     1      -0.834  11.942  21.083  0.00  0.00    +0.000 A 
ENDBRANCH   2  14
ENDBRANCH   1   5
BRANCH   1  15
ATOM     15  C   UNL     1       2.954   8.308  18.017  0.00  0.00    +0.000 C 
BRANCH  15  16
ATOM     16  N   UNL     1       3.125   6.868  18.195  0.00  0.00    +0.000 N 
ATOM     17  C   UNL     1       2.488   6.242  19.248  0.00  0.00    +0.000 C 
ATOM     18  O   UNL     1       2.120   6.818  20.266  0.00  0.00    +0.000 OA
ATOM     19  C   UNL     1       2.162   4.788  19.017  0.00  0.00    +0.000 C 
ATOM     20  C   UNL     1       3.260   3.999  18.299  0.00  0.00    +0.000 C 
ATOM     21  C   UNL     1       2.670   2.644  17.819  0.00  0.00    +0.000 C 
ATOM     22  C   UNL     1       3.536   1.556  18.439  0.00  0.00    +0.000 C 
ATOM     23  C   UNL     1       4.066   2.192  19.709  0.00  0.00    +0.000 C 
ATOM     24  C   UNL     1       4.401   3.611  19.271  0.00  0.00    +0.000 C 
ATOM     25  C   UNL     1       3.784   4.787  17.104  0.00  0.00    +0.000 C 
ATOM     26  C   UNL     1       4.065   6.236  17.394  0.00  0.00    +0.000 C 
ATOM     27  O   UNL     1       4.993   6.827  16.840  0.00  0.00    +0.000 OA
ENDBRANCH  15  16
ENDBRANCH   1  15
TORSDOF 4
ENDMDL
MODEL 5
REMARK VINA RESULT:      -6.8      3.027      3.720
REMARK  Name = 
REMARK  5 active torsions:
REMARK  status: ('A' for Active; 'I' for Inactive)
REMARK    1  A    between atoms: C_1  and  C_2
REMARK    2  A    between atoms: C_7  and  N_8
REMARK    3  A    between atoms: N_11  and  C_12
REMARK    4  A    between atoms: C_12  and  C_13
REMARK    5  A    between atoms: C_13  and  N_14
REMARK                            x       y       z     vdW  Elec       q    Type
REMARK                         _______ _______ _______ _____ _____    ______ ____
ROOT
ATOM      1  C   UNL     1       0.900   9.653  18.828  0.00  0.00    +0.000 C 
ENDROOT
BRANCH   1   5
ATOM      2  N   UNL     1      -1.051  11.995  20.797  0.00  0.00    +0.000 N 
ATOM      3  C   UNL     1      -1.557  11.449  19.533  0.00  0.00    +0.000 C 
ATOM      4  C   UNL     1      -0.509  11.615  18.407  0.00  0.00    +0.000 C 
ATOM      5  N   UNL     1       0.852  11.114  18.714  0.00  0.00    +0.000 NA
ATOM      6  C   UNL     1       1.278  11.739  19.999  0.00  0.00    +0.000 C 
ATOM      7  C   UNL     1       0.295  11.552  21.185  0.00  0.00    +0.000 C 
BRANCH   2  14
ATOM      8  C   UNL     1      -1.727  14.962  20.584  0.00  0.00    +0.000 C 
ATOM      9  C   UNL     1      -2.151  14.033  21.694  0.00  0.00    +0.000 A 
ATOM     10  C   UNL     1      -2.911  14.605  22.737  0.00  0.00    +0.000 A 
ATOM     11  C   UNL     1      -3.422  13.829  23.774  0.00  0.00    +0.000 A 
ATOM     12  C   UNL     1      -3.178  12.467  23.787  0.00  0.00    +0.000 A 
ATOM     13  C   UNL     1      -2.403  11.897  22.777  0.00  0.00    +0.000 A 
ATOM     14  C   UNL     1      -1.859  12.650  21.712  0.00  0.00    +0.000 A 
ENDBRANCH   2  14
ENDBRANCH   1   5
BRANCH   1  15
ATOM     15  C   UNL     1       2.267   8.972  18.570  0.00  0.00    +0.000 C 
BRANCH  15  16
ATOM     16  N   UNL     1       2.173   7.610  19.091  0.00  0.00    +0.000 N 
ATOM     17  C   UNL     1       1.688   7.413  20.368  0.00  0.00    +0.000 C 
ATOM     18  O   UNL     1       1.699   8.270  21.245  0.00  0.00    +0.000 OA
ATOM     19  C   UNL     1       1.022   6.079  20.594  0.00  0.00    +0.000 C 
ATOM     20  C   UNL     1       1.732   4.897  19.928  0.00  0.00    +0.000 C 
ATOM     21  C   UNL     1       0.777   3.671  19.938  0.00  0.00    +0.000 C 
ATOM     22  C   UNL     1       1.520   2.555  20.661  0.00  0.00    +0.000 C 
ATOM     23  C   UNL     1       2.455   3.290  21.600  0.00  0.00    +0.000 C 
ATOM     24  C   UNL     1       2.964   4.445  20.749  0.00  0.00    +0.000 C 
ATOM     25  C   UNL     1       2.110   5.245  18.492  0.00  0.00    +0.000 C 
ATOM     26  C   UNL     1       2.746   6.599  18.332  0.00  0.00    +0.000 C 
ATOM     27  O   UNL     1       3.618   6.796  17.485  0.00  0.00    +0.000 OA
ENDBRANCH  15  16
ENDBRANCH   1  15
TORSDOF 4
ENDMDL
MODEL 6
REMARK VINA RESULT:      -6.8      1.616      2.556
REMARK  Name = 
REMARK  5 active torsions:
REMARK  status: ('A' for Active; 'I' for Inactive)
REMARK    1  A    between atoms: C_1  and  C_2
REMARK    2  A    between atoms: C_7  and  N_8
REMARK    3  A    between atoms: N_11  and  C_12
REMARK    4  A    between atoms: C_12  and  C_13
REMARK    5  A    between atoms: C_13  and  N_14
REMARK                            x       y       z     vdW  Elec       q    Type
REMARK                         _______ _______ _______ _____ _____    ______ ____
ROOT
ATOM      1  C   UNL     1       1.031   9.594  18.331  0.00  0.00    +0.000 C 
ENDROOT
BRANCH   1   5
ATOM      2  N   UNL     1      -2.204  11.229  18.505  0.00  0.00    +0.000 N 
ATOM      3  C   UNL     1      -1.064  11.856  17.826  0.00  0.00    +0.000 C 
ATOM      4  C   UNL     1       0.183  11.858  18.742  0.00  0.00    +0.000 C 
ATOM      5  N   UNL     1       0.551  10.549  19.334  0.00  0.00    +0.000 NA
ATOM      6  C   UNL     1      -0.664  10.009  20.010  0.00  0.00    +0.000 C 
ATOM      7  C   UNL     1      -1.933   9.924  19.122  0.00  0.00    +0.000 C 
BRANCH   2  14
ATOM      8  C   UNL     1      -3.794  10.822  15.934  0.00  0.00    +0.000 C 
ATOM      9  C   UNL     1      -4.266  11.561  17.161  0.00  0.00    +0.000 A 
ATOM     10  C   UNL     1      -5.555  12.133  17.094  0.00  0.00    +0.000 A 
ATOM     11  C   UNL     1      -6.125  12.771  18.192  0.00  0.00    +0.000 A 
ATOM     12  C   UNL     1      -5.413  12.852  19.376  0.00  0.00    +0.000 A 
ATOM     13  C   UNL     1      -4.126  12.317  19.443  0.00  0.00    +0.000 A 
ATOM     14  C   UNL     1      -3.508  11.669  18.350  0.00  0.00    +0.000 A 
ENDBRANCH   2  14
ENDBRANCH   1   5
BRANCH   1  15
ATOM     15  C   UNL     1       2.463   9.035  18.521  0.00  0.00    +0.000 C 
BRANCH  15  16
ATOM     16  N   UNL     1       2.327   7.665  19.011  0.00  0.00    +0.000 N 
ATOM     17  C   UNL     1       1.877   7.455  20.300  0.00  0.00    +0.000 C 
ATOM     18  O   UNL     1       1.957   8.288  21.197  0.00  0.00    +0.000 OA
ATOM     19  C   UNL     1       1.161   6.146  20.516  0.00  0.00    +0.000 C 
ATOM     20  C   UNL     1       1.794   4.952  19.796  0.00  0.00    +0.000 C 
ATOM     21  C   UNL     1       0.787   3.769  19.809  0.00  0.00    +0.000 C 
ATOM     22  C   UNL     1       1.504   2.604  20.477  0.00  0.00    +0.000 C 
ATOM     23  C   UNL     1       2.503   3.272  21.401  0.00  0.00    +0.000 C 
ATOM     24  C   UNL     1       3.033   4.426  20.561  0.00  0.00    +0.000 C 
ATOM     25  C   UNL     1       2.138   5.322  18.357  0.00  0.00    +0.000 C 
ATOM     26  C   UNL     1       2.827   6.650  18.208  0.00  0.00    +0.000 C 
ATOM     27  O   UNL     1       3.678   6.831  17.336  0.00  0.00    +0.000 OA
ENDBRANCH  15  16
ENDBRANCH   1  15
TORSDOF 4
ENDMDL
MODEL 7
REMARK VINA RESULT:      -6.8      3.402      9.513
REMARK  Name = 
REMARK  5 active torsions:
REMARK  status: ('A' for Active; 'I' for Inactive)
REMARK    1  A    between atoms: C_1  and  C_2
REMARK    2  A    between atoms: C_7  and  N_8
REMARK    3  A    between atoms: N_11  and  C_12
REMARK    4  A    between atoms: C_12  and  C_13
REMARK    5  A    between atoms: C_13  and  N_14
REMARK                            x       y       z     vdW  Elec       q    Type
REMARK                         _______ _______ _______ _____ _____    ______ ____
ROOT
ATOM      1  C   UNL     1       1.176   5.845  20.372  0.00  0.00    +0.000 C 
ENDROOT
BRANCH   1   5
ATOM      2  N   UNL     1       3.896   4.769  18.224  0.00  0.00    +0.000 N 
ATOM      3  C   UNL     1       2.513   4.826  17.738  0.00  0.00    +0.000 C 
ATOM      4  C   UNL     1       1.562   4.085  18.709  0.00  0.00    +0.000 C 
ATOM      5  N   UNL     1       1.659   4.481  20.134  0.00  0.00    +0.000 NA
ATOM      6  C   UNL     1       3.092   4.371  20.531  0.00  0.00    +0.000 C 
ATOM      7  C   UNL     1       4.089   5.147  19.631  0.00  0.00    +0.000 C 
BRANCH   2  14
ATOM      8  C   UNL     1       6.730   5.526  19.062  0.00  0.00    +0.000 C 
ATOM      9  C   UNL     1       6.307   5.043  17.697  0.00  0.00    +0.000 A 
ATOM     10  C   UNL     1       7.320   4.961  16.717  0.00  0.00    +0.000 A 
ATOM     11  C   UNL     1       7.063   4.457  15.446  0.00  0.00    +0.000 A 
ATOM     12  C   UNL     1       5.785   4.031  15.130  0.00  0.00    +0.000 A 
ATOM     13  C   UNL     1       4.769   4.136  16.081  0.00  0.00    +0.000 A 
ATOM     14  C   UNL     1       4.987   4.650  17.379  0.00  0.00    +0.000 A 
ENDBRANCH   2  14
ENDBRANCH   1   5
BRANCH   1  15
ATOM     15  C   UNL     1       2.247   6.951  20.540  0.00  0.00    +0.000 C 
BRANCH  15  16
ATOM     16  N   UNL     1       1.642   8.205  20.099  0.00  0.00    +0.000 N 
ATOM     17  C   UNL     1       1.861   8.637  18.806  0.00  0.00    +0.000 C 
ATOM     18  O   UNL     1       2.817   8.290  18.121  0.00  0.00    +0.000 OA
ATOM     19  C   UNL     1       0.764   9.497  18.231  0.00  0.00    +0.000 C 
ATOM     20  C   UNL     1       0.175  10.512  19.215  0.00  0.00    +0.000 C 
ATOM     21  C   UNL     1      -1.148  11.072  18.622  0.00  0.00    +0.000 C 
ATOM     22  C   UNL     1      -0.979  12.584  18.550  0.00  0.00    +0.000 C 
ATOM     23  C   UNL     1       0.517  12.776  18.403  0.00  0.00    +0.000 C 
ATOM     24  C   UNL     1       1.095  11.748  19.366  0.00  0.00    +0.000 C 
ATOM     25  C   UNL     1      -0.101   9.850  20.559  0.00  0.00    +0.000 C 
ATOM     26  C   UNL     1       1.021   8.985  21.065  0.00  0.00    +0.000 C 
ATOM     27  O   UNL     1       1.262   8.894  22.269  0.00  0.00    +0.000 OA
ENDBRANCH  15  16
ENDBRANCH   1  15
TORSDOF 4
ENDMDL
MODEL 8
REMARK VINA RESULT:      -6.7      3.774      5.194
REMARK  Name = 
REMARK  5 active torsions:
REMARK  status: ('A' for Active; 'I' for Inactive)
REMARK    1  A    between atoms: C_1  and  C_2
REMARK    2  A    between atoms: C_7  and  N_8
REMARK    3  A    between atoms: N_11  and  C_12
REMARK    4  A    between atoms: C_12  and  C_13
REMARK    5  A    between atoms: C_13  and  N_14
REMARK                            x       y       z     vdW  Elec       q    Type
REMARK                         _______ _______ _______ _____ _____    ______ ____
ROOT
ATOM      1  C   UNL     1       1.515   8.826  20.171  0.00  0.00    +0.000 C 
ENDROOT
BRANCH   1   5
ATOM      2  N   UNL     1       0.777  12.334  19.609  0.00  0.00    +0.000 N 
ATOM      3  C   UNL     1       1.315  11.860  20.889  0.00  0.00    +0.000 C 
ATOM      4  C   UNL     1       0.485  10.667  21.421  0.00  0.00    +0.000 C 
ATOM      5  N   UNL     1       0.276   9.551  20.468  0.00  0.00    +0.000 NA
ATOM      6  C   UNL     1      -0.286  10.134  19.216  0.00  0.00    +0.000 C 
ATOM      7  C   UNL     1       0.538  11.295  18.598  0.00  0.00    +0.000 C 
BRANCH   2  14
ATOM      8  C   UNL     1       3.191  13.770  18.417  0.00  0.00    +0.000 C 
ATOM      9  C   UNL     1       1.861  14.398  18.753  0.00  0.00    +0.000 A 
ATOM     10  C   UNL     1       1.742  15.784  18.511  0.00  0.00    +0.000 A 
ATOM     11  C   UNL     1       0.539  16.456  18.710  0.00  0.00    +0.000 A 
ATOM     12  C   UNL     1      -0.565  15.753  19.160  0.00  0.00    +0.000 A 
ATOM     13  C   UNL     1      -0.450  14.389  19.431  0.00  0.00    +0.000 A 
ATOM     14  C   UNL     1       0.755  13.672  19.250  0.00  0.00    +0.000 A 
ENDBRANCH   2  14
ENDBRANCH   1   5
BRANCH   1  15
ATOM     15  C   UNL     1       1.488   7.287  20.344  0.00  0.00    +0.000 C 
BRANCH  15  16
ATOM     16  N   UNL     1       2.513   6.738  19.459  0.00  0.00    +0.000 N 
ATOM     17  C   UNL     1       2.667   7.276  18.197  0.00  0.00    +0.000 C 
ATOM     18  O   UNL     1       1.789   7.890  17.602  0.00  0.00    +0.000 OA
ATOM     19  C   UNL     1       4.057   7.157  17.624  0.00  0.00    +0.000 C 
ATOM     20  C   UNL     1       4.743   5.816  17.898  0.00  0.00    +0.000 C 
ATOM     21  C   UNL     1       6.256   5.952  17.572  0.00  0.00    +0.000 C 
ATOM     22  C   UNL     1       6.568   4.882  16.534  0.00  0.00    +0.000 C 
ATOM     23  C   UNL     1       5.251   4.681  15.811  0.00  0.00    +0.000 C 
ATOM     24  C   UNL     1       4.229   4.715  16.938  0.00  0.00    +0.000 C 
ATOM     25  C   UNL     1       4.562   5.416  19.358  0.00  0.00    +0.000 C 
ATOM     26  C   UNL     1       3.160   5.583  19.876  0.00  0.00    +0.000 C 
ATOM     27  O   UNL     1       2.694   4.807  20.711  0.00  0.00    +0.000 OA
ENDBRANCH  15  16
ENDBRANCH   1  15
TORSDOF 4
ENDMDL
MODEL 9
REMARK VINA RESULT:      -6.6      3.031      9.646
REMARK  Name = 
REMARK  5 active torsions:
REMARK  status: ('A' for Active; 'I' for Inactive)
REMARK    1  A    between atoms: C_1  and  C_2
REMARK    2  A    between atoms: C_7  and  N_8
REMARK    3  A    between atoms: N_11  and  C_12
REMARK    4  A    between atoms: C_12  and  C_13
REMARK    5  A    between atoms: C_13  and  N_14
REMARK                            x       y       z     vdW  Elec       q    Type
REMARK                         _______ _______ _______ _____ _____    ______ ____
ROOT
ATOM      1  C   UNL     1       1.769   5.983  19.778  0.00  0.00    +0.000 C 
ENDROOT
BRANCH   1   5
ATOM      2  N   UNL     1       4.302   4.835  17.447  0.00  0.00    +0.000 N 
ATOM      3  C   UNL     1       2.917   4.360  17.368  0.00  0.00    +0.000 C 
ATOM      4  C   UNL     1       2.432   3.858  18.749  0.00  0.00    +0.000 C 
ATOM      5  N   UNL     1       2.625   4.796  19.880  0.00  0.00    +0.000 NA
ATOM      6  C   UNL     1       4.060   5.203  19.882  0.00  0.00    +0.000 C 
ATOM      7  C   UNL     1       4.589   5.774  18.540  0.00  0.00    +0.000 C 
BRANCH   2  14
ATOM      8  C   UNL     1       7.319   4.886  17.899  0.00  0.00    +0.000 C 
ATOM      9  C   UNL     1       6.623   4.734  16.569  0.00  0.00    +0.000 A 
ATOM     10  C   UNL     1       7.455   4.630  15.433  0.00  0.00    +0.000 A 
ATOM     11  C   UNL     1       6.928   4.409  14.164  0.00  0.00    +0.000 A 
ATOM     12  C   UNL     1       5.557   4.293  14.008  0.00  0.00    +0.000 A 
ATOM     13  C   UNL     1       4.725   4.425  15.120  0.00  0.00    +0.000 A 
ATOM     14  C   UNL     1       5.220   4.657  16.423  0.00  0.00    +0.000 A 
ENDBRANCH   2  14
ENDBRANCH   1   5
BRANCH   1  15
ATOM     15  C   UNL     1       2.233   7.251  20.536  0.00  0.00    +0.000 C 
BRANCH  15  16
ATOM     16  N   UNL     1       1.475   8.376  19.994  0.00  0.00    +0.000 N 
ATOM     17  C   UNL     1       0.429   8.897  20.730  0.00  0.00    +0.000 C 
ATOM     18  O   UNL     1      -0.175   8.275  21.597  0.00  0.00    +0.000 OA
ATOM     19  C   UNL     1       0.140  10.355  20.476  0.00  0.00    +0.000 C 
ATOM     20  C   UNL     1       0.232  10.772  19.005  0.00  0.00    +0.000 C 
ATOM     21  C   UNL     1       0.263  12.323  18.926  0.00  0.00    +0.000 C 
ATOM     22  C   UNL     1      -0.908  12.730  18.040  0.00  0.00    +0.000 C 
ATOM     23  C   UNL     1      -1.911  11.609  18.225  0.00  0.00    +0.000 C 
ATOM     24  C   UNL     1      -1.040  10.360  18.223  0.00  0.00    +0.000 C 
ATOM     25  C   UNL     1       1.493  10.197  18.369  0.00  0.00    +0.000 C 
ATOM     26  C   UNL     1       1.737   8.746  18.682  0.00  0.00    +0.000 C 
ATOM     27  O   UNL     1       2.259   7.996  17.856  0.00  0.00    +0.000 OA
ENDBRANCH  15  16
ENDBRANCH   1  15
TORSDOF 4
ENDMDL
