MODEL 1
REMARK VINA RESULT:      -7.7      0.000      0.000
REMARK  Name = 
REMARK  4 active torsions:
REMARK  status: ('A' for Active; 'I' for Inactive)
REMARK    1  A    between atoms: C_11  and  C_12
REMARK    2  A    between atoms: C_12  and  C_13
REMARK    3  A    between atoms: C_13  and  N_14
REMARK    4  A    between atoms: N_17  and  C_18
REMARK                            x       y       z     vdW  Elec       q    Type
REMARK                         _______ _______ _______ _____ _____    ______ ____
ROOT
ATOM      1  C   UNL     1       2.137   9.948  18.384  0.00  0.00    +0.000 C 
ENDROOT
BRANCH   1   2
ATOM      2  N   UNL     1       0.999  10.827  18.046  0.00  0.00    +0.000 NA
ATOM      3  C   UNL     1      -0.322  10.222  18.359  0.00  0.00    +0.000 C 
ATOM      4  C   UNL     1      -0.572   9.976  19.862  0.00  0.00    +0.000 C 
ATOM      5  N   UNL     1      -0.415  11.231  20.609  0.00  0.00    +0.000 N 
ATOM      6  C   UNL     1       0.840  11.958  20.363  0.00  0.00    +0.000 C 
ATOM      7  C   UNL     1       1.098  12.090  18.833  0.00  0.00    +0.000 C 
BRANCH   5   8
ATOM      8  C   UNL     1      -1.428  11.757  21.382  0.00  0.00    +0.000 A 
ATOM      9  C   UNL     1      -1.503  11.507  22.761  0.00  0.00    +0.000 A 
ATOM     10  C   UNL     1      -2.558  11.997  23.540  0.00  0.00    +0.000 A 
ATOM     11  C   UNL     1      -3.558  12.759  22.949  0.00  0.00    +0.000 A 
ATOM     12 CL   UNL     1      -4.875  13.338  23.891  0.00  0.00    +0.000 Cl
ATOM     13  C   UNL     1      -3.500  13.048  21.592  0.00  0.00    +0.000 A 
ATOM     14  C   UNL     1      -2.443  12.552  20.825  0.00  0.00    +0.000 A 
ENDBRANCH   5   8
ENDBRANCH   1   2
BRANCH   1  15
ATOM     15  C   UNL     1       2.039   8.545  17.770  0.00  0.00    +0.000 C 
BRANCH  15  26
ATOM     16  O   UNL     1       1.825   7.699  20.765  0.00  0.00    +0.000 OA
ATOM     17  C   UNL     1       2.145   7.020  19.807  0.00  0.00    +0.000 C 
ATOM     18  C   UNL     1       1.902   5.589  19.732  0.00  0.00    +0.000 A 
ATOM     19  C   UNL     1       1.289   4.770  20.668  0.00  0.00    +0.000 A 
ATOM     20  C   UNL     1       1.165   3.417  20.351  0.00  0.00    +0.000 A 
ATOM     21  C   UNL     1       1.649   2.937  19.125  0.00  0.00    +0.000 A 
ATOM     22  F   UNL     1       1.516   1.636  18.836  0.00  0.00    +0.000 F 
ATOM     23  C   UNL     1       2.264   3.780  18.198  0.00  0.00    +0.000 A 
ATOM     24  C   UNL     1       2.391   5.122  18.518  0.00  0.00    +0.000 A 
ATOM     25  C   UNL     1       3.018   6.204  17.697  0.00  0.00    +0.000 C 
ATOM     26  C   UNL     1       2.847   7.493  18.541  0.00  0.00    +0.000 C 
ENDBRANCH  15  26
ENDBRANCH   1  15
TORSDOF 4
ENDMDL
MODEL 2
REMARK VINA RESULT:      -7.6      7.437     10.028
REMARK  Name = 
REMARK  4 active torsions:
REMARK  status: ('A' for Active; 'I' for Inactive)
REMARK    1  A    between atoms: C_11  and  C_12
REMARK    2  A    between atoms: C_12  and  C_13
REMARK    3  A    between atoms: C_13  and  N_14
REMARK    4  A    between atoms: N_17  and  C_18
REMARK                            x       y       z     vdW  Elec       q    Type
REMARK                         _______ _______ _______ _____ _____    ______ ____
ROOT
ATOM      1  C   UNL     1       8.142   7.969  18.400  0.00  0.00    +0.000 C 
ENDROOT
BRANCH   1   2
ATOM      2  N   UNL     1       7.792   6.850  17.502  0.00  0.00    +0.000 NA
ATOM      3  C   UNL     1       7.672   5.547  18.207  0.00  0.00    +0.000 C 
ATOM      4  C   UNL     1       6.519   5.479  19.230  0.00  0.00    +0.000 C 
ATOM      5  N   UNL     1       5.246   5.803  18.573  0.00  0.00    +0.000 N 
ATOM      6  C   UNL     1       5.235   7.057  17.803  0.00  0.00    +0.000 C 
ATOM      7  C   UNL     1       6.474   7.122  16.860  0.00  0.00    +0.000 C 
BRANCH   5   8
ATOM      8  C   UNL     1       4.179   4.930  18.569  0.00  0.00    +0.000 A 
ATOM      9  C   UNL     1       3.033   5.176  17.796  0.00  0.00    +0.000 A 
ATOM     10  C   UNL     1       1.927   4.319  17.828  0.00  0.00    +0.000 A 
ATOM     11  C   UNL     1       1.954   3.186  18.633  0.00  0.00    +0.000 A 
ATOM     12 CL   UNL     1       0.588   2.144  18.704  0.00  0.00    +0.000 Cl
ATOM     13  C   UNL     1       3.082   2.898  19.389  0.00  0.00    +0.000 A 
ATOM     14  C   UNL     1       4.179   3.764  19.350  0.00  0.00    +0.000 A 
ENDBRANCH   5   8
ENDBRANCH   1   2
BRANCH   1  15
ATOM     15  C   UNL     1       8.027   9.351  17.742  0.00  0.00    +0.000 C 
BRANCH  15  26
ATOM     16  O   UNL     1       8.419  12.361  17.020  0.00  0.00    +0.000 OA
ATOM     17  C   UNL     1       8.754  11.775  18.032  0.00  0.00    +0.000 C 
ATOM     18  C   UNL     1       8.838  12.420  19.332  0.00  0.00    +0.000 A 
ATOM     19  C   UNL     1       8.562  13.740  19.658  0.00  0.00    +0.000 A 
ATOM     20  C   UNL     1       8.711  14.113  20.994  0.00  0.00    +0.000 A 
ATOM     21  C   UNL     1       9.122  13.169  21.944  0.00  0.00    +0.000 A 
ATOM     22  F   UNL     1       9.254  13.546  23.223  0.00  0.00    +0.000 F 
ATOM     23  C   UNL     1       9.397  11.846  21.593  0.00  0.00    +0.000 A 
ATOM     24  C   UNL     1       9.254  11.478  20.265  0.00  0.00    +0.000 A 
ATOM     25  C   UNL     1       9.498  10.134  19.656  0.00  0.00    +0.000 C 
ATOM     26  C   UNL     1       9.151  10.309  18.155  0.00  0.00    +0.000 C 
ENDBRANCH  15  26
ENDBRANCH   1  15
TORSDOF 4
ENDMDL
MODEL 3
REMARK VINA RESULT:      -7.2      2.307      3.373
REMARK  Name = 
REMARK  4 active torsions:
REMARK  status: ('A' for Active; 'I' for Inactive)
REMARK    1  A    between atoms: C_11  and  C_12
REMARK    2  A    between atoms: C_12  and  C_13
REMARK    3  A    between atoms: C_13  and  N_14
REMARK    4  A    between atoms: N_17  and  C_18
REMARK                            x       y       z     vdW  Elec       q    Type
REMARK                         _______ _______ _______ _____ _____    ______ ____
ROOT
ATOM      1  C   UNL     1       1.186   7.366  20.796  0.00  0.00    +0.000 C 
ENDROOT
BRANCH   1   2
ATOM      2  N   UNL     1       1.687   8.745  20.965  0.00  0.00    +0.000 NA
ATOM      3  C   UNL     1       1.069   9.713  20.022  0.00  0.00    +0.000 C 
ATOM      4  C   UNL     1      -0.448   9.921  20.223  0.00  0.00    +0.000 C 
ATOM      5  N   UNL     1      -0.718  10.337  21.606  0.00  0.00    +0.000 N 
ATOM      6  C   UNL     1      -0.128   9.482  22.648  0.00  0.00    +0.000 C 
ATOM      7  C   UNL     1       1.377   9.220  22.344  0.00  0.00    +0.000 C 
BRANCH   5   8
ATOM      8  C   UNL     1      -1.365  11.517  21.904  0.00  0.00    +0.000 A 
ATOM      9  C   UNL     1      -1.374  12.596  21.007  0.00  0.00    +0.000 A 
ATOM     10  C   UNL     1      -1.986  13.813  21.327  0.00  0.00    +0.000 A 
ATOM     11  C   UNL     1      -2.614  13.968  22.557  0.00  0.00    +0.000 A 
ATOM     12 CL   UNL     1      -3.341  15.470  22.973  0.00  0.00    +0.000 Cl
ATOM     13  C   UNL     1      -2.648  12.912  23.458  0.00  0.00    +0.000 A 
ATOM     14  C   UNL     1      -2.031  11.703  23.127  0.00  0.00    +0.000 A 
ENDBRANCH   5   8
ENDBRANCH   1   2
BRANCH   1  15
ATOM     15  C   UNL     1       2.238   6.386  20.258  0.00  0.00    +0.000 C 
BRANCH  15  26
ATOM     16  O   UNL     1       3.171   8.226  17.917  0.00  0.00    +0.000 OA
ATOM     17  C   UNL     1       3.113   7.011  17.949  0.00  0.00    +0.000 C 
ATOM     18  C   UNL     1       4.007   6.153  17.188  0.00  0.00    +0.000 A 
ATOM     19  C   UNL     1       5.040   6.523  16.341  0.00  0.00    +0.000 A 
ATOM     20  C   UNL     1       5.765   5.499  15.731  0.00  0.00    +0.000 A 
ATOM     21  C   UNL     1       5.438   4.160  15.987  0.00  0.00    +0.000 A 
ATOM     22  F   UNL     1       6.150   3.191  15.396  0.00  0.00    +0.000 F 
ATOM     23  C   UNL     1       4.392   3.811  16.843  0.00  0.00    +0.000 A 
ATOM     24  C   UNL     1       3.670   4.830  17.443  0.00  0.00    +0.000 A 
ATOM     25  C   UNL     1       2.511   4.701  18.379  0.00  0.00    +0.000 C 
ATOM     26  C   UNL     1       2.132   6.160  18.745  0.00  0.00    +0.000 C 
ENDBRANCH  15  26
ENDBRANCH   1  15
TORSDOF 4
ENDMDL
MODEL 4
REMARK VINA RESULT:      -7.2      7.634     10.456
REMARK  Name = 
REMARK  4 active torsions:
REMARK  status: ('A' for Active; 'I' for Inactive)
REMARK    1  A    between atoms: C_11  and  C_12
REMARK    2  A    between atoms: C_12  and  C_13
REMARK    3  A    between atoms: C_13  and  N_14
REMARK    4  A    between atoms: N_17  and  C_18
REMARK                            x       y       z     vdW  Elec       q    Type
REMARK                         _______ _______ _______ _____ _____    ______ ____
ROOT
ATOM      1  C   UNL     1       8.065   7.927  18.378  0.00  0.00    +0.000 C 
ENDROOT
BRANCH   1   2
ATOM      2  N   UNL     1       7.745   6.767  17.522  0.00  0.00    +0.000 NA
ATOM      3  C   UNL     1       7.610   5.497  18.281  0.00  0.00    +0.000 C 
ATOM      4  C   UNL     1       6.430   5.468  19.275  0.00  0.00    +0.000 C 
ATOM      5  N   UNL     1       5.174   5.757  18.570  0.00  0.00    +0.000 N 
ATOM      6  C   UNL     1       5.180   6.975  17.744  0.00  0.00    +0.000 C 
ATOM      7  C   UNL     1       6.442   7.004  16.834  0.00  0.00    +0.000 C 
BRANCH   5   8
ATOM      8  C   UNL     1       4.110   4.880  18.576  0.00  0.00    +0.000 A 
ATOM      9  C   UNL     1       3.011   5.053  17.722  0.00  0.00    +0.000 A 
ATOM     10  C   UNL     1       1.907   4.194  17.761  0.00  0.00    +0.000 A 
ATOM     11  C   UNL     1       1.889   3.132  18.656  0.00  0.00    +0.000 A 
ATOM     12 CL   UNL     1       0.523   2.090  18.734  0.00  0.00    +0.000 Cl
ATOM     13  C   UNL     1       2.972   2.915  19.497  0.00  0.00    +0.000 A 
ATOM     14  C   UNL     1       4.068   3.781  19.450  0.00  0.00    +0.000 A 
ENDBRANCH   5   8
ENDBRANCH   1   2
BRANCH   1  15
ATOM     15  C   UNL     1       8.521   9.167  17.596  0.00  0.00    +0.000 C 
BRANCH  15  26
ATOM     16  O   UNL     1       9.525   9.974  20.437  0.00  0.00    +0.000 OA
ATOM     17  C   UNL     1       9.330  10.688  19.472  0.00  0.00    +0.000 C 
ATOM     18  C   UNL     1      10.076  11.912  19.226  0.00  0.00    +0.000 A 
ATOM     19  C   UNL     1      11.096  12.465  19.985  0.00  0.00    +0.000 A 
ATOM     20  C   UNL     1      11.664  13.654  19.524  0.00  0.00    +0.000 A 
ATOM     21  C   UNL     1      11.201  14.237  18.336  0.00  0.00    +0.000 A 
ATOM     22  F   UNL     1      11.762  15.375  17.907  0.00  0.00    +0.000 F 
ATOM     23  C   UNL     1      10.171  13.663  17.589  0.00  0.00    +0.000 A 
ATOM     24  C   UNL     1       9.605  12.486  18.052  0.00  0.00    +0.000 A 
ATOM     25  C   UNL     1       8.493  11.700  17.433  0.00  0.00    +0.000 C 
ATOM     26  C   UNL     1       8.305  10.476  18.366  0.00  0.00    +0.000 C 
ENDBRANCH  15  26
ENDBRANCH   1  15
TORSDOF 4
ENDMDL
MODEL 5
REMARK VINA RESULT:      -7.2      2.041      2.548
REMARK  Name = 
REMARK  4 active torsions:
REMARK  status: ('A' for Active; 'I' for Inactive)
REMARK    1  A    between atoms: C_11  and  C_12
REMARK    2  A    between atoms: C_12  and  C_13
REMARK    3  A    between atoms: C_13  and  N_14
REMARK    4  A    between atoms: N_17  and  C_18
REMARK                            x       y       z     vdW  Elec       q    Type
REMARK                         _______ _______ _______ _____ _____    ______ ____
ROOT
ATOM      1  C   UNL     1       1.354   9.687  18.693  0.00  0.00    +0.000 C 
ENDROOT
BRANCH   1   2
ATOM      2  N   UNL     1      -0.042   9.633  19.171  0.00  0.00    +0.000 NA
ATOM      3  C   UNL     1      -0.154   9.377  20.631  0.00  0.00    +0.000 C 
ATOM      4  C   UNL     1       0.422  10.499  21.521  0.00  0.00    +0.000 C 
ATOM      5  N   UNL     1      -0.220  11.779  21.194  0.00  0.00    +0.000 N 
ATOM      6  C   UNL     1      -0.216  12.140  19.768  0.00  0.00    +0.000 C 
ATOM      7  C   UNL     1      -0.708  10.941  18.905  0.00  0.00    +0.000 C 
BRANCH   5   8
ATOM      8  C   UNL     1      -0.896  12.523  22.137  0.00  0.00    +0.000 A 
ATOM      9  C   UNL     1      -2.082  12.060  22.725  0.00  0.00    +0.000 A 
ATOM     10  C   UNL     1      -2.798  12.834  23.646  0.00  0.00    +0.000 A 
ATOM     11  C   UNL     1      -2.329  14.093  24.003  0.00  0.00    +0.000 A 
ATOM     12 CL   UNL     1      -3.217  15.065  25.108  0.00  0.00    +0.000 Cl
ATOM     13  C   UNL     1      -1.143  14.571  23.461  0.00  0.00    +0.000 A 
ATOM     14  C   UNL     1      -0.439  13.788  22.542  0.00  0.00    +0.000 A 
ENDBRANCH   5   8
ENDBRANCH   1   2
BRANCH   1  15
ATOM     15  C   UNL     1       1.763   8.480  17.837  0.00  0.00    +0.000 C 
BRANCH  15  26
ATOM     16  O   UNL     1       1.905   6.040  19.775  0.00  0.00    +0.000 OA
ATOM     17  C   UNL     1       2.672   6.342  18.881  0.00  0.00    +0.000 C 
ATOM     18  C   UNL     1       3.438   5.363  18.127  0.00  0.00    +0.000 A 
ATOM     19  C   UNL     1       3.438   3.982  18.261  0.00  0.00    +0.000 A 
ATOM     20  C   UNL     1       4.262   3.257  17.400  0.00  0.00    +0.000 A 
ATOM     21  C   UNL     1       5.043   3.926  16.447  0.00  0.00    +0.000 A 
ATOM     22  F   UNL     1       5.824   3.211  15.626  0.00  0.00    +0.000 F 
ATOM     23  C   UNL     1       5.028   5.317  16.332  0.00  0.00    +0.000 A 
ATOM     24  C   UNL     1       4.214   6.036  17.192  0.00  0.00    +0.000 A 
ATOM     25  C   UNL     1       4.041   7.520  17.262  0.00  0.00    +0.000 C 
ATOM     26  C   UNL     1       2.993   7.745  18.383  0.00  0.00    +0.000 C 
ENDBRANCH  15  26
ENDBRANCH   1  15
TORSDOF 4
ENDMDL
MODEL 6
REMARK VINA RESULT:      -7.2      3.718      5.119
REMARK  Name = 
REMARK  4 active torsions:
REMARK  status: ('A' for Active; 'I' for Inactive)
REMARK    1  A    between atoms: C_11  and  C_12
REMARK    2  A    between atoms: C_12  and  C_13
REMARK    3  A    between atoms: C_13  and  N_14
REMARK    4  A    between atoms: N_17  and  C_18
REMARK                            x       y       z     vdW  Elec       q    Type
REMARK                         _______ _______ _______ _____ _____    ______ ____
ROOT
ATOM      1  C   UNL     1       3.844   6.317  18.361  0.00  0.00    +0.000 C 
ENDROOT
BRANCH   1   2
ATOM      2  N   UNL     1       2.371   6.261  18.430  0.00  0.00    +0.000 NA
ATOM      3  C   UNL     1       1.855   6.072  19.811  0.00  0.00    +0.000 C 
ATOM      4  C   UNL     1       2.154   7.243  20.771  0.00  0.00    +0.000 C 
ATOM      5  N   UNL     1       1.625   8.495  20.214  0.00  0.00    +0.000 N 
ATOM      6  C   UNL     1       2.028   8.790  18.830  0.00  0.00    +0.000 C 
ATOM      7  C   UNL     1       1.801   7.544  17.925  0.00  0.00    +0.000 C 
BRANCH   5   8
ATOM      8  C   UNL     1       0.710   9.271  20.893  0.00  0.00    +0.000 A 
ATOM      9  C   UNL     1       0.071  10.359  20.278  0.00  0.00    +0.000 A 
ATOM     10  C   UNL     1      -0.820  11.180  20.979  0.00  0.00    +0.000 A 
ATOM     11  C   UNL     1      -1.097  10.917  22.315  0.00  0.00    +0.000 A 
ATOM     12 CL   UNL     1      -2.166  11.939  23.193  0.00  0.00    +0.000 Cl
ATOM     13  C   UNL     1      -0.504   9.833  22.947  0.00  0.00    +0.000 A 
ATOM     14  C   UNL     1       0.386   9.022  22.237  0.00  0.00    +0.000 A 
ENDBRANCH   5   8
ENDBRANCH   1   2
BRANCH   1  15
ATOM     15  C   UNL     1       4.547   5.310  19.283  0.00  0.00    +0.000 C 
BRANCH  15  26
ATOM     16  O   UNL     1       3.673   3.051  17.316  0.00  0.00    +0.000 OA
ATOM     17  C   UNL     1       4.700   3.702  17.313  0.00  0.00    +0.000 C 
ATOM     18  C   UNL     1       5.440   4.012  16.101  0.00  0.00    +0.000 A 
ATOM     19  C   UNL     1       5.136   3.661  14.794  0.00  0.00    +0.000 A 
ATOM     20  C   UNL     1       6.010   4.095  13.796  0.00  0.00    +0.000 A 
ATOM     21  C   UNL     1       7.138   4.855  14.134  0.00  0.00    +0.000 A 
ATOM     22  F   UNL     1       7.962   5.267  13.161  0.00  0.00    +0.000 F 
ATOM     23  C   UNL     1       7.425   5.196  15.457  0.00  0.00    +0.000 A 
ATOM     24  C   UNL     1       6.560   4.759  16.447  0.00  0.00    +0.000 A 
ATOM     25  C   UNL     1       6.664   4.989  17.921  0.00  0.00    +0.000 C 
ATOM     26  C   UNL     1       5.412   4.299  18.521  0.00  0.00    +0.000 C 
ENDBRANCH  15  26
ENDBRANCH   1  15
TORSDOF 4
ENDMDL
MODEL 7
REMARK VINA RESULT:      -7.1      1.550      1.790
REMARK  Name = 
REMARK  4 active torsions:
REMARK  status: ('A' for Active; 'I' for Inactive)
REMARK    1  A    between atoms: C_11  and  C_12
REMARK    2  A    between atoms: C_12  and  C_13
REMARK    3  A    between atoms: C_13  and  N_14
REMARK    4  A    between atoms: N_17  and  C_18
REMARK                            x       y       z     vdW  Elec       q    Type
REMARK                         _______ _______ _______ _____ _____    ______ ____
ROOT
ATOM      1  C   UNL     1       1.308   9.676  19.061  0.00  0.00    +0.000 C 
ENDROOT
BRANCH   1   2
ATOM      2  N   UNL     1      -0.110   9.731  19.470  0.00  0.00    +0.000 NA
ATOM      3  C   UNL     1      -0.306   9.542  20.931  0.00  0.00    +0.000 C 
ATOM      4  C   UNL     1       0.300  10.660  21.807  0.00  0.00    +0.000 C 
ATOM      5  N   UNL     1      -0.241  11.964  21.400  0.00  0.00    +0.000 N 
ATOM      6  C   UNL     1      -0.145  12.266  19.963  0.00  0.00    +0.000 C 
ATOM      7  C   UNL     1      -0.675  11.067  19.123  0.00  0.00    +0.000 C 
BRANCH   5   8
ATOM      8  C   UNL     1      -0.909  12.788  22.280  0.00  0.00    +0.000 A 
ATOM      9  C   UNL     1      -0.404  14.049  22.633  0.00  0.00    +0.000 A 
ATOM     10  C   UNL     1      -1.054  14.867  23.564  0.00  0.00    +0.000 A 
ATOM     11  C   UNL     1      -2.235  14.437  24.156  0.00  0.00    +0.000 A 
ATOM     12 CL   UNL     1      -3.023  15.420  25.326  0.00  0.00    +0.000 Cl
ATOM     13  C   UNL     1      -2.777  13.206  23.810  0.00  0.00    +0.000 A 
ATOM     14  C   UNL     1      -2.118  12.398  22.880  0.00  0.00    +0.000 A 
ENDBRANCH   5   8
ENDBRANCH   1   2
BRANCH   1  15
ATOM     15  C   UNL     1       1.637   8.506  18.123  0.00  0.00    +0.000 C 
BRANCH  15  26
ATOM     16  O   UNL     1       1.592   6.938  20.820  0.00  0.00    +0.000 OA
ATOM     17  C   UNL     1       2.106   6.616  19.765  0.00  0.00    +0.000 C 
ATOM     18  C   UNL     1       2.262   5.232  19.348  0.00  0.00    +0.000 A 
ATOM     19  C   UNL     1       1.872   4.082  20.018  0.00  0.00    +0.000 A 
ATOM     20  C   UNL     1       2.128   2.861  19.393  0.00  0.00    +0.000 A 
ATOM     21  C   UNL     1       2.751   2.832  18.138  0.00  0.00    +0.000 A 
ATOM     22  F   UNL     1       2.982   1.650  17.553  0.00  0.00    +0.000 F 
ATOM     23  C   UNL     1       3.136   4.003  17.483  0.00  0.00    +0.000 A 
ATOM     24  C   UNL     1       2.887   5.214  18.107  0.00  0.00    +0.000 A 
ATOM     25  C   UNL     1       3.215   6.585  17.608  0.00  0.00    +0.000 C 
ATOM     26  C   UNL     1       2.682   7.545  18.704  0.00  0.00    +0.000 C 
ENDBRANCH  15  26
ENDBRANCH   1  15
TORSDOF 4
ENDMDL
MODEL 8
REMARK VINA RESULT:      -7.1      1.832      2.694
REMARK  Name = 
REMARK  4 active torsions:
REMARK  status: ('A' for Active; 'I' for Inactive)
REMARK    1  A    between atoms: C_11  and  C_12
REMARK    2  A    between atoms: C_12  and  C_13
REMARK    3  A    between atoms: C_13  and  N_14
REMARK    4  A    between atoms: N_17  and  C_18
REMARK                            x       y       z     vdW  Elec       q    Type
REMARK                         _______ _______ _______ _____ _____    ______ ____
ROOT
ATOM      1  C   UNL     1       1.502   8.527  20.888  0.00  0.00    +0.000 C 
ENDROOT
BRANCH   1   2
ATOM      2  N   UNL     1       0.038   8.711  20.820  0.00  0.00    +0.000 NA
ATOM      3  C   UNL     1      -0.611   8.749  22.157  0.00  0.00    +0.000 C 
ATOM      4  C   UNL     1      -0.200   9.951  23.033  0.00  0.00    +0.000 C 
ATOM      5  N   UNL     1      -0.467  11.207  22.319  0.00  0.00    +0.000 N 
ATOM      6  C   UNL     1       0.089  11.290  20.960  0.00  0.00    +0.000 C 
ATOM      7  C   UNL     1      -0.268  10.008  20.150  0.00  0.00    +0.000 C 
BRANCH   5   8
ATOM      8  C   UNL     1      -1.293  12.183  22.835  0.00  0.00    +0.000 A 
ATOM      9  C   UNL     1      -0.899  13.528  22.880  0.00  0.00    +0.000 A 
ATOM     10  C   UNL     1      -1.713  14.514  23.449  0.00  0.00    +0.000 A 
ATOM     11  C   UNL     1      -2.950  14.168  23.979  0.00  0.00    +0.000 A 
ATOM     12 CL   UNL     1      -3.944  15.366  24.710  0.00  0.00    +0.000 Cl
ATOM     13  C   UNL     1      -3.383  12.850  23.927  0.00  0.00    +0.000 A 
ATOM     14  C   UNL     1      -2.560  11.874  23.357  0.00  0.00    +0.000 A 
ENDBRANCH   5   8
ENDBRANCH   1   2
BRANCH   1  15
ATOM     15  C   UNL     1       1.935   7.062  21.043  0.00  0.00    +0.000 C 
BRANCH  15  26
ATOM     16  O   UNL     1       2.711   7.075  18.021  0.00  0.00    +0.000 OA
ATOM     17  C   UNL     1       2.374   6.133  18.713  0.00  0.00    +0.000 C 
ATOM     18  C   UNL     1       2.837   4.774  18.482  0.00  0.00    +0.000 A 
ATOM     19  C   UNL     1       3.704   4.314  17.502  0.00  0.00    +0.000 A 
ATOM     20  C   UNL     1       4.002   2.951  17.501  0.00  0.00    +0.000 A 
ATOM     21  C   UNL     1       3.435   2.108  18.466  0.00  0.00    +0.000 A 
ATOM     22  F   UNL     1       3.739   0.803  18.451  0.00  0.00    +0.000 F 
ATOM     23  C   UNL     1       2.563   2.593  19.443  0.00  0.00    +0.000 A 
ATOM     24  C   UNL     1       2.263   3.945  19.439  0.00  0.00    +0.000 A 
ATOM     25  C   UNL     1       1.357   4.684  20.371  0.00  0.00    +0.000 C 
ATOM     26  C   UNL     1       1.431   6.162  19.908  0.00  0.00    +0.000 C 
ENDBRANCH  15  26
ENDBRANCH   1  15
TORSDOF 4
ENDMDL
MODEL 9
REMARK VINA RESULT:      -7.1      3.591      5.066
REMARK  Name = 
REMARK  4 active torsions:
REMARK  status: ('A' for Active; 'I' for Inactive)
REMARK    1  A    between atoms: C_11  and  C_12
REMARK    2  A    between atoms: C_12  and  C_13
REMARK    3  A    between atoms: C_13  and  N_14
REMARK    4  A    between atoms: N_17  and  C_18
REMARK                            x       y       z     vdW  Elec       q    Type
REMARK                         _______ _______ _______ _____ _____    ______ ____
ROOT
ATOM      1  C   UNL     1       3.903   6.260  18.821  0.00  0.00    +0.000 C 
ENDROOT
BRANCH   1   2
ATOM      2  N   UNL     1       2.444   6.224  18.602  0.00  0.00    +0.000 NA
ATOM      3  C   UNL     1       1.659   6.439  19.845  0.00  0.00    +0.000 C 
ATOM      4  C   UNL     1       1.831   7.837  20.476  0.00  0.00    +0.000 C 
ATOM      5  N   UNL     1       1.492   8.875  19.493  0.00  0.00    +0.000 N 
ATOM      6  C   UNL     1       2.174   8.760  18.194  0.00  0.00    +0.000 C 
ATOM      7  C   UNL     1       2.058   7.306  17.650  0.00  0.00    +0.000 C 
BRANCH   5   8
ATOM      8  C   UNL     1       0.507   9.812  19.725  0.00  0.00    +0.000 A 
ATOM      9  C   UNL     1      -0.441  10.137  18.743  0.00  0.00    +0.000 A 
ATOM     10  C   UNL     1      -1.411  11.124  18.955  0.00  0.00    +0.000 A 
ATOM     11  C   UNL     1      -1.454  11.800  20.169  0.00  0.00    +0.000 A 
ATOM     12 CL   UNL     1      -2.621  13.036  20.428  0.00  0.00    +0.000 Cl
ATOM     13  C   UNL     1      -0.548  11.484  21.172  0.00  0.00    +0.000 A 
ATOM     14  C   UNL     1       0.416  10.498  20.946  0.00  0.00    +0.000 A 
ENDBRANCH   5   8
ENDBRANCH   1   2
BRANCH   1  15
ATOM     15  C   UNL     1       4.437   5.076  19.640  0.00  0.00    +0.000 C 
BRANCH  15  26
ATOM     16  O   UNL     1       3.474   3.045  17.477  0.00  0.00    +0.000 OA
ATOM     17  C   UNL     1       4.535   3.636  17.542  0.00  0.00    +0.000 C 
ATOM     18  C   UNL     1       5.310   4.008  16.369  0.00  0.00    +0.000 A 
ATOM     19  C   UNL     1       5.009   3.787  15.033  0.00  0.00    +0.000 A 
ATOM     20  C   UNL     1       5.921   4.255  14.086  0.00  0.00    +0.000 A 
ATOM     21  C   UNL     1       7.083   4.921  14.501  0.00  0.00    +0.000 A 
ATOM     22  F   UNL     1       7.943   5.368  13.577  0.00  0.00    +0.000 F 
ATOM     23  C   UNL     1       7.366   5.130  15.852  0.00  0.00    +0.000 A 
ATOM     24  C   UNL     1       6.462   4.659  16.791  0.00  0.00    +0.000 A 
ATOM     25  C   UNL     1       6.556   4.756  18.280  0.00  0.00    +0.000 C 
ATOM     26  C   UNL     1       5.259   4.088  18.804  0.00  0.00    +0.000 C 
ENDBRANCH  15  26
ENDBRANCH   1  15
TORSDOF 4
ENDMDL
