MODEL 1
REMARK VINA RESULT:      -6.7      0.000      0.000
REMARK  Name = 
REMARK  9 active torsions:
REMARK  status: ('A' for Active; 'I' for Inactive)
REMARK    1  A    between atoms: C_1  and  O_2
REMARK    2  A    between atoms: O_2  and  C_3
REMARK    3  A    between atoms: C_6  and  S_7
REMARK    4  A    between atoms: S_7  and  N_10
REMARK    5  A    between atoms: C_19  and  C_20
REMARK    6  A    between atoms: N_22  and  C_23
REMARK    7  A    between atoms: C_27  and  C_28
REMARK    8  A    between atoms: C_31  and  O_32
REMARK    9  A    between atoms: O_32  and  C_33
REMARK                            x       y       z     vdW  Elec       q    Type
REMARK                         _______ _______ _______ _____ _____    ______ ____
ROOT
ATOM      1  N   UNL     1       0.316  14.015  20.714  0.00  0.00    +0.000 NA
ATOM      2  C   UNL     1       0.676  15.409  20.332  0.00  0.00    +0.000 C 
ATOM      3  C   UNL     1       1.957  15.463  19.519  0.00  0.00    +0.000 A 
ATOM      4  C   UNL     1       2.060  15.743  18.159  0.00  0.00    +0.000 A 
ATOM      5  C   UNL     1       3.302  15.635  17.516  0.00  0.00    +0.000 A 
ATOM      6  C   UNL     1       4.460  15.384  18.256  0.00  0.00    +0.000 A 
ATOM      7  C   UNL     1       4.348  15.001  19.586  0.00  0.00    +0.000 A 
ATOM      8  C   UNL     1       3.062  14.846  20.106  0.00  0.00    +0.000 A 
ATOM      9  C   UNL     1       2.667  13.596  20.892  0.00  0.00    +0.000 C 
ATOM     10  C   UNL     1       1.322  12.928  20.277  0.00  0.00    +0.000 C 
ENDROOT
BRANCH  10  11
ATOM     11  C   UNL     1       0.186  12.700  19.053  0.00  0.00    +0.000 C 
ATOM     12  O   UNL     1       0.106  13.436  18.061  0.00  0.00    +0.000 OA
ATOM     13  N   UNL     1      -0.698  11.635  19.250  0.00  0.00    +0.000 N 
ATOM     14  H   UNL     1      -0.394  10.877  19.846  0.00  0.00    +0.000 HD
BRANCH  13  15
ATOM     15  C   UNL     1      -1.899  11.441  18.501  0.00  0.00    +0.000 A 
ATOM     16  C   UNL     1      -3.146  11.866  18.979  0.00  0.00    +0.000 A 
ATOM     17  C   UNL     1      -4.322  11.645  18.259  0.00  0.00    +0.000 A 
ATOM     18  C   UNL     1      -4.270  11.029  17.015  0.00  0.00    +0.000 A 
ATOM     19  C   UNL     1      -3.041  10.606  16.498  0.00  0.00    +0.000 A 
ATOM     20  C   UNL     1      -3.002  10.009  15.119  0.00  0.00    +0.000 C 
ATOM     21  C   UNL     1      -1.864  10.778  17.264  0.00  0.00    +0.000 A 
ENDBRANCH  13  15
ENDBRANCH  10  11
BRANCH   1  22
ATOM     22  S   UNL     1      -0.382  13.660  22.202  0.00  0.00    +0.000 S 
ATOM     23  O   UNL     1       0.125  14.622  23.156  0.00  0.00    +0.000 OA
ATOM     24  O   UNL     1      -0.190  12.240  22.420  0.00  0.00    +0.000 OA
BRANCH  22  28
ATOM     25  C   UNL     1      -4.879  14.111  21.566  0.00  0.00    +0.000 A 
ATOM     26  C   UNL     1      -3.967  14.916  20.856  0.00  0.00    +0.000 A 
ATOM     27  C   UNL     1      -2.594  14.815  21.076  0.00  0.00    +0.000 A 
ATOM     28  C   UNL     1      -2.121  13.925  22.026  0.00  0.00    +0.000 A 
ATOM     29  C   UNL     1      -3.002  13.151  22.763  0.00  0.00    +0.000 A 
ATOM     30  C   UNL     1      -4.382  13.211  22.535  0.00  0.00    +0.000 A 
BRANCH  25  32
ATOM     31  C   UNL     1      -6.771  13.222  20.431  0.00  0.00    +0.000 C 
ATOM     32  O   UNL     1      -6.231  14.173  21.350  0.00  0.00    +0.000 OA
ENDBRANCH  25  32
BRANCH  30  33
ATOM     33  O   UNL     1      -5.038  12.305  23.317  0.00  0.00    +0.000 OA
ATOM     34  C   UNL     1      -4.948  12.343  24.728  0.00  0.00    +0.000 C 
ENDBRANCH  30  33
ENDBRANCH  22  28
ENDBRANCH   1  22
TORSDOF 6
ENDMDL
MODEL 2
REMARK VINA RESULT:      -6.6      8.273     11.458
REMARK  Name = 
REMARK  9 active torsions:
REMARK  status: ('A' for Active; 'I' for Inactive)
REMARK    1  A    between atoms: C_1  and  O_2
REMARK    2  A    between atoms: O_2  and  C_3
REMARK    3  A    between atoms: C_6  and  S_7
REMARK    4  A    between atoms: S_7  and  N_10
REMARK    5  A    between atoms: C_19  and  C_20
REMARK    6  A    between atoms: N_22  and  C_23
REMARK    7  A    between atoms: C_27  and  C_28
REMARK    8  A    between atoms: C_31  and  O_32
REMARK    9  A    between atoms: O_32  and  C_33
REMARK                            x       y       z     vdW  Elec       q    Type
REMARK                         _______ _______ _______ _____ _____    ______ ____
ROOT
ATOM      1  N   UNL     1       3.938   4.837  17.418  0.00  0.00    +0.000 NA
ATOM      2  C   UNL     1       2.893   3.778  17.347  0.00  0.00    +0.000 C 
ATOM      3  C   UNL     1       2.395   3.377  18.724  0.00  0.00    +0.000 A 
ATOM      4  C   UNL     1       1.149   3.676  19.269  0.00  0.00    +0.000 A 
ATOM      5  C   UNL     1       0.874   3.345  20.604  0.00  0.00    +0.000 A 
ATOM      6  C   UNL     1       1.789   2.596  21.348  0.00  0.00    +0.000 A 
ATOM      7  C   UNL     1       3.067   2.391  20.847  0.00  0.00    +0.000 A 
ATOM      8  C   UNL     1       3.385   2.988  19.627  0.00  0.00    +0.000 A 
ATOM      9  C   UNL     1       4.670   3.796  19.446  0.00  0.00    +0.000 C 
ATOM     10  C   UNL     1       4.349   5.267  18.843  0.00  0.00    +0.000 C 
ENDROOT
BRANCH  10  11
ATOM     11  C   UNL     1       3.315   6.554  18.500  0.00  0.00    +0.000 C 
ATOM     12  O   UNL     1       3.311   7.144  17.412  0.00  0.00    +0.000 OA
ATOM     13  N   UNL     1       2.477   6.943  19.550  0.00  0.00    +0.000 N 
ATOM     14  H   UNL     1       2.256   6.252  20.254  0.00  0.00    +0.000 HD
BRANCH  13  15
ATOM     15  C   UNL     1       1.743   8.168  19.577  0.00  0.00    +0.000 A 
ATOM     16  C   UNL     1       1.623   8.984  18.444  0.00  0.00    +0.000 A 
ATOM     17  C   UNL     1       0.932  10.197  18.484  0.00  0.00    +0.000 A 
ATOM     18  C   UNL     1       0.304  10.601  19.655  0.00  0.00    +0.000 A 
ATOM     19  C   UNL     1       0.388   9.805  20.802  0.00  0.00    +0.000 A 
ATOM     20  C   UNL     1      -0.361  10.228  22.035  0.00  0.00    +0.000 C 
ATOM     21  C   UNL     1       1.143   8.609  20.768  0.00  0.00    +0.000 A 
ENDBRANCH  13  15
ENDBRANCH  10  11
BRANCH   1  22
ATOM     22  S   UNL     1       5.241   4.864  16.356  0.00  0.00    +0.000 S 
ATOM     23  O   UNL     1       4.768   5.422  15.108  0.00  0.00    +0.000 OA
ATOM     24  O   UNL     1       5.831   3.540  16.391  0.00  0.00    +0.000 OA
BRANCH  22  28
ATOM     25  C   UNL     1       8.134   7.779  18.347  0.00  0.00    +0.000 A 
ATOM     26  C   UNL     1       7.279   8.206  17.313  0.00  0.00    +0.000 A 
ATOM     27  C   UNL     1       6.423   7.313  16.670  0.00  0.00    +0.000 A 
ATOM     28  C   UNL     1       6.432   5.977  17.038  0.00  0.00    +0.000 A 
ATOM     29  C   UNL     1       7.293   5.528  18.027  0.00  0.00    +0.000 A 
ATOM     30  C   UNL     1       8.136   6.413  18.708  0.00  0.00    +0.000 A 
BRANCH  25  32
ATOM     31  C   UNL     1       8.927  10.008  18.595  0.00  0.00    +0.000 C 
ATOM     32  O   UNL     1       8.966   8.641  19.011  0.00  0.00    +0.000 OA
ENDBRANCH  25  32
BRANCH  30  33
ATOM     33  O   UNL     1       8.827   5.760  19.687  0.00  0.00    +0.000 OA
ATOM     34  C   UNL     1       8.170   5.198  20.808  0.00  0.00    +0.000 C 
ENDBRANCH  30  33
ENDBRANCH  22  28
ENDBRANCH   1  22
TORSDOF 6
ENDMDL
MODEL 3
REMARK VINA RESULT:      -6.6      8.978     12.369
REMARK  Name = 
REMARK  9 active torsions:
REMARK  status: ('A' for Active; 'I' for Inactive)
REMARK    1  A    between atoms: C_1  and  O_2
REMARK    2  A    between atoms: O_2  and  C_3
REMARK    3  A    between atoms: C_6  and  S_7
REMARK    4  A    between atoms: S_7  and  N_10
REMARK    5  A    between atoms: C_19  and  C_20
REMARK    6  A    between atoms: N_22  and  C_23
REMARK    7  A    between atoms: C_27  and  C_28
REMARK    8  A    between atoms: C_31  and  O_32
REMARK    9  A    between atoms: O_32  and  C_33
REMARK                            x       y       z     vdW  Elec       q    Type
REMARK                         _______ _______ _______ _____ _____    ______ ____
ROOT
ATOM      1  N   UNL     1       4.358   5.333  17.967  0.00  0.00    +0.000 NA
ATOM      2  C   UNL     1       3.524   4.414  17.143  0.00  0.00    +0.000 C 
ATOM      3  C   UNL     1       2.602   3.563  17.999  0.00  0.00    +0.000 A 
ATOM      4  C   UNL     1       1.220   3.694  18.103  0.00  0.00    +0.000 A 
ATOM      5  C   UNL     1       0.513   2.914  19.030  0.00  0.00    +0.000 A 
ATOM      6  C   UNL     1       1.166   1.911  19.751  0.00  0.00    +0.000 A 
ATOM      7  C   UNL     1       2.552   1.849  19.729  0.00  0.00    +0.000 A 
ATOM      8  C   UNL     1       3.230   2.834  19.009  0.00  0.00    +0.000 A 
ATOM      9  C   UNL     1       4.404   3.600  19.618  0.00  0.00    +0.000 C 
ATOM     10  C   UNL     1       4.176   5.201  19.495  0.00  0.00    +0.000 C 
ENDROOT
BRANCH  10  11
ATOM     11  C   UNL     1       3.214   6.565  19.262  0.00  0.00    +0.000 C 
ATOM     12  O   UNL     1       3.333   7.317  18.286  0.00  0.00    +0.000 OA
ATOM     13  N   UNL     1       2.284   6.820  20.276  0.00  0.00    +0.000 N 
ATOM     14  H   UNL     1       1.977   6.037  20.838  0.00  0.00    +0.000 HD
BRANCH  13  15
ATOM     15  C   UNL     1       1.581   8.054  20.426  0.00  0.00    +0.000 A 
ATOM     16  C   UNL     1       1.455   8.968  19.371  0.00  0.00    +0.000 A 
ATOM     17  C   UNL     1       0.795  10.188  19.532  0.00  0.00    +0.000 A 
ATOM     18  C   UNL     1       0.204  10.503  20.748  0.00  0.00    +0.000 A 
ATOM     19  C   UNL     1       0.295   9.608  21.820  0.00  0.00    +0.000 A 
ATOM     20  C   UNL     1      -0.417   9.940  23.103  0.00  0.00    +0.000 C 
ATOM     21  C   UNL     1       1.019   8.403  21.665  0.00  0.00    +0.000 A 
ENDBRANCH  13  15
ENDBRANCH  10  11
BRANCH   1  22
ATOM     22  S   UNL     1       5.948   5.690  17.554  0.00  0.00    +0.000 S 
ATOM     23  O   UNL     1       6.801   5.033  18.519  0.00  0.00    +0.000 OA
ATOM     24  O   UNL     1       6.016   7.127  17.373  0.00  0.00    +0.000 OA
BRANCH  22  28
ATOM     25  C   UNL     1       6.550   4.017  13.350  0.00  0.00    +0.000 A 
ATOM     26  C   UNL     1       5.560   3.489  14.201  0.00  0.00    +0.000 A 
ATOM     27  C   UNL     1       5.398   3.965  15.501  0.00  0.00    +0.000 A 
ATOM     28  C   UNL     1       6.242   4.957  15.973  0.00  0.00    +0.000 A 
ATOM     29  C   UNL     1       7.247   5.465  15.166  0.00  0.00    +0.000 A 
ATOM     30  C   UNL     1       7.406   5.027  13.847  0.00  0.00    +0.000 A 
BRANCH  25  32
ATOM     31  C   UNL     1       5.977   2.419  11.684  0.00  0.00    +0.000 C 
ATOM     32  O   UNL     1       6.713   3.585  12.060  0.00  0.00    +0.000 OA
ENDBRANCH  25  32
BRANCH  30  33
ATOM     33  O   UNL     1       8.402   5.723  13.225  0.00  0.00    +0.000 OA
ATOM     34  C   UNL     1       8.245   6.224  11.911  0.00  0.00    +0.000 C 
ENDBRANCH  30  33
ENDBRANCH  22  28
ENDBRANCH   1  22
TORSDOF 6
ENDMDL
MODEL 4
REMARK VINA RESULT:      -6.5      2.726      5.920
REMARK  Name = 
REMARK  9 active torsions:
REMARK  status: ('A' for Active; 'I' for Inactive)
REMARK    1  A    between atoms: C_1  and  O_2
REMARK    2  A    between atoms: O_2  and  C_3
REMARK    3  A    between atoms: C_6  and  S_7
REMARK    4  A    between atoms: S_7  and  N_10
REMARK    5  A    between atoms: C_19  and  C_20
REMARK    6  A    between atoms: N_22  and  C_23
REMARK    7  A    between atoms: C_27  and  C_28
REMARK    8  A    between atoms: C_31  and  O_32
REMARK    9  A    between atoms: O_32  and  C_33
REMARK                            x       y       z     vdW  Elec       q    Type
REMARK                         _______ _______ _______ _____ _____    ______ ____
ROOT
ATOM      1  N   UNL     1      -0.398  13.376  21.289  0.00  0.00    +0.000 NA
ATOM      2  C   UNL     1      -0.566  12.788  22.647  0.00  0.00    +0.000 C 
ATOM      3  C   UNL     1      -1.495  13.618  23.516  0.00  0.00    +0.000 A 
ATOM      4  C   UNL     1      -2.786  13.273  23.905  0.00  0.00    +0.000 A 
ATOM      5  C   UNL     1      -3.573  14.197  24.608  0.00  0.00    +0.000 A 
ATOM      6  C   UNL     1      -3.023  15.407  25.040  0.00  0.00    +0.000 A 
ATOM      7  C   UNL     1      -1.779  15.797  24.566  0.00  0.00    +0.000 A 
ATOM      8  C   UNL     1      -1.153  14.966  23.636  0.00  0.00    +0.000 A 
ATOM      9  C   UNL     1      -0.562  15.521  22.341  0.00  0.00    +0.000 C 
ATOM     10  C   UNL     1      -1.131  14.715  21.053  0.00  0.00    +0.000 C 
ENDROOT
BRANCH  10  11
ATOM     11  C   UNL     1      -2.242  13.703  20.288  0.00  0.00    +0.000 C 
ATOM     12  O   UNL     1      -3.391  13.522  20.708  0.00  0.00    +0.000 OA
ATOM     13  N   UNL     1      -1.762  13.040  19.153  0.00  0.00    +0.000 N 
ATOM     14  H   UNL     1      -0.990  13.463  18.655  0.00  0.00    +0.000 HD
BRANCH  13  15
ATOM     15  C   UNL     1      -2.422  11.937  18.530  0.00  0.00    +0.000 A 
ATOM     16  C   UNL     1      -1.714  10.950  17.832  0.00  0.00    +0.000 A 
ATOM     17  C   UNL     1      -2.366   9.890  17.197  0.00  0.00    +0.000 A 
ATOM     18  C   UNL     1      -3.746   9.772  17.285  0.00  0.00    +0.000 A 
ATOM     19  C   UNL     1      -4.486  10.730  17.986  0.00  0.00    +0.000 A 
ATOM     20  C   UNL     1      -5.970  10.539  18.128  0.00  0.00    +0.000 C 
ATOM     21  C   UNL     1      -3.821  11.833  18.573  0.00  0.00    +0.000 A 
ENDBRANCH  13  15
ENDBRANCH  10  11
BRANCH   1  22
ATOM     22  S   UNL     1       1.071  13.315  20.476  0.00  0.00    +0.000 S 
ATOM     23  O   UNL     1       2.117  13.452  21.466  0.00  0.00    +0.000 OA
ATOM     24  O   UNL     1       0.975  14.255  19.376  0.00  0.00    +0.000 OA
BRANCH  22  28
ATOM     25  C   UNL     1       1.649   9.114  18.787  0.00  0.00    +0.000 A 
ATOM     26  C   UNL     1       1.977  10.249  18.022  0.00  0.00    +0.000 A 
ATOM     27  C   UNL     1       1.764  11.536  18.513  0.00  0.00    +0.000 A 
ATOM     28  C   UNL     1       1.195  11.701  19.766  0.00  0.00    +0.000 A 
ATOM     29  C   UNL     1       0.829  10.598  20.520  0.00  0.00    +0.000 A 
ATOM     30  C   UNL     1       1.065   9.298  20.061  0.00  0.00    +0.000 A 
BRANCH  25  32
ATOM     31  C   UNL     1       3.157   7.584  17.768  0.00  0.00    +0.000 C 
ATOM     32  O   UNL     1       1.872   7.839  18.337  0.00  0.00    +0.000 OA
ENDBRANCH  25  32
BRANCH  30  33
ATOM     33  O   UNL     1       0.698   8.381  21.003  0.00  0.00    +0.000 OA
ATOM     34  C   UNL     1      -0.402   8.606  21.865  0.00  0.00    +0.000 C 
ENDBRANCH  30  33
ENDBRANCH  22  28
ENDBRANCH   1  22
TORSDOF 6
ENDMDL
MODEL 5
REMARK VINA RESULT:      -6.5      0.650      1.252
REMARK  Name = 
REMARK  9 active torsions:
REMARK  status: ('A' for Active; 'I' for Inactive)
REMARK    1  A    between atoms: C_1  and  O_2
REMARK    2  A    between atoms: O_2  and  C_3
REMARK    3  A    between atoms: C_6  and  S_7
REMARK    4  A    between atoms: S_7  and  N_10
REMARK    5  A    between atoms: C_19  and  C_20
REMARK    6  A    between atoms: N_22  and  C_23
REMARK    7  A    between atoms: C_27  and  C_28
REMARK    8  A    between atoms: C_31  and  O_32
REMARK    9  A    between atoms: O_32  and  C_33
REMARK                            x       y       z     vdW  Elec       q    Type
REMARK                         _______ _______ _______ _____ _____    ______ ____
ROOT
ATOM      1  N   UNL     1       0.259  14.095  20.857  0.00  0.00    +0.000 NA
ATOM      2  C   UNL     1       0.484  15.487  20.378  0.00  0.00    +0.000 C 
ATOM      3  C   UNL     1       1.807  15.630  19.647  0.00  0.00    +0.000 A 
ATOM      4  C   UNL     1       1.977  15.811  18.277  0.00  0.00    +0.000 A 
ATOM      5  C   UNL     1       3.268  15.803  17.726  0.00  0.00    +0.000 A 
ATOM      6  C   UNL     1       4.389  15.753  18.559  0.00  0.00    +0.000 A 
ATOM      7  C   UNL     1       4.223  15.467  19.907  0.00  0.00    +0.000 A 
ATOM      8  C   UNL     1       2.930  15.200  20.356  0.00  0.00    +0.000 A 
ATOM      9  C   UNL     1       2.623  13.978  21.221  0.00  0.00    +0.000 C 
ATOM     10  C   UNL     1       1.413  13.106  20.583  0.00  0.00    +0.000 C 
ENDROOT
BRANCH  10  11
ATOM     11  C   UNL     1       0.404  12.646  19.313  0.00  0.00    +0.000 C 
ATOM     12  O   UNL     1       0.372  13.239  18.228  0.00  0.00    +0.000 OA
ATOM     13  N   UNL     1      -0.434  11.558  19.581  0.00  0.00    +0.000 N 
ATOM     14  H   UNL     1      -0.142  10.907  20.298  0.00  0.00    +0.000 HD
BRANCH  13  15
ATOM     15  C   UNL     1      -1.551  11.189  18.771  0.00  0.00    +0.000 A 
ATOM     16  C   UNL     1      -1.464  10.173  17.810  0.00  0.00    +0.000 A 
ATOM     17  C   UNL     1      -2.549   9.837  16.997  0.00  0.00    +0.000 A 
ATOM     18  C   UNL     1      -3.766  10.486  17.160  0.00  0.00    +0.000 A 
ATOM     19  C   UNL     1      -3.895  11.495  18.120  0.00  0.00    +0.000 A 
ATOM     20  C   UNL     1      -5.242  12.131  18.327  0.00  0.00    +0.000 C 
ATOM     21  C   UNL     1      -2.773  11.870  18.895  0.00  0.00    +0.000 A 
ENDBRANCH  13  15
ENDBRANCH  10  11
BRANCH   1  22
ATOM     22  S   UNL     1      -0.502  13.779  22.322  0.00  0.00    +0.000 S 
ATOM     23  O   UNL     1      -0.070  14.793  23.259  0.00  0.00    +0.000 OA
ATOM     24  O   UNL     1      -0.280  12.374  22.609  0.00  0.00    +0.000 OA
BRANCH  22  28
ATOM     25  C   UNL     1      -4.968  14.079  21.434  0.00  0.00    +0.000 A 
ATOM     26  C   UNL     1      -4.049  14.940  20.804  0.00  0.00    +0.000 A 
ATOM     27  C   UNL     1      -2.688  14.884  21.102  0.00  0.00    +0.000 A 
ATOM     28  C   UNL     1      -2.236  13.983  22.052  0.00  0.00    +0.000 A 
ATOM     29  C   UNL     1      -3.128  13.152  22.711  0.00  0.00    +0.000 A 
ATOM     30  C   UNL     1      -4.493  13.168  22.404  0.00  0.00    +0.000 A 
BRANCH  25  32
ATOM     31  C   UNL     1      -6.753  15.145  20.277  0.00  0.00    +0.000 C 
ATOM     32  O   UNL     1      -6.307  14.097  21.140  0.00  0.00    +0.000 OA
ENDBRANCH  25  32
BRANCH  30  33
ATOM     33  O   UNL     1      -5.157  12.213  23.118  0.00  0.00    +0.000 OA
ATOM     34  C   UNL     1      -5.909  12.541  24.271  0.00  0.00    +0.000 C 
ENDBRANCH  30  33
ENDBRANCH  22  28
ENDBRANCH   1  22
TORSDOF 6
ENDMDL
MODEL 6
REMARK VINA RESULT:      -6.4      2.444      6.627
REMARK  Name = 
REMARK  9 active torsions:
REMARK  status: ('A' for Active; 'I' for Inactive)
REMARK    1  A    between atoms: C_1  and  O_2
REMARK    2  A    between atoms: O_2  and  C_3
REMARK    3  A    between atoms: C_6  and  S_7
REMARK    4  A    between atoms: S_7  and  N_10
REMARK    5  A    between atoms: C_19  and  C_20
REMARK    6  A    between atoms: N_22  and  C_23
REMARK    7  A    between atoms: C_27  and  C_28
REMARK    8  A    between atoms: C_31  and  O_32
REMARK    9  A    between atoms: O_32  and  C_33
REMARK                            x       y       z     vdW  Elec       q    Type
REMARK                         _______ _______ _______ _____ _____    ______ ____
ROOT
ATOM      1  N   UNL     1      -3.290  14.145  22.901  0.00  0.00    +0.000 NA
ATOM      2  C   UNL     1      -4.193  13.904  24.061  0.00  0.00    +0.000 C 
ATOM      3  C   UNL     1      -5.557  14.541  23.862  0.00  0.00    +0.000 A 
ATOM      4  C   UNL     1      -6.751  13.870  23.610  0.00  0.00    +0.000 A 
ATOM      5  C   UNL     1      -7.915  14.599  23.325  0.00  0.00    +0.000 A 
ATOM      6  C   UNL     1      -7.916  15.993  23.427  0.00  0.00    +0.000 A 
ATOM      7  C   UNL     1      -6.711  16.666  23.571  0.00  0.00    +0.000 A 
ATOM      8  C   UNL     1      -5.542  15.904  23.565  0.00  0.00    +0.000 A 
ATOM      9  C   UNL     1      -4.348  16.283  22.689  0.00  0.00    +0.000 C 
ATOM     10  C   UNL     1      -3.878  15.026  21.777  0.00  0.00    +0.000 C 
ENDROOT
BRANCH  10  11
ATOM     11  C   UNL     1      -4.126  13.525  21.050  0.00  0.00    +0.000 C 
ATOM     12  O   UNL     1      -4.614  12.558  21.649  0.00  0.00    +0.000 OA
ATOM     13  N   UNL     1      -3.702  13.429  19.721  0.00  0.00    +0.000 N 
ATOM     14  H   UNL     1      -3.651  14.283  19.182  0.00  0.00    +0.000 HD
BRANCH  13  15
ATOM     15  C   UNL     1      -3.551  12.196  19.015  0.00  0.00    +0.000 A 
ATOM     16  C   UNL     1      -4.651  11.502  18.494  0.00  0.00    +0.000 A 
ATOM     17  C   UNL     1      -4.502  10.280  17.834  0.00  0.00    +0.000 A 
ATOM     18  C   UNL     1      -3.235   9.745  17.641  0.00  0.00    +0.000 A 
ATOM     19  C   UNL     1      -2.112  10.417  18.134  0.00  0.00    +0.000 A 
ATOM     20  C   UNL     1      -0.747   9.854  17.848  0.00  0.00    +0.000 C 
ATOM     21  C   UNL     1      -2.280  11.622  18.856  0.00  0.00    +0.000 A 
ENDBRANCH  13  15
ENDBRANCH  10  11
BRANCH   1  22
ATOM     22  S   UNL     1      -1.642  14.406  23.104  0.00  0.00    +0.000 S 
ATOM     23  O   UNL     1      -1.401  14.549  24.523  0.00  0.00    +0.000 OA
ATOM     24  O   UNL     1      -1.276  15.468  22.188  0.00  0.00    +0.000 OA
BRANCH  22  28
ATOM     25  C   UNL     1       0.294  10.621  21.445  0.00  0.00    +0.000 A 
ATOM     26  C   UNL     1      -0.663  10.548  22.475  0.00  0.00    +0.000 A 
ATOM     27  C   UNL     1      -1.228  11.702  23.017  0.00  0.00    +0.000 A 
ATOM     28  C   UNL     1      -0.821  12.942  22.552  0.00  0.00    +0.000 A 
ATOM     29  C   UNL     1       0.147  13.038  21.565  0.00  0.00    +0.000 A 
ATOM     30  C   UNL     1       0.702  11.893  20.983  0.00  0.00    +0.000 A 
BRANCH  25  32
ATOM     31  C   UNL     1       1.477   8.584  21.773  0.00  0.00    +0.000 C 
ATOM     32  O   UNL     1       0.846   9.502  20.878  0.00  0.00    +0.000 OA
ENDBRANCH  25  32
BRANCH  30  33
ATOM     33  O   UNL     1       1.568  12.233  19.985  0.00  0.00    +0.000 OA
ATOM     34  C   UNL     1       1.292  13.300  19.097  0.00  0.00    +0.000 C 
ENDBRANCH  30  33
ENDBRANCH  22  28
ENDBRANCH   1  22
TORSDOF 6
ENDMDL
MODEL 7
REMARK VINA RESULT:      -6.4      0.936      2.075
REMARK  Name = 
REMARK  9 active torsions:
REMARK  status: ('A' for Active; 'I' for Inactive)
REMARK    1  A    between atoms: C_1  and  O_2
REMARK    2  A    between atoms: O_2  and  C_3
REMARK    3  A    between atoms: C_6  and  S_7
REMARK    4  A    between atoms: S_7  and  N_10
REMARK    5  A    between atoms: C_19  and  C_20
REMARK    6  A    between atoms: N_22  and  C_23
REMARK    7  A    between atoms: C_27  and  C_28
REMARK    8  A    between atoms: C_31  and  O_32
REMARK    9  A    between atoms: O_32  and  C_33
REMARK                            x       y       z     vdW  Elec       q    Type
REMARK                         _______ _______ _______ _____ _____    ______ ____
ROOT
ATOM      1  N   UNL     1       0.344  13.967  20.791  0.00  0.00    +0.000 NA
ATOM      2  C   UNL     1       0.599  15.355  20.314  0.00  0.00    +0.000 C 
ATOM      3  C   UNL     1       1.935  15.476  19.602  0.00  0.00    +0.000 A 
ATOM      4  C   UNL     1       2.128  15.653  18.235  0.00  0.00    +0.000 A 
ATOM      5  C   UNL     1       3.426  15.624  17.704  0.00  0.00    +0.000 A 
ATOM      6  C   UNL     1       4.534  15.556  18.553  0.00  0.00    +0.000 A 
ATOM      7  C   UNL     1       4.344  15.274  19.898  0.00  0.00    +0.000 A 
ATOM      8  C   UNL     1       3.040  15.028  20.328  0.00  0.00    +0.000 A 
ATOM      9  C   UNL     1       2.701  13.812  21.189  0.00  0.00    +0.000 C 
ATOM     10  C   UNL     1       1.486  12.959  20.533  0.00  0.00    +0.000 C 
ENDROOT
BRANCH  10  11
ATOM     11  C   UNL     1       0.489  12.515  19.249  0.00  0.00    +0.000 C 
ATOM     12  O   UNL     1       0.517  13.076  18.147  0.00  0.00    +0.000 OA
ATOM     13  N   UNL     1      -0.413  11.481  19.524  0.00  0.00    +0.000 N 
ATOM     14  H   UNL     1      -0.176  10.837  20.266  0.00  0.00    +0.000 HD
BRANCH  13  15
ATOM     15  C   UNL     1      -1.526  11.147  18.693  0.00  0.00    +0.000 A 
ATOM     16  C   UNL     1      -1.431  10.181  17.682  0.00  0.00    +0.000 A 
ATOM     17  C   UNL     1      -2.512   9.881  16.850  0.00  0.00    +0.000 A 
ATOM     18  C   UNL     1      -3.733  10.514  17.043  0.00  0.00    +0.000 A 
ATOM     19  C   UNL     1      -3.871  11.472  18.053  0.00  0.00    +0.000 A 
ATOM     20  C   UNL     1      -5.222  12.088  18.288  0.00  0.00    +0.000 C 
ATOM     21  C   UNL     1      -2.752  11.814  18.849  0.00  0.00    +0.000 A 
ENDBRANCH  13  15
ENDBRANCH  10  11
BRANCH   1  22
ATOM     22  S   UNL     1      -0.443  13.664  22.244  0.00  0.00    +0.000 S 
ATOM     23  O   UNL     1      -0.142  14.764  23.134  0.00  0.00    +0.000 OA
ATOM     24  O   UNL     1      -0.109  12.304  22.620  0.00  0.00    +0.000 OA
BRANCH  22  28
ATOM     25  C   UNL     1      -4.956  13.897  21.610  0.00  0.00    +0.000 A 
ATOM     26  C   UNL     1      -4.366  12.746  22.166  0.00  0.00    +0.000 A 
ATOM     27  C   UNL     1      -2.984  12.650  22.324  0.00  0.00    +0.000 A 
ATOM     28  C   UNL     1      -2.176  13.693  21.902  0.00  0.00    +0.000 A 
ATOM     29  C   UNL     1      -2.733  14.819  21.318  0.00  0.00    +0.000 A 
ATOM     30  C   UNL     1      -4.120  14.952  21.181  0.00  0.00    +0.000 A 
BRANCH  25  32
ATOM     31  C   UNL     1      -7.055  14.269  22.665  0.00  0.00    +0.000 C 
ATOM     32  O   UNL     1      -6.313  14.027  21.468  0.00  0.00    +0.000 OA
ENDBRANCH  25  32
BRANCH  30  33
ATOM     33  O   UNL     1      -4.437  16.171  20.656  0.00  0.00    +0.000 OA
ATOM     34  C   UNL     1      -3.435  17.082  20.244  0.00  0.00    +0.000 C 
ENDBRANCH  30  33
ENDBRANCH  22  28
ENDBRANCH   1  22
TORSDOF 6
ENDMDL
MODEL 8
REMARK VINA RESULT:      -6.4      3.808      5.834
REMARK  Name = 
REMARK  9 active torsions:
REMARK  status: ('A' for Active; 'I' for Inactive)
REMARK    1  A    between atoms: C_1  and  O_2
REMARK    2  A    between atoms: O_2  and  C_3
REMARK    3  A    between atoms: C_6  and  S_7
REMARK    4  A    between atoms: S_7  and  N_10
REMARK    5  A    between atoms: C_19  and  C_20
REMARK    6  A    between atoms: N_22  and  C_23
REMARK    7  A    between atoms: C_27  and  C_28
REMARK    8  A    between atoms: C_31  and  O_32
REMARK    9  A    between atoms: O_32  and  C_33
REMARK                            x       y       z     vdW  Elec       q    Type
REMARK                         _______ _______ _______ _____ _____    ______ ____
ROOT
ATOM      1  N   UNL     1       0.184  10.468  19.921  0.00  0.00    +0.000 NA
ATOM      2  C   UNL     1      -1.228  10.011  19.791  0.00  0.00    +0.000 C 
ATOM      3  C   UNL     1      -1.793  10.297  18.411  0.00  0.00    +0.000 A 
ATOM      4  C   UNL     1      -2.069   9.357  17.422  0.00  0.00    +0.000 A 
ATOM      5  C   UNL     1      -2.474   9.782  16.148  0.00  0.00    +0.000 A 
ATOM      6  C   UNL     1      -2.735  11.133  15.906  0.00  0.00    +0.000 A 
ATOM      7  C   UNL     1      -2.361  12.079  16.850  0.00  0.00    +0.000 A 
ATOM      8  C   UNL     1      -1.697  11.624  17.990  0.00  0.00    +0.000 A 
ATOM      9  C   UNL     1      -0.408  12.285  18.478  0.00  0.00    +0.000 C 
ATOM     10  C   UNL     1       0.765  11.183  18.681  0.00  0.00    +0.000 C 
ENDROOT
BRANCH  10  11
ATOM     11  C   UNL     1       1.461   9.669  18.425  0.00  0.00    +0.000 C 
ATOM     12  O   UNL     1       1.682   9.210  17.297  0.00  0.00    +0.000 OA
ATOM     13  N   UNL     1       1.743   8.938  19.584  0.00  0.00    +0.000 N 
ATOM     14  H   UNL     1       1.884   9.455  20.442  0.00  0.00    +0.000 HD
BRANCH  13  15
ATOM     15  C   UNL     1       2.059   7.545  19.596  0.00  0.00    +0.000 A 
ATOM     16  C   UNL     1       1.620   6.696  20.620  0.00  0.00    +0.000 A 
ATOM     17  C   UNL     1       1.958   5.340  20.645  0.00  0.00    +0.000 A 
ATOM     18  C   UNL     1       2.711   4.794  19.615  0.00  0.00    +0.000 A 
ATOM     19  C   UNL     1       3.154   5.607  18.567  0.00  0.00    +0.000 A 
ATOM     20  C   UNL     1       3.904   4.976  17.427  0.00  0.00    +0.000 C 
ATOM     21  C   UNL     1       2.858   6.991  18.584  0.00  0.00    +0.000 A 
ENDBRANCH  13  15
ENDBRANCH  10  11
BRANCH   1  22
ATOM     22  S   UNL     1       0.772  11.122  21.353  0.00  0.00    +0.000 S 
ATOM     23  O   UNL     1       1.846  12.026  21.005  0.00  0.00    +0.000 OA
ATOM     24  O   UNL     1       1.013  10.007  22.249  0.00  0.00    +0.000 OA
BRANCH  22  28
ATOM     25  C   UNL     1      -2.439  13.636  23.401  0.00  0.00    +0.000 A 
ATOM     26  C   UNL     1      -2.463  12.231  23.484  0.00  0.00    +0.000 A 
ATOM     27  C   UNL     1      -1.511  11.454  22.827  0.00  0.00    +0.000 A 
ATOM     28  C   UNL     1      -0.540  12.074  22.057  0.00  0.00    +0.000 A 
ATOM     29  C   UNL     1      -0.521  13.453  21.930  0.00  0.00    +0.000 A 
ATOM     30  C   UNL     1      -1.445  14.255  22.609  0.00  0.00    +0.000 A 
BRANCH  25  32
ATOM     31  C   UNL     1      -2.968  14.879  25.359  0.00  0.00    +0.000 C 
ATOM     32  O   UNL     1      -3.348  14.424  24.058  0.00  0.00    +0.000 OA
ENDBRANCH  25  32
BRANCH  30  33
ATOM     33  O   UNL     1      -1.182  15.577  22.398  0.00  0.00    +0.000 OA
ATOM     34  C   UNL     1      -0.238  16.278  23.185  0.00  0.00    +0.000 C 
ENDBRANCH  30  33
ENDBRANCH  22  28
ENDBRANCH   1  22
TORSDOF 6
ENDMDL
MODEL 9
REMARK VINA RESULT:      -6.4      2.845      4.646
REMARK  Name = 
REMARK  9 active torsions:
REMARK  status: ('A' for Active; 'I' for Inactive)
REMARK    1  A    between atoms: C_1  and  O_2
REMARK    2  A    between atoms: O_2  and  C_3
REMARK    3  A    between atoms: C_6  and  S_7
REMARK    4  A    between atoms: S_7  and  N_10
REMARK    5  A    between atoms: C_19  and  C_20
REMARK    6  A    between atoms: N_22  and  C_23
REMARK    7  A    between atoms: C_27  and  C_28
REMARK    8  A    between atoms: C_31  and  O_32
REMARK    9  A    between atoms: O_32  and  C_33
REMARK                            x       y       z     vdW  Elec       q    Type
REMARK                         _______ _______ _______ _____ _____    ______ ____
ROOT
ATOM      1  N   UNL     1      -0.679  13.515  20.365  0.00  0.00    +0.000 NA
ATOM      2  C   UNL     1      -0.444  14.646  19.425  0.00  0.00    +0.000 C 
ATOM      3  C   UNL     1       0.607  15.610  19.945  0.00  0.00    +0.000 A 
ATOM      4  C   UNL     1       1.899  15.768  19.450  0.00  0.00    +0.000 A 
ATOM      5  C   UNL     1       2.803  16.612  20.113  0.00  0.00    +0.000 A 
ATOM      6  C   UNL     1       2.375  17.400  21.184  0.00  0.00    +0.000 A 
ATOM      7  C   UNL     1       1.126  17.168  21.744  0.00  0.00    +0.000 A 
ATOM      8  C   UNL     1       0.372  16.116  21.224  0.00  0.00    +0.000 A 
ATOM      9  C   UNL     1      -0.282  15.078  22.136  0.00  0.00    +0.000 C 
ATOM     10  C   UNL     1       0.124  13.574  21.684  0.00  0.00    +0.000 C 
ENDROOT
BRANCH  10  11
ATOM     11  C   UNL     1       1.096  12.464  20.867  0.00  0.00    +0.000 C 
ATOM     12  O   UNL     1       2.170  12.772  20.334  0.00  0.00    +0.000 OA
ATOM     13  N   UNL     1       0.587  11.163  20.796  0.00  0.00    +0.000 N 
ATOM     14  H   UNL     1      -0.070  10.878  21.510  0.00  0.00    +0.000 HD
BRANCH  13  15
ATOM     15  C   UNL     1       1.091  10.152  19.923  0.00  0.00    +0.000 A 
ATOM     16  C   UNL     1       1.324  10.398  18.563  0.00  0.00    +0.000 A 
ATOM     17  C   UNL     1       1.786   9.397  17.705  0.00  0.00    +0.000 A 
ATOM     18  C   UNL     1       2.069   8.132  18.203  0.00  0.00    +0.000 A 
ATOM     19  C   UNL     1       1.864   7.854  19.558  0.00  0.00    +0.000 A 
ATOM     20  C   UNL     1       2.248   6.499  20.086  0.00  0.00    +0.000 C 
ATOM     21  C   UNL     1       1.337   8.857  20.405  0.00  0.00    +0.000 A 
ENDBRANCH  13  15
ENDBRANCH  10  11
BRANCH   1  22
ATOM     22  S   UNL     1      -2.210  12.860  20.593  0.00  0.00    +0.000 S 
ATOM     23  O   UNL     1      -3.090  13.944  20.971  0.00  0.00    +0.000 OA
ATOM     24  O   UNL     1      -2.043  11.713  21.465  0.00  0.00    +0.000 OA
BRANCH  22  28
ATOM     25  C   UNL     1      -3.613  11.001  16.668  0.00  0.00    +0.000 A 
ATOM     26  C   UNL     1      -2.242  11.191  16.926  0.00  0.00    +0.000 A 
ATOM     27  C   UNL     1      -1.806  11.797  18.103  0.00  0.00    +0.000 A 
ATOM     28  C   UNL     1      -2.740  12.243  19.024  0.00  0.00    +0.000 A 
ATOM     29  C   UNL     1      -4.095  12.101  18.774  0.00  0.00    +0.000 A 
ATOM     30  C   UNL     1      -4.554  11.466  17.615  0.00  0.00    +0.000 A 
BRANCH  25  32
ATOM     31  C   UNL     1      -3.074  10.029  14.565  0.00  0.00    +0.000 C 
ATOM     32  O   UNL     1      -4.066  10.386  15.531  0.00  0.00    +0.000 OA
ENDBRANCH  25  32
BRANCH  30  33
ATOM     33  O   UNL     1      -5.916  11.371  17.625  0.00  0.00    +0.000 OA
ATOM     34  C   UNL     1      -6.601  10.677  18.651  0.00  0.00    +0.000 C 
ENDBRANCH  30  33
ENDBRANCH  22  28
ENDBRANCH   1  22
TORSDOF 6
ENDMDL
