MODEL 1
REMARK VINA RESULT:      -8.1      0.000      0.000
REMARK  Name = 
REMARK  5 active torsions:
REMARK  status: ('A' for Active; 'I' for Inactive)
REMARK    1  A    between atoms: C_1  and  C_2
REMARK    2  A    between atoms: C_6  and  C_7
REMARK    3  A    between atoms: N_9  and  C_10
REMARK    4  A    between atoms: C_10  and  C_11
REMARK    5  A    between atoms: C_19  and  C_20
REMARK                            x       y       z     vdW  Elec       q    Type
REMARK                         _______ _______ _______ _____ _____    ______ ____
ROOT
ATOM      1  C   UNL     1       5.196   5.521  18.713  0.00  0.00    +0.000 C 
ATOM      2  O   UNL     1       5.515   4.891  19.715  0.00  0.00    +0.000 OA
ATOM      3  N   UNL     1       3.953   6.106  18.592  0.00  0.00    +0.000 N 
ATOM      4  H   UNL     1       3.657   6.415  17.678  0.00  0.00    +0.000 HD
ENDROOT
BRANCH   1  10
ATOM      5  C   UNL     1       6.198   3.400  12.411  0.00  0.00    +0.000 C 
ATOM      6  C   UNL     1       6.130   3.981  13.794  0.00  0.00    +0.000 A 
ATOM      7  C   UNL     1       5.050   3.554  14.681  0.00  0.00    +0.000 A 
ATOM      8  C   UNL     1       4.975   4.065  15.924  0.00  0.00    +0.000 A 
ATOM      9  N   UNL     1       5.923   5.000  16.355  0.00  0.00    +0.000 N 
ATOM     10  C   UNL     1       6.056   5.687  17.560  0.00  0.00    +0.000 A 
ATOM     11  C   UNL     1       7.195   6.473  17.382  0.00  0.00    +0.000 A 
ATOM     12  C   UNL     1       7.916   7.379  18.310  0.00  0.00    +0.000 C 
ATOM     13  N   UNL     1       7.718   6.319  16.122  0.00  0.00    +0.000 NA
ATOM     14  C   UNL     1       6.956   5.432  15.528  0.00  0.00    +0.000 A 
ATOM     15  C   UNL     1       7.041   4.882  14.219  0.00  0.00    +0.000 A 
ENDBRANCH   1  10
BRANCH   3  16
ATOM     16  C   UNL     1       2.953   6.067  19.635  0.00  0.00    +0.000 C 
BRANCH  16  17
ATOM     17  C   UNL     1       2.131   7.334  19.708  0.00  0.00    +0.000 A 
ATOM     18  C   UNL     1       2.063   8.197  18.605  0.00  0.00    +0.000 A 
ATOM     19  C   UNL     1       1.361   9.404  18.682  0.00  0.00    +0.000 A 
ATOM     20  C   UNL     1       0.708   9.765  19.863  0.00  0.00    +0.000 A 
ATOM     21 CL   UNL     1      -0.112  11.286  19.897  0.00  0.00    +0.000 Cl
ATOM     22  C   UNL     1       0.745   8.903  20.963  0.00  0.00    +0.000 A 
ATOM     23 CL   UNL     1      -0.033   9.284  22.459  0.00  0.00    +0.000 Cl
ATOM     24  C   UNL     1       1.446   7.691  20.882  0.00  0.00    +0.000 A 
ENDBRANCH  16  17
ENDBRANCH   3  16
TORSDOF 3
ENDMDL
MODEL 2
REMARK VINA RESULT:      -7.7      0.655      1.481
REMARK  Name = 
REMARK  5 active torsions:
REMARK  status: ('A' for Active; 'I' for Inactive)
REMARK    1  A    between atoms: C_1  and  C_2
REMARK    2  A    between atoms: C_6  and  C_7
REMARK    3  A    between atoms: N_9  and  C_10
REMARK    4  A    between atoms: C_10  and  C_11
REMARK    5  A    between atoms: C_19  and  C_20
REMARK                            x       y       z     vdW  Elec       q    Type
REMARK                         _______ _______ _______ _____ _____    ______ ____
ROOT
ATOM      1  C   UNL     1       5.271   5.358  18.726  0.00  0.00    +0.000 C 
ATOM      2  O   UNL     1       5.636   4.728  19.713  0.00  0.00    +0.000 OA
ATOM      3  N   UNL     1       4.001   5.887  18.635  0.00  0.00    +0.000 N 
ATOM      4  H   UNL     1       3.675   6.195  17.732  0.00  0.00    +0.000 HD
ENDROOT
BRANCH   1  10
ATOM      5  C   UNL     1       6.226   3.418  12.359  0.00  0.00    +0.000 C 
ATOM      6  C   UNL     1       6.164   3.964  13.756  0.00  0.00    +0.000 A 
ATOM      7  C   UNL     1       5.118   3.478  14.653  0.00  0.00    +0.000 A 
ATOM      8  C   UNL     1       5.049   3.958  15.909  0.00  0.00    +0.000 A 
ATOM      9  N   UNL     1       5.971   4.917  16.343  0.00  0.00    +0.000 N 
ATOM     10  C   UNL     1       6.103   5.580  17.561  0.00  0.00    +0.000 A 
ATOM     11  C   UNL     1       7.209   6.411  17.381  0.00  0.00    +0.000 A 
ATOM     12  C   UNL     1       7.915   7.321  18.317  0.00  0.00    +0.000 C 
ATOM     13  N   UNL     1       7.713   6.304  16.109  0.00  0.00    +0.000 NA
ATOM     14  C   UNL     1       6.972   5.404  15.508  0.00  0.00    +0.000 A 
ATOM     15  C   UNL     1       7.050   4.888  14.185  0.00  0.00    +0.000 A 
ENDBRANCH   1  10
BRANCH   3  16
ATOM     16  C   UNL     1       3.022   5.786  19.695  0.00  0.00    +0.000 C 
BRANCH  16  17
ATOM     17  C   UNL     1       2.235   7.062  19.891  0.00  0.00    +0.000 A 
ATOM     18  C   UNL     1       1.484   7.256  21.058  0.00  0.00    +0.000 A 
ATOM     19  C   UNL     1       0.699   8.401  21.223  0.00  0.00    +0.000 A 
ATOM     20  C   UNL     1       0.659   9.378  20.225  0.00  0.00    +0.000 A 
ATOM     21 CL   UNL     1      -0.358  10.751  20.481  0.00  0.00    +0.000 Cl
ATOM     22  C   UNL     1       1.423   9.211  19.066  0.00  0.00    +0.000 A 
ATOM     23 CL   UNL     1       1.419  10.371  17.784  0.00  0.00    +0.000 Cl
ATOM     24  C   UNL     1       2.212   8.062  18.905  0.00  0.00    +0.000 A 
ENDBRANCH  16  17
ENDBRANCH   3  16
TORSDOF 3
ENDMDL
MODEL 3
REMARK VINA RESULT:      -7.6      4.834      8.271
REMARK  Name = 
REMARK  5 active torsions:
REMARK  status: ('A' for Active; 'I' for Inactive)
REMARK    1  A    between atoms: C_1  and  C_2
REMARK    2  A    between atoms: C_6  and  C_7
REMARK    3  A    between atoms: N_9  and  C_10
REMARK    4  A    between atoms: C_10  and  C_11
REMARK    5  A    between atoms: C_19  and  C_20
REMARK                            x       y       z     vdW  Elec       q    Type
REMARK                         _______ _______ _______ _____ _____    ______ ____
ROOT
ATOM      1  C   UNL     1       1.359   9.508  18.499  0.00  0.00    +0.000 C 
ATOM      2  O   UNL     1       1.961   9.682  17.446  0.00  0.00    +0.000 OA
ATOM      3  N   UNL     1       1.679   8.472  19.352  0.00  0.00    +0.000 N 
ATOM      4  H   UNL     1       1.025   8.234  20.082  0.00  0.00    +0.000 HD
ENDROOT
BRANCH   1  10
ATOM      5  C   UNL     1      -4.951  11.270  16.988  0.00  0.00    +0.000 C 
ATOM      6  C   UNL     1      -3.556  10.998  17.472  0.00  0.00    +0.000 A 
ATOM      7  C   UNL     1      -2.732  10.044  16.732  0.00  0.00    +0.000 A 
ATOM      8  C   UNL     1      -1.478   9.789  17.153  0.00  0.00    +0.000 A 
ATOM      9  N   UNL     1      -0.978  10.432  18.291  0.00  0.00    +0.000 N 
ATOM     10  C   UNL     1       0.252  10.331  18.938  0.00  0.00    +0.000 A 
ATOM     11  C   UNL     1       0.149  11.219  20.010  0.00  0.00    +0.000 A 
ATOM     12  C   UNL     1       1.136  11.634  21.038  0.00  0.00    +0.000 C 
ATOM     13  N   UNL     1      -1.090  11.808  20.054  0.00  0.00    +0.000 NA
ATOM     14  C   UNL     1      -1.744  11.337  19.019  0.00  0.00    +0.000 A 
ATOM     15  C   UNL     1      -3.064  11.614  18.567  0.00  0.00    +0.000 A 
ENDBRANCH   1  10
BRANCH   3  16
ATOM     16  C   UNL     1       2.760   7.545  19.103  0.00  0.00    +0.000 C 
BRANCH  16  17
ATOM     17  C   UNL     1       2.300   6.106  19.048  0.00  0.00    +0.000 A 
ATOM     18  C   UNL     1       2.001   5.508  17.816  0.00  0.00    +0.000 A 
ATOM     19  C   UNL     1       1.511   4.199  17.755  0.00  0.00    +0.000 A 
ATOM     20  C   UNL     1       1.320   3.463  18.927  0.00  0.00    +0.000 A 
ATOM     21 CL   UNL     1       0.680   1.865  18.780  0.00  0.00    +0.000 Cl
ATOM     22  C   UNL     1       1.638   4.038  20.162  0.00  0.00    +0.000 A 
ATOM     23 CL   UNL     1       1.422   3.193  21.655  0.00  0.00    +0.000 Cl
ATOM     24  C   UNL     1       2.133   5.349  20.219  0.00  0.00    +0.000 A 
ENDBRANCH  16  17
ENDBRANCH   3  16
TORSDOF 3
ENDMDL
MODEL 4
REMARK VINA RESULT:      -7.5      4.949      8.477
REMARK  Name = 
REMARK  5 active torsions:
REMARK  status: ('A' for Active; 'I' for Inactive)
REMARK    1  A    between atoms: C_1  and  C_2
REMARK    2  A    between atoms: C_6  and  C_7
REMARK    3  A    between atoms: N_9  and  C_10
REMARK    4  A    between atoms: C_10  and  C_11
REMARK    5  A    between atoms: C_19  and  C_20
REMARK                            x       y       z     vdW  Elec       q    Type
REMARK                         _______ _______ _______ _____ _____    ______ ____
ROOT
ATOM      1  C   UNL     1       1.546  10.114  18.297  0.00  0.00    +0.000 C 
ATOM      2  O   UNL     1       2.427  10.563  17.572  0.00  0.00    +0.000 OA
ATOM      3  N   UNL     1       1.535   8.791  18.687  0.00  0.00    +0.000 N 
ATOM      4  H   UNL     1       0.688   8.418  19.088  0.00  0.00    +0.000 HD
ENDROOT
BRANCH   1  10
ATOM      5  C   UNL     1      -5.072  11.051  17.567  0.00  0.00    +0.000 C 
ATOM      6  C   UNL     1      -3.601  10.983  17.857  0.00  0.00    +0.000 A 
ATOM      7  C   UNL     1      -2.790  10.000  17.142  0.00  0.00    +0.000 A 
ATOM      8  C   UNL     1      -1.469   9.927  17.391  0.00  0.00    +0.000 A 
ATOM      9  N   UNL     1      -0.885  10.784  18.330  0.00  0.00    +0.000 N 
ATOM     10  C   UNL     1       0.428  10.896  18.782  0.00  0.00    +0.000 A 
ATOM     11  C   UNL     1       0.382  11.931  19.717  0.00  0.00    +0.000 A 
ATOM     12  C   UNL     1       1.453  12.590  20.505  0.00  0.00    +0.000 C 
ATOM     13  N   UNL     1      -0.896  12.409  19.871  0.00  0.00    +0.000 NA
ATOM     14  C   UNL     1      -1.635  11.723  19.032  0.00  0.00    +0.000 A 
ATOM     15  C   UNL     1      -3.029  11.807  18.760  0.00  0.00    +0.000 A 
ENDBRANCH   1  10
BRANCH   3  16
ATOM     16  C   UNL     1       2.567   7.848  18.321  0.00  0.00    +0.000 C 
BRANCH  16  17
ATOM     17  C   UNL     1       2.301   6.454  18.843  0.00  0.00    +0.000 A 
ATOM     18  C   UNL     1       1.995   6.253  20.196  0.00  0.00    +0.000 A 
ATOM     19  C   UNL     1       1.813   4.963  20.705  0.00  0.00    +0.000 A 
ATOM     20  C   UNL     1       1.925   3.852  19.867  0.00  0.00    +0.000 A 
ATOM     21 CL   UNL     1       1.720   2.287  20.570  0.00  0.00    +0.000 Cl
ATOM     22  C   UNL     1       2.204   4.038  18.509  0.00  0.00    +0.000 A 
ATOM     23 CL   UNL     1       2.366   2.712  17.411  0.00  0.00    +0.000 Cl
ATOM     24  C   UNL     1       2.383   5.333  18.000  0.00  0.00    +0.000 A 
ENDBRANCH  16  17
ENDBRANCH   3  16
TORSDOF 3
ENDMDL
MODEL 5
REMARK VINA RESULT:      -7.5      2.013      3.598
REMARK  Name = 
REMARK  5 active torsions:
REMARK  status: ('A' for Active; 'I' for Inactive)
REMARK    1  A    between atoms: C_1  and  C_2
REMARK    2  A    between atoms: C_6  and  C_7
REMARK    3  A    between atoms: N_9  and  C_10
REMARK    4  A    between atoms: C_10  and  C_11
REMARK    5  A    between atoms: C_19  and  C_20
REMARK                            x       y       z     vdW  Elec       q    Type
REMARK                         _______ _______ _______ _____ _____    ______ ____
ROOT
ATOM      1  C   UNL     1       2.337   5.369  20.122  0.00  0.00    +0.000 C 
ATOM      2  O   UNL     1       2.216   4.918  21.256  0.00  0.00    +0.000 OA
ATOM      3  N   UNL     1       2.070   6.692  19.838  0.00  0.00    +0.000 N 
ATOM      4  H   UNL     1       1.965   6.961  18.871  0.00  0.00    +0.000 HD
ENDROOT
BRANCH   1  10
ATOM      5  C   UNL     1       6.880   4.942  15.184  0.00  0.00    +0.000 C 
ATOM      6  C   UNL     1       5.785   4.882  16.210  0.00  0.00    +0.000 A 
ATOM      7  C   UNL     1       5.750   5.901  17.257  0.00  0.00    +0.000 A 
ATOM      8  C   UNL     1       4.775   5.862  18.184  0.00  0.00    +0.000 A 
ATOM      9  N   UNL     1       3.810   4.849  18.143  0.00  0.00    +0.000 N 
ATOM     10  C   UNL     1       2.730   4.572  18.979  0.00  0.00    +0.000 A 
ATOM     11  C   UNL     1       2.144   3.437  18.418  0.00  0.00    +0.000 A 
ATOM     12  C   UNL     1       0.920   2.682  18.784  0.00  0.00    +0.000 C 
ATOM     13  N   UNL     1       2.843   3.005  17.318  0.00  0.00    +0.000 NA
ATOM     14  C   UNL     1       3.824   3.861  17.163  0.00  0.00    +0.000 A 
ATOM     15  C   UNL     1       4.849   3.910  16.177  0.00  0.00    +0.000 A 
ENDBRANCH   1  10
BRANCH   3  16
ATOM     16  C   UNL     1       1.676   7.655  20.841  0.00  0.00    +0.000 C 
BRANCH  16  17
ATOM     17  C   UNL     1       1.034   8.889  20.251  0.00  0.00    +0.000 A 
ATOM     18  C   UNL     1       1.333   9.282  18.938  0.00  0.00    +0.000 A 
ATOM     19  C   UNL     1       0.799  10.458  18.403  0.00  0.00    +0.000 A 
ATOM     20  C   UNL     1      -0.053  11.258  19.169  0.00  0.00    +0.000 A 
ATOM     21 CL   UNL     1      -0.650  12.713  18.455  0.00  0.00    +0.000 Cl
ATOM     22  C   UNL     1      -0.381  10.866  20.471  0.00  0.00    +0.000 A 
ATOM     23 CL   UNL     1      -1.421  11.807  21.482  0.00  0.00    +0.000 Cl
ATOM     24  C   UNL     1       0.154   9.684  21.004  0.00  0.00    +0.000 A 
ENDBRANCH  16  17
ENDBRANCH   3  16
TORSDOF 3
ENDMDL
MODEL 6
REMARK VINA RESULT:      -7.4      2.504      4.236
REMARK  Name = 
REMARK  5 active torsions:
REMARK  status: ('A' for Active; 'I' for Inactive)
REMARK    1  A    between atoms: C_1  and  C_2
REMARK    2  A    between atoms: C_6  and  C_7
REMARK    3  A    between atoms: N_9  and  C_10
REMARK    4  A    between atoms: C_10  and  C_11
REMARK    5  A    between atoms: C_19  and  C_20
REMARK                            x       y       z     vdW  Elec       q    Type
REMARK                         _______ _______ _______ _____ _____    ______ ____
ROOT
ATOM      1  C   UNL     1       2.176   7.586  19.402  0.00  0.00    +0.000 C 
ATOM      2  O   UNL     1       2.055   7.875  20.588  0.00  0.00    +0.000 OA
ATOM      3  N   UNL     1       1.939   8.510  18.406  0.00  0.00    +0.000 N 
ATOM      4  H   UNL     1       1.833   8.175  17.460  0.00  0.00    +0.000 HD
ENDROOT
BRANCH   1  10
ATOM      5  C   UNL     1       6.077   4.352  14.982  0.00  0.00    +0.000 C 
ATOM      6  C   UNL     1       5.142   4.903  16.019  0.00  0.00    +0.000 A 
ATOM      7  C   UNL     1       5.083   6.350  16.214  0.00  0.00    +0.000 A 
ATOM      8  C   UNL     1       4.249   6.859  17.140  0.00  0.00    +0.000 A 
ATOM      9  N   UNL     1       3.452   6.004  17.909  0.00  0.00    +0.000 N 
ATOM     10  C   UNL     1       2.540   6.267  18.929  0.00  0.00    +0.000 A 
ATOM     11  C   UNL     1       2.067   5.008  19.300  0.00  0.00    +0.000 A 
ATOM     12  C   UNL     1       1.027   4.598  20.276  0.00  0.00    +0.000 C 
ATOM     13  N   UNL     1       2.681   4.012  18.581  0.00  0.00    +0.000 NA
ATOM     14  C   UNL     1       3.493   4.622  17.752  0.00  0.00    +0.000 A 
ATOM     15  C   UNL     1       4.367   4.086  16.765  0.00  0.00    +0.000 A 
ENDBRANCH   1  10
BRANCH   3  16
ATOM     16  C   UNL     1       1.579   9.885  18.668  0.00  0.00    +0.000 C 
BRANCH  16  17
ATOM     17  C   UNL     1       0.103  10.152  18.475  0.00  0.00    +0.000 A 
ATOM     18  C   UNL     1      -0.591   9.551  17.416  0.00  0.00    +0.000 A 
ATOM     19  C   UNL     1      -1.940   9.842  17.187  0.00  0.00    +0.000 A 
ATOM     20  C   UNL     1      -2.620  10.733  18.020  0.00  0.00    +0.000 A 
ATOM     21 CL   UNL     1      -4.275  11.071  17.659  0.00  0.00    +0.000 Cl
ATOM     22  C   UNL     1      -1.948  11.320  19.096  0.00  0.00    +0.000 A 
ATOM     23 CL   UNL     1      -2.720  12.438  20.166  0.00  0.00    +0.000 Cl
ATOM     24  C   UNL     1      -0.596  11.024  19.326  0.00  0.00    +0.000 A 
ENDBRANCH  16  17
ENDBRANCH   3  16
TORSDOF 3
ENDMDL
MODEL 7
REMARK VINA RESULT:      -7.2      2.484      4.663
REMARK  Name = 
REMARK  5 active torsions:
REMARK  status: ('A' for Active; 'I' for Inactive)
REMARK    1  A    between atoms: C_1  and  C_2
REMARK    2  A    between atoms: C_6  and  C_7
REMARK    3  A    between atoms: N_9  and  C_10
REMARK    4  A    between atoms: C_10  and  C_11
REMARK    5  A    between atoms: C_19  and  C_20
REMARK                            x       y       z     vdW  Elec       q    Type
REMARK                         _______ _______ _______ _____ _____    ______ ____
ROOT
ATOM      1  C   UNL     1       3.791   6.830  17.626  0.00  0.00    +0.000 C 
ATOM      2  O   UNL     1       4.826   7.392  17.286  0.00  0.00    +0.000 OA
ATOM      3  N   UNL     1       2.619   7.530  17.824  0.00  0.00    +0.000 N 
ATOM      4  H   UNL     1       1.864   7.071  18.312  0.00  0.00    +0.000 HD
ENDROOT
BRANCH   1  10
ATOM      5  C   UNL     1       1.438   2.310  22.014  0.00  0.00    +0.000 C 
ATOM      6  C   UNL     1       2.032   3.171  20.936  0.00  0.00    +0.000 A 
ATOM      7  C   UNL     1       1.886   4.622  21.038  0.00  0.00    +0.000 A 
ATOM      8  C   UNL     1       2.413   5.407  20.080  0.00  0.00    +0.000 A 
ATOM      9  N   UNL     1       3.089   4.833  18.998  0.00  0.00    +0.000 N 
ATOM     10  C   UNL     1       3.695   5.407  17.882  0.00  0.00    +0.000 A 
ATOM     11  C   UNL     1       4.196   4.320  17.166  0.00  0.00    +0.000 A 
ATOM     12  C   UNL     1       5.008   4.252  15.925  0.00  0.00    +0.000 C 
ATOM     13  N   UNL     1       3.884   3.131  17.778  0.00  0.00    +0.000 NA
ATOM     14  C   UNL     1       3.234   3.455  18.870  0.00  0.00    +0.000 A 
ATOM     15  C   UNL     1       2.687   2.626  19.889  0.00  0.00    +0.000 A 
ENDBRANCH   1  10
BRANCH   3  16
ATOM     16  C   UNL     1       2.501   8.955  17.609  0.00  0.00    +0.000 C 
BRANCH  16  17
ATOM     17  C   UNL     1       1.630   9.634  18.641  0.00  0.00    +0.000 A 
ATOM     18  C   UNL     1       1.399  11.015  18.572  0.00  0.00    +0.000 A 
ATOM     19  C   UNL     1       0.651  11.667  19.557  0.00  0.00    +0.000 A 
ATOM     20  C   UNL     1       0.112  10.946  20.625  0.00  0.00    +0.000 A 
ATOM     21 CL   UNL     1      -0.774  11.821  21.823  0.00  0.00    +0.000 Cl
ATOM     22  C   UNL     1       0.311   9.563  20.694  0.00  0.00    +0.000 A 
ATOM     23 CL   UNL     1      -0.318   8.605  21.988  0.00  0.00    +0.000 Cl
ATOM     24  C   UNL     1       1.059   8.912  19.702  0.00  0.00    +0.000 A 
ENDBRANCH  16  17
ENDBRANCH   3  16
TORSDOF 3
ENDMDL
MODEL 8
REMARK VINA RESULT:      -7.2      5.247      8.586
REMARK  Name = 
REMARK  5 active torsions:
REMARK  status: ('A' for Active; 'I' for Inactive)
REMARK    1  A    between atoms: C_1  and  C_2
REMARK    2  A    between atoms: C_6  and  C_7
REMARK    3  A    between atoms: N_9  and  C_10
REMARK    4  A    between atoms: C_10  and  C_11
REMARK    5  A    between atoms: C_19  and  C_20
REMARK                            x       y       z     vdW  Elec       q    Type
REMARK                         _______ _______ _______ _____ _____    ______ ____
ROOT
ATOM      1  C   UNL     1       0.314  10.568  20.580  0.00  0.00    +0.000 C 
ATOM      2  O   UNL     1       1.339  11.212  20.773  0.00  0.00    +0.000 OA
ATOM      3  N   UNL     1       0.267   9.205  20.788  0.00  0.00    +0.000 N 
ATOM      4  H   UNL     1      -0.514   8.691  20.408  0.00  0.00    +0.000 HD
ENDROOT
BRANCH   1  10
ATOM      5  C   UNL     1      -3.918  10.579  15.355  0.00  0.00    +0.000 C 
ATOM      6  C   UNL     1      -3.088  10.707  16.599  0.00  0.00    +0.000 A 
ATOM      7  C   UNL     1      -1.876   9.898  16.720  0.00  0.00    +0.000 A 
ATOM      8  C   UNL     1      -1.121  10.002  17.830  0.00  0.00    +0.000 A 
ATOM      9  N   UNL     1      -1.500  10.874  18.856  0.00  0.00    +0.000 N 
ATOM     10  C   UNL     1      -0.920  11.148  20.093  0.00  0.00    +0.000 A 
ATOM     11  C   UNL     1      -1.760  12.105  20.662  0.00  0.00    +0.000 A 
ATOM     12  C   UNL     1      -1.665  12.862  21.935  0.00  0.00    +0.000 C 
ATOM     13  N   UNL     1      -2.828  12.382  19.845  0.00  0.00    +0.000 NA
ATOM     14  C   UNL     1      -2.653  11.650  18.771  0.00  0.00    +0.000 A 
ATOM     15  C   UNL     1      -3.444  11.547  17.594  0.00  0.00    +0.000 A 
ENDBRANCH   1  10
BRANCH   3  16
ATOM     16  C   UNL     1       1.387   8.439  21.285  0.00  0.00    +0.000 C 
BRANCH  16  17
ATOM     17  C   UNL     1       1.752   7.280  20.386  0.00  0.00    +0.000 A 
ATOM     18  C   UNL     1       2.343   7.514  19.136  0.00  0.00    +0.000 A 
ATOM     19  C   UNL     1       2.623   6.455  18.266  0.00  0.00    +0.000 A 
ATOM     20  C   UNL     1       2.326   5.142  18.636  0.00  0.00    +0.000 A 
ATOM     21 CL   UNL     1       2.669   3.886  17.500  0.00  0.00    +0.000 Cl
ATOM     22  C   UNL     1       1.760   4.890  19.890  0.00  0.00    +0.000 A 
ATOM     23 CL   UNL     1       1.357   3.292  20.415  0.00  0.00    +0.000 Cl
ATOM     24  C   UNL     1       1.483   5.953  20.762  0.00  0.00    +0.000 A 
ENDBRANCH  16  17
ENDBRANCH   3  16
TORSDOF 3
ENDMDL
MODEL 9
REMARK VINA RESULT:      -7.2      4.542      6.600
REMARK  Name = 
REMARK  5 active torsions:
REMARK  status: ('A' for Active; 'I' for Inactive)
REMARK    1  A    between atoms: C_1  and  C_2
REMARK    2  A    between atoms: C_6  and  C_7
REMARK    3  A    between atoms: N_9  and  C_10
REMARK    4  A    between atoms: C_10  and  C_11
REMARK    5  A    between atoms: C_19  and  C_20
REMARK                            x       y       z     vdW  Elec       q    Type
REMARK                         _______ _______ _______ _____ _____    ______ ____
ROOT
ATOM      1  C   UNL     1       7.421   7.134  17.465  0.00  0.00    +0.000 C 
ATOM      2  O   UNL     1       7.732   6.903  16.302  0.00  0.00    +0.000 OA
ATOM      3  N   UNL     1       7.731   8.334  18.071  0.00  0.00    +0.000 N 
ATOM      4  H   UNL     1       7.659   8.395  19.075  0.00  0.00    +0.000 HD
ENDROOT
BRANCH   1  10
ATOM      5  C   UNL     1       1.464   4.223  18.584  0.00  0.00    +0.000 C 
ATOM      6  C   UNL     1       2.857   4.774  18.484  0.00  0.00    +0.000 A 
ATOM      7  C   UNL     1       3.157   5.734  17.424  0.00  0.00    +0.000 A 
ATOM      8  C   UNL     1       4.401   6.238  17.321  0.00  0.00    +0.000 A 
ATOM      9  N   UNL     1       5.394   5.839  18.222  0.00  0.00    +0.000 N 
ATOM     10  C   UNL     1       6.741   6.184  18.319  0.00  0.00    +0.000 A 
ATOM     11  C   UNL     1       7.202   5.461  19.420  0.00  0.00    +0.000 A 
ATOM     12  C   UNL     1       8.523   5.437  20.095  0.00  0.00    +0.000 C 
ATOM     13  N   UNL     1       6.210   4.676  19.953  0.00  0.00    +0.000 NA
ATOM     14  C   UNL     1       5.139   4.920  19.236  0.00  0.00    +0.000 A 
ATOM     15  C   UNL     1       3.821   4.397  19.350  0.00  0.00    +0.000 A 
ENDBRANCH   1  10
BRANCH   3  16
ATOM     16  C   UNL     1       8.396   9.420  17.386  0.00  0.00    +0.000 C 
BRANCH  16  17
ATOM     17  C   UNL     1       8.881  10.498  18.328  0.00  0.00    +0.000 A 
ATOM     18  C   UNL     1       9.274  10.172  19.633  0.00  0.00    +0.000 A 
ATOM     19  C   UNL     1       9.660  11.168  20.536  0.00  0.00    +0.000 A 
ATOM     20  C   UNL     1       9.670  12.509  20.143  0.00  0.00    +0.000 A 
ATOM     21 CL   UNL     1      10.128  13.689  21.319  0.00  0.00    +0.000 Cl
ATOM     22  C   UNL     1       9.306  12.847  18.836  0.00  0.00    +0.000 A 
ATOM     23 CL   UNL     1       9.286  14.484  18.280  0.00  0.00    +0.000 Cl
ATOM     24  C   UNL     1       8.922  11.846  17.933  0.00  0.00    +0.000 A 
ENDBRANCH  16  17
ENDBRANCH   3  16
TORSDOF 3
ENDMDL
