MODEL 1
REMARK VINA RESULT:      -7.5      0.000      0.000
REMARK  Name = 
REMARK  5 active torsions:
REMARK  status: ('A' for Active; 'I' for Inactive)
REMARK    1  A    between atoms: C_1  and  N_2
REMARK    2  A    between atoms: C_3  and  S_4
REMARK    3  A    between atoms: S_4  and  C_5
REMARK    4  A    between atoms: C_5  and  C_6
REMARK    5  A    between atoms: C_17  and  C_18
REMARK                            x       y       z     vdW  Elec       q    Type
REMARK                         _______ _______ _______ _____ _____    ______ ____
ROOT
ATOM      1  C   UNL     1       3.061   3.842  16.859  0.00  0.00    +0.000 C 
ATOM      2  N   UNL     1       4.031   3.781  17.925  0.00  0.00    +0.000 N 
ATOM      3  C   UNL     1       3.830   3.626  19.271  0.00  0.00    +0.000 A 
ATOM      4  N   UNL     1       4.983   3.664  19.897  0.00  0.00    +0.000 NA
ATOM      5  N   UNL     1       5.963   3.881  18.954  0.00  0.00    +0.000 NA
ATOM      6  C   UNL     1       5.394   3.965  17.762  0.00  0.00    +0.000 A 
ENDROOT
BRANCH   6   7
ATOM      7  C   UNL     1       6.066   4.281  16.501  0.00  0.00    +0.000 A 
ATOM      8  C   UNL     1       6.970   5.330  16.399  0.00  0.00    +0.000 A 
ATOM      9  N   UNL     1       7.546   5.697  15.222  0.00  0.00    +0.000 NA
ATOM     10  C   UNL     1       7.194   4.953  14.150  0.00  0.00    +0.000 A 
ATOM     11  C   UNL     1       6.309   3.892  14.245  0.00  0.00    +0.000 A 
ATOM     12  N   UNL     1       5.725   3.540  15.413  0.00  0.00    +0.000 NA
ENDBRANCH   6   7
BRANCH   3  13
ATOM     13  S   UNL     1       2.290   3.392  20.020  0.00  0.00    +0.000 S 
BRANCH  13  14
ATOM     14  C   UNL     1       2.198   4.784  21.194  0.00  0.00    +0.000 C 
BRANCH  14  15
ATOM     15  C   UNL     1       2.057   6.092  20.494  0.00  0.00    +0.000 A 
ATOM     16  N   UNL     1       2.424   6.374  19.256  0.00  0.00    +0.000 NA
ATOM     17  C   UNL     1       2.065   7.682  19.051  0.00  0.00    +0.000 A 
ATOM     18  C   UNL     1       2.212   8.488  17.920  0.00  0.00    +0.000 A 
ATOM     19  C   UNL     1       1.750   9.811  17.965  0.00  0.00    +0.000 A 
ATOM     20  C   UNL     1       1.151  10.316  19.123  0.00  0.00    +0.000 A 
ATOM     21  C   UNL     1       0.990   9.523  20.265  0.00  0.00    +0.000 A 
ATOM     22  C   UNL     1       1.460   8.215  20.191  0.00  0.00    +0.000 A 
ATOM     23  N   UNL     1       1.467   7.178  21.088  0.00  0.00    +0.000 N 
ATOM     24  H   UNL     1       1.099   7.203  22.032  0.00  0.00    +0.000 HD
ENDBRANCH  14  15
ENDBRANCH  13  14
ENDBRANCH   3  13
TORSDOF 4
ENDMDL
MODEL 2
REMARK VINA RESULT:      -7.5      3.326      5.290
REMARK  Name = 
REMARK  5 active torsions:
REMARK  status: ('A' for Active; 'I' for Inactive)
REMARK    1  A    between atoms: C_1  and  N_2
REMARK    2  A    between atoms: C_3  and  S_4
REMARK    3  A    between atoms: S_4  and  C_5
REMARK    4  A    between atoms: C_5  and  C_6
REMARK    5  A    between atoms: C_17  and  C_18
REMARK                            x       y       z     vdW  Elec       q    Type
REMARK                         _______ _______ _______ _____ _____    ______ ____
ROOT
ATOM      1  C   UNL     1       1.476   5.663  20.835  0.00  0.00    +0.000 C 
ATOM      2  N   UNL     1       2.036   6.449  19.763  0.00  0.00    +0.000 N 
ATOM      3  C   UNL     1       1.943   7.797  19.536  0.00  0.00    +0.000 A 
ATOM      4  N   UNL     1       2.568   8.102  18.423  0.00  0.00    +0.000 NA
ATOM      5  N   UNL     1       3.058   6.932  17.885  0.00  0.00    +0.000 NA
ATOM      6  C   UNL     1       2.730   5.928  18.683  0.00  0.00    +0.000 A 
ENDROOT
BRANCH   6   7
ATOM      7  C   UNL     1       2.977   4.508  18.434  0.00  0.00    +0.000 A 
ATOM      8  C   UNL     1       2.149   3.756  17.611  0.00  0.00    +0.000 A 
ATOM      9  N   UNL     1       2.308   2.417  17.428  0.00  0.00    +0.000 NA
ATOM     10  C   UNL     1       3.347   1.863  18.090  0.00  0.00    +0.000 A 
ATOM     11  C   UNL     1       4.191   2.607  18.897  0.00  0.00    +0.000 A 
ATOM     12  N   UNL     1       4.022   3.935  19.091  0.00  0.00    +0.000 NA
ENDBRANCH   6   7
BRANCH   3  13
ATOM     13  S   UNL     1       1.140   8.920  20.575  0.00  0.00    +0.000 S 
BRANCH  13  14
ATOM     14  C   UNL     1       1.052  10.425  19.550  0.00  0.00    +0.000 C 
BRANCH  14  15
ATOM     15  C   UNL     1      -0.271  10.561  18.878  0.00  0.00    +0.000 A 
ATOM     16  N   UNL     1      -1.345  11.166  19.352  0.00  0.00    +0.000 NA
ATOM     17  C   UNL     1      -2.296  11.061  18.369  0.00  0.00    +0.000 A 
ATOM     18  C   UNL     1      -3.612  11.528  18.337  0.00  0.00    +0.000 A 
ATOM     19  C   UNL     1      -4.388  11.290  17.195  0.00  0.00    +0.000 A 
ATOM     20  C   UNL     1      -3.855  10.599  16.103  0.00  0.00    +0.000 A 
ATOM     21  C   UNL     1      -2.537  10.127  16.114  0.00  0.00    +0.000 A 
ATOM     22  C   UNL     1      -1.791  10.375  17.262  0.00  0.00    +0.000 A 
ATOM     23  N   UNL     1      -0.501  10.075  17.616  0.00  0.00    +0.000 N 
ATOM     24  H   UNL     1       0.174   9.579  17.046  0.00  0.00    +0.000 HD
ENDBRANCH  14  15
ENDBRANCH  13  14
ENDBRANCH   3  13
TORSDOF 4
ENDMDL
MODEL 3
REMARK VINA RESULT:      -7.5      3.647      5.470
REMARK  Name = 
REMARK  5 active torsions:
REMARK  status: ('A' for Active; 'I' for Inactive)
REMARK    1  A    between atoms: C_1  and  N_2
REMARK    2  A    between atoms: C_3  and  S_4
REMARK    3  A    between atoms: S_4  and  C_5
REMARK    4  A    between atoms: C_5  and  C_6
REMARK    5  A    between atoms: C_17  and  C_18
REMARK                            x       y       z     vdW  Elec       q    Type
REMARK                         _______ _______ _______ _____ _____    ______ ____
ROOT
ATOM      1  C   UNL     1       1.797   6.443  20.752  0.00  0.00    +0.000 C 
ATOM      2  N   UNL     1       2.035   7.341  19.649  0.00  0.00    +0.000 N 
ATOM      3  C   UNL     1       1.624   8.637  19.481  0.00  0.00    +0.000 A 
ATOM      4  N   UNL     1       2.024   9.080  18.313  0.00  0.00    +0.000 NA
ATOM      5  N   UNL     1       2.685   8.051  17.680  0.00  0.00    +0.000 NA
ATOM      6  C   UNL     1       2.685   6.993  18.476  0.00  0.00    +0.000 A 
ENDROOT
BRANCH   6   7
ATOM      7  C   UNL     1       3.202   5.664  18.150  0.00  0.00    +0.000 A 
ATOM      8  C   UNL     1       4.556   5.366  18.232  0.00  0.00    +0.000 A 
ATOM      9  N   UNL     1       5.071   4.165  17.856  0.00  0.00    +0.000 NA
ATOM     10  C   UNL     1       4.170   3.262  17.411  0.00  0.00    +0.000 A 
ATOM     11  C   UNL     1       2.815   3.542  17.345  0.00  0.00    +0.000 A 
ATOM     12  N   UNL     1       2.306   4.742  17.703  0.00  0.00    +0.000 NA
ENDBRANCH   6   7
BRANCH   3  13
ATOM     13  S   UNL     1       0.732   9.548  20.648  0.00  0.00    +0.000 S 
BRANCH  13  14
ATOM     14  C   UNL     1       0.460  11.137  19.796  0.00  0.00    +0.000 C 
BRANCH  14  15
ATOM     15  C   UNL     1      -0.772  11.112  18.958  0.00  0.00    +0.000 A 
ATOM     16  N   UNL     1      -1.966  11.571  19.287  0.00  0.00    +0.000 NA
ATOM     17  C   UNL     1      -2.762  11.358  18.190  0.00  0.00    +0.000 A 
ATOM     18  C   UNL     1      -4.111  11.655  17.987  0.00  0.00    +0.000 A 
ATOM     19  C   UNL     1      -4.698  11.335  16.755  0.00  0.00    +0.000 A 
ATOM     20  C   UNL     1      -3.945  10.730  15.744  0.00  0.00    +0.000 A 
ATOM     21  C   UNL     1      -2.591  10.428  15.927  0.00  0.00    +0.000 A 
ATOM     22  C   UNL     1      -2.036  10.755  17.161  0.00  0.00    +0.000 A 
ATOM     23  N   UNL     1      -0.775  10.616  17.679  0.00  0.00    +0.000 N 
ATOM     24  H   UNL     1       0.025  10.216  17.203  0.00  0.00    +0.000 HD
ENDBRANCH  14  15
ENDBRANCH  13  14
ENDBRANCH   3  13
TORSDOF 4
ENDMDL
MODEL 4
REMARK VINA RESULT:      -7.4      1.870      2.577
REMARK  Name = 
REMARK  5 active torsions:
REMARK  status: ('A' for Active; 'I' for Inactive)
REMARK    1  A    between atoms: C_1  and  N_2
REMARK    2  A    between atoms: C_3  and  S_4
REMARK    3  A    between atoms: S_4  and  C_5
REMARK    4  A    between atoms: C_5  and  C_6
REMARK    5  A    between atoms: C_17  and  C_18
REMARK                            x       y       z     vdW  Elec       q    Type
REMARK                         _______ _______ _______ _____ _____    ______ ____
ROOT
ATOM      1  C   UNL     1       4.926   6.080  16.126  0.00  0.00    +0.000 C 
ATOM      2  N   UNL     1       6.029   5.338  16.685  0.00  0.00    +0.000 N 
ATOM      3  C   UNL     1       6.395   5.185  17.997  0.00  0.00    +0.000 A 
ATOM      4  N   UNL     1       7.488   4.461  18.069  0.00  0.00    +0.000 NA
ATOM      5  N   UNL     1       7.872   4.155  16.782  0.00  0.00    +0.000 NA
ATOM      6  C   UNL     1       7.003   4.692  15.940  0.00  0.00    +0.000 A 
ENDROOT
BRANCH   6   7
ATOM      7  C   UNL     1       7.092   4.683  14.480  0.00  0.00    +0.000 A 
ATOM      8  C   UNL     1       6.347   3.802  13.708  0.00  0.00    +0.000 A 
ATOM      9  N   UNL     1       6.472   3.717  12.356  0.00  0.00    +0.000 NA
ATOM     10  C   UNL     1       7.364   4.569  11.803  0.00  0.00    +0.000 A 
ATOM     11  C   UNL     1       8.098   5.466  12.562  0.00  0.00    +0.000 A 
ATOM     12  N   UNL     1       7.984   5.537  13.908  0.00  0.00    +0.000 NA
ENDBRANCH   6   7
BRANCH   3  13
ATOM     13  S   UNL     1       5.530   5.831  19.345  0.00  0.00    +0.000 S 
BRANCH  13  14
ATOM     14  C   UNL     1       3.793   5.486  18.912  0.00  0.00    +0.000 C 
BRANCH  14  15
ATOM     15  C   UNL     1       2.913   6.660  19.171  0.00  0.00    +0.000 A 
ATOM     16  N   UNL     1       2.534   7.578  18.299  0.00  0.00    +0.000 NA
ATOM     17  C   UNL     1       1.709   8.429  18.990  0.00  0.00    +0.000 A 
ATOM     18  C   UNL     1       1.027   9.568  18.557  0.00  0.00    +0.000 A 
ATOM     19  C   UNL     1       0.233  10.272  19.472  0.00  0.00    +0.000 A 
ATOM     20  C   UNL     1       0.122   9.841  20.797  0.00  0.00    +0.000 A 
ATOM     21  C   UNL     1       0.794   8.700  21.249  0.00  0.00    +0.000 A 
ATOM     22  C   UNL     1       1.578   8.022  20.319  0.00  0.00    +0.000 A 
ATOM     23  N   UNL     1       2.351   6.894  20.401  0.00  0.00    +0.000 N 
ATOM     24  H   UNL     1       2.488   6.323  21.227  0.00  0.00    +0.000 HD
ENDBRANCH  14  15
ENDBRANCH  13  14
ENDBRANCH   3  13
TORSDOF 4
ENDMDL
MODEL 5
REMARK VINA RESULT:      -7.3      3.324      5.217
REMARK  Name = 
REMARK  5 active torsions:
REMARK  status: ('A' for Active; 'I' for Inactive)
REMARK    1  A    between atoms: C_1  and  N_2
REMARK    2  A    between atoms: C_3  and  S_4
REMARK    3  A    between atoms: S_4  and  C_5
REMARK    4  A    between atoms: C_5  and  C_6
REMARK    5  A    between atoms: C_17  and  C_18
REMARK                            x       y       z     vdW  Elec       q    Type
REMARK                         _______ _______ _______ _____ _____    ______ ____
ROOT
ATOM      1  C   UNL     1       1.431   5.581  20.891  0.00  0.00    +0.000 C 
ATOM      2  N   UNL     1       2.082   6.272  19.805  0.00  0.00    +0.000 N 
ATOM      3  C   UNL     1       2.040   7.601  19.474  0.00  0.00    +0.000 A 
ATOM      4  N   UNL     1       2.745   7.808  18.387  0.00  0.00    +0.000 NA
ATOM      5  N   UNL     1       3.237   6.591  17.970  0.00  0.00    +0.000 NA
ATOM      6  C   UNL     1       2.830   5.657  18.815  0.00  0.00    +0.000 A 
ENDROOT
BRANCH   6   7
ATOM      7  C   UNL     1       3.054   4.216  18.687  0.00  0.00    +0.000 A 
ATOM      8  C   UNL     1       4.022   3.559  19.434  0.00  0.00    +0.000 A 
ATOM      9  N   UNL     1       4.307   2.238  19.276  0.00  0.00    +0.000 NA
ATOM     10  C   UNL     1       3.565   1.594  18.348  0.00  0.00    +0.000 A 
ATOM     11  C   UNL     1       2.583   2.236  17.611  0.00  0.00    +0.000 A 
ATOM     12  N   UNL     1       2.313   3.553  17.759  0.00  0.00    +0.000 NA
ENDBRANCH   6   7
BRANCH   3  13
ATOM     13  S   UNL     1       1.202   8.816  20.373  0.00  0.00    +0.000 S 
BRANCH  13  14
ATOM     14  C   UNL     1       1.155  10.218  19.208  0.00  0.00    +0.000 C 
BRANCH  14  15
ATOM     15  C   UNL     1      -0.212  10.433  18.655  0.00  0.00    +0.000 A 
ATOM     16  N   UNL     1      -1.219  11.051  19.245  0.00  0.00    +0.000 NA
ATOM     17  C   UNL     1      -2.251  11.029  18.341  0.00  0.00    +0.000 A 
ATOM     18  C   UNL     1      -3.545  11.543  18.440  0.00  0.00    +0.000 A 
ATOM     19  C   UNL     1      -4.421  11.390  17.356  0.00  0.00    +0.000 A 
ATOM     20  C   UNL     1      -4.005  10.736  16.193  0.00  0.00    +0.000 A 
ATOM     21  C   UNL     1      -2.711  10.218  16.072  0.00  0.00    +0.000 A 
ATOM     22  C   UNL     1      -1.864  10.382  17.165  0.00  0.00    +0.000 A 
ATOM     23  N   UNL     1      -0.563  10.019  17.395  0.00  0.00    +0.000 N 
ATOM     24  H   UNL     1       0.043   9.529  16.748  0.00  0.00    +0.000 HD
ENDBRANCH  14  15
ENDBRANCH  13  14
ENDBRANCH   3  13
TORSDOF 4
ENDMDL
MODEL 6
REMARK VINA RESULT:      -7.3      5.275      6.698
REMARK  Name = 
REMARK  5 active torsions:
REMARK  status: ('A' for Active; 'I' for Inactive)
REMARK    1  A    between atoms: C_1  and  N_2
REMARK    2  A    between atoms: C_3  and  S_4
REMARK    3  A    between atoms: S_4  and  C_5
REMARK    4  A    between atoms: C_5  and  C_6
REMARK    5  A    between atoms: C_17  and  C_18
REMARK                            x       y       z     vdW  Elec       q    Type
REMARK                         _______ _______ _______ _____ _____    ______ ____
ROOT
ATOM      1  C   UNL     1       4.237   6.920  17.472  0.00  0.00    +0.000 C 
ATOM      2  N   UNL     1       5.327   6.081  17.909  0.00  0.00    +0.000 N 
ATOM      3  C   UNL     1       6.673   6.338  17.907  0.00  0.00    +0.000 A 
ATOM      4  N   UNL     1       7.323   5.289  18.353  0.00  0.00    +0.000 NA
ATOM      5  N   UNL     1       6.396   4.307  18.625  0.00  0.00    +0.000 NA
ATOM      6  C   UNL     1       5.189   4.774  18.347  0.00  0.00    +0.000 A 
ENDROOT
BRANCH   6   7
ATOM      7  C   UNL     1       3.935   4.023  18.408  0.00  0.00    +0.000 A 
ATOM      8  C   UNL     1       3.349   3.487  17.268  0.00  0.00    +0.000 A 
ATOM      9  N   UNL     1       2.144   2.857  17.285  0.00  0.00    +0.000 NA
ATOM     10  C   UNL     1       1.555   2.767  18.498  0.00  0.00    +0.000 A 
ATOM     11  C   UNL     1       2.139   3.281  19.643  0.00  0.00    +0.000 A 
ATOM     12  N   UNL     1       3.330   3.922  19.622  0.00  0.00    +0.000 NA
ENDBRANCH   6   7
BRANCH   3  13
ATOM     13  S   UNL     1       7.393   7.829  17.413  0.00  0.00    +0.000 S 
BRANCH  13  14
ATOM     14  C   UNL     1       8.592   8.159  18.747  0.00  0.00    +0.000 C 
BRANCH  14  15
ATOM     15  C   UNL     1       8.947   9.604  18.828  0.00  0.00    +0.000 A 
ATOM     16  N   UNL     1       8.872  10.496  17.857  0.00  0.00    +0.000 NA
ATOM     17  C   UNL     1       9.269  11.686  18.414  0.00  0.00    +0.000 A 
ATOM     18  C   UNL     1       9.374  12.955  17.842  0.00  0.00    +0.000 A 
ATOM     19  C   UNL     1       9.807  14.024  18.639  0.00  0.00    +0.000 A 
ATOM     20  C   UNL     1      10.127  13.825  19.985  0.00  0.00    +0.000 A 
ATOM     21  C   UNL     1      10.024  12.561  20.577  0.00  0.00    +0.000 A 
ATOM     22  C   UNL     1       9.594  11.518  19.762  0.00  0.00    +0.000 A 
ATOM     23  N   UNL     1       9.375  10.185  19.994  0.00  0.00    +0.000 N 
ATOM     24  H   UNL     1       9.504   9.705  20.877  0.00  0.00    +0.000 HD
ENDBRANCH  14  15
ENDBRANCH  13  14
ENDBRANCH   3  13
TORSDOF 4
ENDMDL
MODEL 7
REMARK VINA RESULT:      -7.3      5.321      7.081
REMARK  Name = 
REMARK  5 active torsions:
REMARK  status: ('A' for Active; 'I' for Inactive)
REMARK    1  A    between atoms: C_1  and  N_2
REMARK    2  A    between atoms: C_3  and  S_4
REMARK    3  A    between atoms: S_4  and  C_5
REMARK    4  A    between atoms: C_5  and  C_6
REMARK    5  A    between atoms: C_17  and  C_18
REMARK                            x       y       z     vdW  Elec       q    Type
REMARK                         _______ _______ _______ _____ _____    ______ ____
ROOT
ATOM      1  C   UNL     1       5.899   5.362  19.450  0.00  0.00    +0.000 C 
ATOM      2  N   UNL     1       5.862   5.685  18.044  0.00  0.00    +0.000 N 
ATOM      3  C   UNL     1       6.649   6.552  17.333  0.00  0.00    +0.000 A 
ATOM      4  N   UNL     1       6.256   6.581  16.081  0.00  0.00    +0.000 NA
ATOM      5  N   UNL     1       5.169   5.743  15.966  0.00  0.00    +0.000 NA
ATOM      6  C   UNL     1       4.917   5.208  17.150  0.00  0.00    +0.000 A 
ENDROOT
BRANCH   6   7
ATOM      7  C   UNL     1       3.792   4.335  17.485  0.00  0.00    +0.000 A 
ATOM      8  C   UNL     1       2.554   4.846  17.850  0.00  0.00    +0.000 A 
ATOM      9  N   UNL     1       1.517   4.059  18.245  0.00  0.00    +0.000 NA
ATOM     10  C   UNL     1       1.765   2.731  18.239  0.00  0.00    +0.000 A 
ATOM     11  C   UNL     1       2.990   2.209  17.857  0.00  0.00    +0.000 A 
ATOM     12  N   UNL     1       4.025   2.994  17.481  0.00  0.00    +0.000 NA
ENDBRANCH   6   7
BRANCH   3  13
ATOM     13  S   UNL     1       7.972   7.449  17.989  0.00  0.00    +0.000 S 
BRANCH  13  14
ATOM     14  C   UNL     1       7.456   9.178  17.726  0.00  0.00    +0.000 C 
BRANCH  14  15
ATOM     15  C   UNL     1       8.487  10.143  18.202  0.00  0.00    +0.000 A 
ATOM     16  N   UNL     1       9.335   9.972  19.201  0.00  0.00    +0.000 NA
ATOM     17  C   UNL     1      10.102  11.108  19.237  0.00  0.00    +0.000 A 
ATOM     18  C   UNL     1      11.152  11.458  20.088  0.00  0.00    +0.000 A 
ATOM     19  C   UNL     1      11.785  12.696  19.912  0.00  0.00    +0.000 A 
ATOM     20  C   UNL     1      11.375  13.567  18.898  0.00  0.00    +0.000 A 
ATOM     21  C   UNL     1      10.328  13.233  18.032  0.00  0.00    +0.000 A 
ATOM     22  C   UNL     1       9.716  11.999  18.232  0.00  0.00    +0.000 A 
ATOM     23  N   UNL     1       8.691  11.354  17.591  0.00  0.00    +0.000 N 
ATOM     24  H   UNL     1       8.169  11.706  16.797  0.00  0.00    +0.000 HD
ENDBRANCH  14  15
ENDBRANCH  13  14
ENDBRANCH   3  13
TORSDOF 4
ENDMDL
MODEL 8
REMARK VINA RESULT:      -7.3      2.809      7.164
REMARK  Name = 
REMARK  5 active torsions:
REMARK  status: ('A' for Active; 'I' for Inactive)
REMARK    1  A    between atoms: C_1  and  N_2
REMARK    2  A    between atoms: C_3  and  S_4
REMARK    3  A    between atoms: S_4  and  C_5
REMARK    4  A    between atoms: C_5  and  C_6
REMARK    5  A    between atoms: C_17  and  C_18
REMARK                            x       y       z     vdW  Elec       q    Type
REMARK                         _______ _______ _______ _____ _____    ______ ____
ROOT
ATOM      1  C   UNL     1       5.435   4.524  19.105  0.00  0.00    +0.000 C 
ATOM      2  N   UNL     1       4.553   5.526  18.557  0.00  0.00    +0.000 N 
ATOM      3  C   UNL     1       4.863   6.676  17.880  0.00  0.00    +0.000 A 
ATOM      4  N   UNL     1       3.761   7.328  17.590  0.00  0.00    +0.000 NA
ATOM      5  N   UNL     1       2.704   6.616  18.112  0.00  0.00    +0.000 NA
ATOM      6  C   UNL     1       3.176   5.532  18.708  0.00  0.00    +0.000 A 
ENDROOT
BRANCH   6   7
ATOM      7  C   UNL     1       2.398   4.554  19.469  0.00  0.00    +0.000 A 
ATOM      8  C   UNL     1       2.391   4.546  20.858  0.00  0.00    +0.000 A 
ATOM      9  N   UNL     1       1.743   3.599  21.587  0.00  0.00    +0.000 NA
ATOM     10  C   UNL     1       1.082   2.666  20.867  0.00  0.00    +0.000 A 
ATOM     11  C   UNL     1       1.066   2.676  19.483  0.00  0.00    +0.000 A 
ATOM     12  N   UNL     1       1.724   3.609  18.758  0.00  0.00    +0.000 NA
ENDBRANCH   6   7
BRANCH   3  13
ATOM     13  S   UNL     1       6.463   7.171  17.455  0.00  0.00    +0.000 S 
BRANCH  13  14
ATOM     14  C   UNL     1       7.297   5.587  17.112  0.00  0.00    +0.000 C 
BRANCH  14  15
ATOM     15  C   UNL     1       7.050   5.121  15.719  0.00  0.00    +0.000 A 
ATOM     16  N   UNL     1       7.784   5.383  14.651  0.00  0.00    +0.000 NA
ATOM     17  C   UNL     1       7.183   4.715  13.614  0.00  0.00    +0.000 A 
ATOM     18  C   UNL     1       7.541   4.640  12.266  0.00  0.00    +0.000 A 
ATOM     19  C   UNL     1       6.751   3.875  11.397  0.00  0.00    +0.000 A 
ATOM     20  C   UNL     1       5.624   3.196  11.870  0.00  0.00    +0.000 A 
ATOM     21  C   UNL     1       5.252   3.256  13.218  0.00  0.00    +0.000 A 
ATOM     22  C   UNL     1       6.053   4.025  14.058  0.00  0.00    +0.000 A 
ATOM     23  N   UNL     1       5.999   4.300  15.399  0.00  0.00    +0.000 N 
ATOM     24  H   UNL     1       5.303   3.957  16.051  0.00  0.00    +0.000 HD
ENDBRANCH  14  15
ENDBRANCH  13  14
ENDBRANCH   3  13
TORSDOF 4
ENDMDL
MODEL 9
REMARK VINA RESULT:      -7.3      5.113      6.664
REMARK  Name = 
REMARK  5 active torsions:
REMARK  status: ('A' for Active; 'I' for Inactive)
REMARK    1  A    between atoms: C_1  and  N_2
REMARK    2  A    between atoms: C_3  and  S_4
REMARK    3  A    between atoms: S_4  and  C_5
REMARK    4  A    between atoms: C_5  and  C_6
REMARK    5  A    between atoms: C_17  and  C_18
REMARK                            x       y       z     vdW  Elec       q    Type
REMARK                         _______ _______ _______ _____ _____    ______ ____
ROOT
ATOM      1  C   UNL     1       4.348   6.822  17.294  0.00  0.00    +0.000 C 
ATOM      2  N   UNL     1       5.323   6.007  17.976  0.00  0.00    +0.000 N 
ATOM      3  C   UNL     1       6.677   6.184  18.087  0.00  0.00    +0.000 A 
ATOM      4  N   UNL     1       7.199   5.187  18.762  0.00  0.00    +0.000 NA
ATOM      5  N   UNL     1       6.180   4.316  19.076  0.00  0.00    +0.000 NA
ATOM      6  C   UNL     1       5.046   4.798  18.594  0.00  0.00    +0.000 A 
ENDROOT
BRANCH   6   7
ATOM      7  C   UNL     1       3.740   4.138  18.628  0.00  0.00    +0.000 A 
ATOM      8  C   UNL     1       3.284   3.366  17.568  0.00  0.00    +0.000 A 
ATOM      9  N   UNL     1       2.043   2.810  17.539  0.00  0.00    +0.000 NA
ATOM     10  C   UNL     1       1.280   3.043  18.630  0.00  0.00    +0.000 A 
ATOM     11  C   UNL     1       1.732   3.794  19.702  0.00  0.00    +0.000 A 
ATOM     12  N   UNL     1       2.961   4.360  19.721  0.00  0.00    +0.000 NA
ENDBRANCH   6   7
BRANCH   3  13
ATOM     13  S   UNL     1       7.551   7.533  17.452  0.00  0.00    +0.000 S 
BRANCH  13  14
ATOM     14  C   UNL     1       8.600   8.031  18.857  0.00  0.00    +0.000 C 
BRANCH  14  15
ATOM     15  C   UNL     1       8.857   9.499  18.864  0.00  0.00    +0.000 A 
ATOM     16  N   UNL     1       9.552  10.180  19.758  0.00  0.00    +0.000 NA
ATOM     17  C   UNL     1       9.538  11.482  19.327  0.00  0.00    +0.000 A 
ATOM     18  C   UNL     1      10.120  12.621  19.887  0.00  0.00    +0.000 A 
ATOM     19  C   UNL     1       9.960  13.853  19.238  0.00  0.00    +0.000 A 
ATOM     20  C   UNL     1       9.232  13.942  18.049  0.00  0.00    +0.000 A 
ATOM     21  C   UNL     1       8.645  12.811  17.469  0.00  0.00    +0.000 A 
ATOM     22  C   UNL     1       8.818  11.602  18.136  0.00  0.00    +0.000 A 
ATOM     23  N   UNL     1       8.402  10.324  17.868  0.00  0.00    +0.000 N 
ATOM     24  H   UNL     1       7.852  10.031  17.068  0.00  0.00    +0.000 HD
ENDBRANCH  14  15
ENDBRANCH  13  14
ENDBRANCH   3  13
TORSDOF 4
ENDMDL
