MODEL 1
REMARK VINA RESULT:      -7.2      0.000      0.000
REMARK  Name = 
REMARK  8 active torsions:
REMARK  status: ('A' for Active; 'I' for Inactive)
REMARK    1  A    between atoms: C_2  and  C_3
REMARK    2  A    between atoms: C_3  and  O_4
REMARK    3  A    between atoms: O_4  and  C_5
REMARK    4  A    between atoms: C_8  and  C_9
REMARK    5  A    between atoms: C_9  and  C_11
REMARK    6  A    between atoms: C_12  and  C_13
REMARK    7  A    between atoms: C_19  and  O_20
REMARK    8  A    between atoms: O_20  and  C_21
REMARK                            x       y       z     vdW  Elec       q    Type
REMARK                         _______ _______ _______ _____ _____    ______ ____
ROOT
ATOM      1  C   UNL     1       6.365   4.165  14.534  0.00  0.00    +0.000 A 
ATOM      2  C   UNL     1       5.102   3.746  14.943  0.00  0.00    +0.000 A 
ATOM      3  C   UNL     1       4.702   3.902  16.277  0.00  0.00    +0.000 A 
ATOM      4  C   UNL     1       5.540   4.513  17.225  0.00  0.00    +0.000 A 
ATOM      5  C   UNL     1       6.802   4.980  16.796  0.00  0.00    +0.000 A 
ATOM      6  C   UNL     1       7.198   4.802  15.452  0.00  0.00    +0.000 A 
ENDROOT
BRANCH   4   7
ATOM      7  C   UNL     1       5.054   4.579  18.661  0.00  0.00    +0.000 C 
ATOM      8  O   UNL     1       5.414   3.771  19.494  0.00  0.00    +0.000 OA
BRANCH   7   9
ATOM      9  C   UNL     1       4.071   5.658  19.032  0.00  0.00    +0.000 C 
ATOM     10  C   UNL     1       3.545   6.526  18.147  0.00  0.00    +0.000 C 
BRANCH  10  11
ATOM     11  C   UNL     1       2.628   7.581  18.609  0.00  0.00    +0.000 A 
ATOM     12  C   UNL     1       2.136   7.584  19.918  0.00  0.00    +0.000 A 
ATOM     13  C   UNL     1       1.237   8.572  20.291  0.00  0.00    +0.000 A 
ATOM     14  N   UNL     1       0.800   9.538  19.460  0.00  0.00    +0.000 NA
ATOM     15  C   UNL     1       1.291   9.520  18.201  0.00  0.00    +0.000 A 
ATOM     16  C   UNL     1       2.193   8.574  17.733  0.00  0.00    +0.000 A 
ENDBRANCH  10  11
ENDBRANCH   7   9
ENDBRANCH   4   7
BRANCH   5  17
ATOM     17  O   UNL     1       7.568   5.710  17.676  0.00  0.00    +0.000 OA
ATOM     18  C   UNL     1       7.512   7.135  17.591  0.00  0.00    +0.000 C 
ENDBRANCH   5  17
BRANCH   1  19
ATOM     19  O   UNL     1       6.669   3.986  13.207  0.00  0.00    +0.000 OA
BRANCH  19  20
ATOM     20  C   UNL     1       5.609   3.492  12.378  0.00  0.00    +0.000 C 
BRANCH  20  22
ATOM     21  C   UNL     1       6.498   1.164  11.050  0.00  0.00    +0.000 C 
ATOM     22  C   UNL     1       6.088   2.240  11.663  0.00  0.00    +0.000 C 
ENDBRANCH  20  22
ENDBRANCH  19  20
ENDBRANCH   1  19
TORSDOF 7
ENDMDL
MODEL 2
REMARK VINA RESULT:      -6.9      1.255      1.836
REMARK  Name = 
REMARK  8 active torsions:
REMARK  status: ('A' for Active; 'I' for Inactive)
REMARK    1  A    between atoms: C_2  and  C_3
REMARK    2  A    between atoms: C_3  and  O_4
REMARK    3  A    between atoms: O_4  and  C_5
REMARK    4  A    between atoms: C_8  and  C_9
REMARK    5  A    between atoms: C_9  and  C_11
REMARK    6  A    between atoms: C_12  and  C_13
REMARK    7  A    between atoms: C_19  and  O_20
REMARK    8  A    between atoms: O_20  and  C_21
REMARK                            x       y       z     vdW  Elec       q    Type
REMARK                         _______ _______ _______ _____ _____    ______ ____
ROOT
ATOM      1  C   UNL     1       6.666   4.419  16.014  0.00  0.00    +0.000 A 
ATOM      2  C   UNL     1       5.312   4.159  15.822  0.00  0.00    +0.000 A 
ATOM      3  C   UNL     1       4.425   4.184  16.906  0.00  0.00    +0.000 A 
ATOM      4  C   UNL     1       4.863   4.505  18.202  0.00  0.00    +0.000 A 
ATOM      5  C   UNL     1       6.229   4.815  18.385  0.00  0.00    +0.000 A 
ATOM      6  C   UNL     1       7.114   4.771  17.286  0.00  0.00    +0.000 A 
ENDROOT
BRANCH   4   7
ATOM      7  C   UNL     1       3.848   4.441  19.328  0.00  0.00    +0.000 C 
ATOM      8  O   UNL     1       3.672   3.426  19.971  0.00  0.00    +0.000 OA
BRANCH   7   9
ATOM      9  C   UNL     1       3.022   5.669  19.613  0.00  0.00    +0.000 C 
ATOM     10  C   UNL     1       2.893   6.699  18.755  0.00  0.00    +0.000 C 
BRANCH  10  11
ATOM     11  C   UNL     1       2.104   7.880  19.140  0.00  0.00    +0.000 A 
ATOM     12  C   UNL     1       1.879   8.921  18.234  0.00  0.00    +0.000 A 
ATOM     13  C   UNL     1       1.169  10.035  18.659  0.00  0.00    +0.000 A 
ATOM     14  N   UNL     1       0.681  10.179  19.906  0.00  0.00    +0.000 NA
ATOM     15  C   UNL     1       0.905   9.159  20.764  0.00  0.00    +0.000 A 
ATOM     16  C   UNL     1       1.604   8.006  20.435  0.00  0.00    +0.000 A 
ENDBRANCH  10  11
ENDBRANCH   7   9
ENDBRANCH   4   7
BRANCH   5  17
ATOM     17  O   UNL     1       6.640   5.274  19.616  0.00  0.00    +0.000 OA
ATOM     18  C   UNL     1       8.014   5.636  19.772  0.00  0.00    +0.000 C 
ENDBRANCH   5  17
BRANCH   1  19
ATOM     19  O   UNL     1       7.460   4.387  14.895  0.00  0.00    +0.000 OA
BRANCH  19  20
ATOM     20  C   UNL     1       6.903   4.966  13.708  0.00  0.00    +0.000 C 
BRANCH  20  22
ATOM     21  C   UNL     1       6.012   2.893  12.011  0.00  0.00    +0.000 C 
ATOM     22  C   UNL     1       6.423   3.851  12.795  0.00  0.00    +0.000 C 
ENDBRANCH  20  22
ENDBRANCH  19  20
ENDBRANCH   1  19
TORSDOF 7
ENDMDL
MODEL 3
REMARK VINA RESULT:      -6.7      1.205      1.417
REMARK  Name = 
REMARK  8 active torsions:
REMARK  status: ('A' for Active; 'I' for Inactive)
REMARK    1  A    between atoms: C_2  and  C_3
REMARK    2  A    between atoms: C_3  and  O_4
REMARK    3  A    between atoms: O_4  and  C_5
REMARK    4  A    between atoms: C_8  and  C_9
REMARK    5  A    between atoms: C_9  and  C_11
REMARK    6  A    between atoms: C_12  and  C_13
REMARK    7  A    between atoms: C_19  and  O_20
REMARK    8  A    between atoms: O_20  and  C_21
REMARK                            x       y       z     vdW  Elec       q    Type
REMARK                         _______ _______ _______ _____ _____    ______ ____
ROOT
ATOM      1  C   UNL     1       6.760   4.550  15.737  0.00  0.00    +0.000 A 
ATOM      2  C   UNL     1       5.391   4.429  15.511  0.00  0.00    +0.000 A 
ATOM      3  C   UNL     1       4.495   4.408  16.587  0.00  0.00    +0.000 A 
ATOM      4  C   UNL     1       4.941   4.543  17.912  0.00  0.00    +0.000 A 
ATOM      5  C   UNL     1       6.325   4.714  18.136  0.00  0.00    +0.000 A 
ATOM      6  C   UNL     1       7.218   4.719  17.042  0.00  0.00    +0.000 A 
ENDROOT
BRANCH   4   7
ATOM      7  C   UNL     1       3.909   4.441  19.020  0.00  0.00    +0.000 C 
ATOM      8  O   UNL     1       3.622   3.375  19.527  0.00  0.00    +0.000 OA
BRANCH   7   9
ATOM      9  C   UNL     1       3.207   5.699  19.459  0.00  0.00    +0.000 C 
ATOM     10  C   UNL     1       2.678   6.597  18.606  0.00  0.00    +0.000 C 
BRANCH  10  11
ATOM     11  C   UNL     1       2.053   7.824  19.125  0.00  0.00    +0.000 A 
ATOM     12  C   UNL     1       1.691   7.933  20.472  0.00  0.00    +0.000 A 
ATOM     13  C   UNL     1       1.062   9.092  20.902  0.00  0.00    +0.000 A 
ATOM     14  N   UNL     1       0.771  10.129  20.093  0.00  0.00    +0.000 NA
ATOM     15  C   UNL     1       1.133  10.005  18.797  0.00  0.00    +0.000 A 
ATOM     16  C   UNL     1       1.765   8.887  18.271  0.00  0.00    +0.000 A 
ENDBRANCH  10  11
ENDBRANCH   7   9
ENDBRANCH   4   7
BRANCH   5  17
ATOM     17  O   UNL     1       6.757   4.996  19.412  0.00  0.00    +0.000 OA
ATOM     18  C   UNL     1       7.921   5.811  19.562  0.00  0.00    +0.000 C 
ENDBRANCH   5  17
BRANCH   1  19
ATOM     19  O   UNL     1       7.564   4.576  14.624  0.00  0.00    +0.000 OA
BRANCH  19  20
ATOM     20  C   UNL     1       6.941   4.998  13.404  0.00  0.00    +0.000 C 
BRANCH  20  22
ATOM     21  C   UNL     1       6.101   2.715  11.970  0.00  0.00    +0.000 C 
ATOM     22  C   UNL     1       6.489   3.770  12.633  0.00  0.00    +0.000 C 
ENDBRANCH  20  22
ENDBRANCH  19  20
ENDBRANCH   1  19
TORSDOF 7
ENDMDL
MODEL 4
REMARK VINA RESULT:      -6.6      1.915      3.534
REMARK  Name = 
REMARK  8 active torsions:
REMARK  status: ('A' for Active; 'I' for Inactive)
REMARK    1  A    between atoms: C_2  and  C_3
REMARK    2  A    between atoms: C_3  and  O_4
REMARK    3  A    between atoms: O_4  and  C_5
REMARK    4  A    between atoms: C_8  and  C_9
REMARK    5  A    between atoms: C_9  and  C_11
REMARK    6  A    between atoms: C_12  and  C_13
REMARK    7  A    between atoms: C_19  and  O_20
REMARK    8  A    between atoms: O_20  and  C_21
REMARK                            x       y       z     vdW  Elec       q    Type
REMARK                         _______ _______ _______ _____ _____    ______ ____
ROOT
ATOM      1  C   UNL     1       5.653   4.347  16.913  0.00  0.00    +0.000 A 
ATOM      2  C   UNL     1       6.046   5.075  18.033  0.00  0.00    +0.000 A 
ATOM      3  C   UNL     1       5.100   5.465  18.991  0.00  0.00    +0.000 A 
ATOM      4  C   UNL     1       3.747   5.108  18.871  0.00  0.00    +0.000 A 
ATOM      5  C   UNL     1       3.360   4.329  17.757  0.00  0.00    +0.000 A 
ATOM      6  C   UNL     1       4.321   3.956  16.793  0.00  0.00    +0.000 A 
ENDROOT
BRANCH   4   7
ATOM      7  C   UNL     1       2.781   5.631  19.917  0.00  0.00    +0.000 C 
ATOM      8  O   UNL     1       2.383   4.930  20.826  0.00  0.00    +0.000 OA
BRANCH   7   9
ATOM      9  C   UNL     1       2.285   7.048  19.784  0.00  0.00    +0.000 C 
ATOM     10  C   UNL     1       1.522   7.662  20.708  0.00  0.00    +0.000 C 
BRANCH  10  11
ATOM     11  C   UNL     1       1.042   9.033  20.470  0.00  0.00    +0.000 A 
ATOM     12  C   UNL     1       1.001   9.568  19.178  0.00  0.00    +0.000 A 
ATOM     13  C   UNL     1       0.586  10.880  19.011  0.00  0.00    +0.000 A 
ATOM     14  N   UNL     1       0.220  11.684  20.028  0.00  0.00    +0.000 NA
ATOM     15  C   UNL     1       0.263  11.147  21.268  0.00  0.00    +0.000 A 
ATOM     16  C   UNL     1       0.664   9.846  21.537  0.00  0.00    +0.000 A 
ENDBRANCH  10  11
ENDBRANCH   7   9
ENDBRANCH   4   7
BRANCH   5  17
ATOM     17  O   UNL     1       2.072   3.849  17.706  0.00  0.00    +0.000 OA
ATOM     18  C   UNL     1       1.827   2.531  18.199  0.00  0.00    +0.000 C 
ENDBRANCH   5  17
BRANCH   1  19
ATOM     19  O   UNL     1       6.646   3.995  16.033  0.00  0.00    +0.000 OA
BRANCH  19  20
ATOM     20  C   UNL     1       6.800   4.837  14.884  0.00  0.00    +0.000 C 
BRANCH  20  22
ATOM     21  C   UNL     1       5.941   3.423  12.595  0.00  0.00    +0.000 C 
ATOM     22  C   UNL     1       6.337   4.076  13.652  0.00  0.00    +0.000 C 
ENDBRANCH  20  22
ENDBRANCH  19  20
ENDBRANCH   1  19
TORSDOF 7
ENDMDL
MODEL 5
REMARK VINA RESULT:      -6.6      1.119      2.156
REMARK  Name = 
REMARK  8 active torsions:
REMARK  status: ('A' for Active; 'I' for Inactive)
REMARK    1  A    between atoms: C_2  and  C_3
REMARK    2  A    between atoms: C_3  and  O_4
REMARK    3  A    between atoms: O_4  and  C_5
REMARK    4  A    between atoms: C_8  and  C_9
REMARK    5  A    between atoms: C_9  and  C_11
REMARK    6  A    between atoms: C_12  and  C_13
REMARK    7  A    between atoms: C_19  and  O_20
REMARK    8  A    between atoms: O_20  and  C_21
REMARK                            x       y       z     vdW  Elec       q    Type
REMARK                         _______ _______ _______ _____ _____    ______ ____
ROOT
ATOM      1  C   UNL     1       5.971   4.261  14.263  0.00  0.00    +0.000 A 
ATOM      2  C   UNL     1       6.820   5.161  14.901  0.00  0.00    +0.000 A 
ATOM      3  C   UNL     1       6.701   5.393  16.278  0.00  0.00    +0.000 A 
ATOM      4  C   UNL     1       5.754   4.706  17.056  0.00  0.00    +0.000 A 
ATOM      5  C   UNL     1       4.925   3.759  16.413  0.00  0.00    +0.000 A 
ATOM      6  C   UNL     1       5.047   3.547  15.023  0.00  0.00    +0.000 A 
ENDROOT
BRANCH   4   7
ATOM      7  C   UNL     1       5.647   5.069  18.525  0.00  0.00    +0.000 C 
ATOM      8  O   UNL     1       6.381   4.577  19.358  0.00  0.00    +0.000 OA
BRANCH   7   9
ATOM      9  C   UNL     1       4.571   6.037  18.943  0.00  0.00    +0.000 C 
ATOM     10  C   UNL     1       3.704   6.608  18.085  0.00  0.00    +0.000 C 
BRANCH  10  11
ATOM     11  C   UNL     1       2.716   7.581  18.579  0.00  0.00    +0.000 A 
ATOM     12  C   UNL     1       2.198   7.487  19.874  0.00  0.00    +0.000 A 
ATOM     13  C   UNL     1       1.235   8.400  20.276  0.00  0.00    +0.000 A 
ATOM     14  N   UNL     1       0.757   9.381  19.484  0.00  0.00    +0.000 NA
ATOM     15  C   UNL     1       1.274   9.457  18.238  0.00  0.00    +0.000 A 
ATOM     16  C   UNL     1       2.240   8.591  17.744  0.00  0.00    +0.000 A 
ENDBRANCH  10  11
ENDBRANCH   7   9
ENDBRANCH   4   7
BRANCH   5  17
ATOM     17  O   UNL     1       4.099   2.976  17.186  0.00  0.00    +0.000 OA
ATOM     18  C   UNL     1       2.698   3.256  17.168  0.00  0.00    +0.000 C 
ENDBRANCH   5  17
BRANCH   1  19
ATOM     19  O   UNL     1       6.167   4.085  12.915  0.00  0.00    +0.000 OA
BRANCH  19  20
ATOM     20  C   UNL     1       5.680   2.856  12.362  0.00  0.00    +0.000 C 
BRANCH  20  22
ATOM     21  C   UNL     1       3.506   3.421  10.650  0.00  0.00    +0.000 C 
ATOM     22  C   UNL     1       4.510   3.160  11.441  0.00  0.00    +0.000 C 
ENDBRANCH  20  22
ENDBRANCH  19  20
ENDBRANCH   1  19
TORSDOF 7
ENDMDL
MODEL 6
REMARK VINA RESULT:      -6.6      2.081      3.588
REMARK  Name = 
REMARK  8 active torsions:
REMARK  status: ('A' for Active; 'I' for Inactive)
REMARK    1  A    between atoms: C_2  and  C_3
REMARK    2  A    between atoms: C_3  and  O_4
REMARK    3  A    between atoms: O_4  and  C_5
REMARK    4  A    between atoms: C_8  and  C_9
REMARK    5  A    between atoms: C_9  and  C_11
REMARK    6  A    between atoms: C_12  and  C_13
REMARK    7  A    between atoms: C_19  and  O_20
REMARK    8  A    between atoms: O_20  and  C_21
REMARK                            x       y       z     vdW  Elec       q    Type
REMARK                         _______ _______ _______ _____ _____    ______ ____
ROOT
ATOM      1  C   UNL     1       5.010   4.095  16.817  0.00  0.00    +0.000 A 
ATOM      2  C   UNL     1       5.499   5.023  17.734  0.00  0.00    +0.000 A 
ATOM      3  C   UNL     1       4.677   5.502  18.763  0.00  0.00    +0.000 A 
ATOM      4  C   UNL     1       3.360   5.041  18.921  0.00  0.00    +0.000 A 
ATOM      5  C   UNL     1       2.882   4.065  18.018  0.00  0.00    +0.000 A 
ATOM      6  C   UNL     1       3.717   3.602  16.978  0.00  0.00    +0.000 A 
ENDROOT
BRANCH   4   7
ATOM      7  C   UNL     1       2.519   5.665  20.020  0.00  0.00    +0.000 C 
ATOM      8  O   UNL     1       2.158   5.026  20.987  0.00  0.00    +0.000 OA
BRANCH   7   9
ATOM      9  C   UNL     1       2.100   7.104  19.866  0.00  0.00    +0.000 C 
ATOM     10  C   UNL     1       1.406   7.784  20.798  0.00  0.00    +0.000 C 
BRANCH  10  11
ATOM     11  C   UNL     1       0.997   9.174  20.540  0.00  0.00    +0.000 A 
ATOM     12  C   UNL     1       0.480   9.974  21.564  0.00  0.00    +0.000 A 
ATOM     13  C   UNL     1       0.065  11.262  21.261  0.00  0.00    +0.000 A 
ATOM     14  N   UNL     1       0.125  11.795  20.025  0.00  0.00    +0.000 NA
ATOM     15  C   UNL     1       0.632  11.007  19.051  0.00  0.00    +0.000 A 
ATOM     16  C   UNL     1       1.072   9.707  19.255  0.00  0.00    +0.000 A 
ENDBRANCH  10  11
ENDBRANCH   7   9
ENDBRANCH   4   7
BRANCH   5  17
ATOM     17  O   UNL     1       1.650   3.499  18.252  0.00  0.00    +0.000 OA
ATOM     18  C   UNL     1       1.612   2.184  18.812  0.00  0.00    +0.000 C 
ENDBRANCH   5  17
BRANCH   1  19
ATOM     19  O   UNL     1       5.887   3.669  15.851  0.00  0.00    +0.000 OA
BRANCH  19  20
ATOM     20  C   UNL     1       6.153   4.593  14.788  0.00  0.00    +0.000 C 
BRANCH  20  22
ATOM     21  C   UNL     1       5.699   3.299  12.319  0.00  0.00    +0.000 C 
ATOM     22  C   UNL     1       5.908   3.897  13.459  0.00  0.00    +0.000 C 
ENDBRANCH  20  22
ENDBRANCH  19  20
ENDBRANCH   1  19
TORSDOF 7
ENDMDL
MODEL 7
REMARK VINA RESULT:      -6.4      0.978      2.013
REMARK  Name = 
REMARK  8 active torsions:
REMARK  status: ('A' for Active; 'I' for Inactive)
REMARK    1  A    between atoms: C_2  and  C_3
REMARK    2  A    between atoms: C_3  and  O_4
REMARK    3  A    between atoms: O_4  and  C_5
REMARK    4  A    between atoms: C_8  and  C_9
REMARK    5  A    between atoms: C_9  and  C_11
REMARK    6  A    between atoms: C_12  and  C_13
REMARK    7  A    between atoms: C_19  and  O_20
REMARK    8  A    between atoms: O_20  and  C_21
REMARK                            x       y       z     vdW  Elec       q    Type
REMARK                         _______ _______ _______ _____ _____    ______ ____
ROOT
ATOM      1  C   UNL     1       6.272   4.051  14.610  0.00  0.00    +0.000 A 
ATOM      2  C   UNL     1       7.181   4.744  15.406  0.00  0.00    +0.000 A 
ATOM      3  C   UNL     1       6.844   5.099  16.719  0.00  0.00    +0.000 A 
ATOM      4  C   UNL     1       5.607   4.742  17.279  0.00  0.00    +0.000 A 
ATOM      5  C   UNL     1       4.706   3.998  16.485  0.00  0.00    +0.000 A 
ATOM      6  C   UNL     1       5.053   3.659  15.159  0.00  0.00    +0.000 A 
ENDROOT
BRANCH   4   7
ATOM      7  C   UNL     1       5.298   5.228  18.683  0.00  0.00    +0.000 C 
ATOM      8  O   UNL     1       5.731   4.658  19.665  0.00  0.00    +0.000 OA
BRANCH   7   9
ATOM      9  C   UNL     1       4.398   6.426  18.841  0.00  0.00    +0.000 C 
ATOM     10  C   UNL     1       3.098   6.344  19.179  0.00  0.00    +0.000 C 
BRANCH  10  11
ATOM     11  C   UNL     1       2.283   7.567  19.262  0.00  0.00    +0.000 A 
ATOM     12  C   UNL     1       1.648   7.930  20.455  0.00  0.00    +0.000 A 
ATOM     13  C   UNL     1       0.853   9.065  20.469  0.00  0.00    +0.000 A 
ATOM     14  N   UNL     1       0.647   9.848  19.392  0.00  0.00    +0.000 NA
ATOM     15  C   UNL     1       1.272   9.482  18.251  0.00  0.00    +0.000 A 
ATOM     16  C   UNL     1       2.087   8.365  18.136  0.00  0.00    +0.000 A 
ENDBRANCH  10  11
ENDBRANCH   7   9
ENDBRANCH   4   7
BRANCH   5  17
ATOM     17  O   UNL     1       3.557   3.515  17.069  0.00  0.00    +0.000 OA
ATOM     18  C   UNL     1       3.619   2.246  17.722  0.00  0.00    +0.000 C 
ENDBRANCH   5  17
BRANCH   1  19
ATOM     19  O   UNL     1       6.690   3.730  13.342  0.00  0.00    +0.000 OA
BRANCH  19  20
ATOM     20  C   UNL     1       5.657   3.428  12.395  0.00  0.00    +0.000 C 
BRANCH  20  22
ATOM     21  C   UNL     1       6.334   1.048  11.035  0.00  0.00    +0.000 C 
ATOM     22  C   UNL     1       6.021   2.147  11.663  0.00  0.00    +0.000 C 
ENDBRANCH  20  22
ENDBRANCH  19  20
ENDBRANCH   1  19
TORSDOF 7
ENDMDL
MODEL 8
REMARK VINA RESULT:      -6.4      3.237      6.489
REMARK  Name = 
REMARK  8 active torsions:
REMARK  status: ('A' for Active; 'I' for Inactive)
REMARK    1  A    between atoms: C_2  and  C_3
REMARK    2  A    between atoms: C_3  and  O_4
REMARK    3  A    between atoms: O_4  and  C_5
REMARK    4  A    between atoms: C_8  and  C_9
REMARK    5  A    between atoms: C_9  and  C_11
REMARK    6  A    between atoms: C_12  and  C_13
REMARK    7  A    between atoms: C_19  and  O_20
REMARK    8  A    between atoms: O_20  and  C_21
REMARK                            x       y       z     vdW  Elec       q    Type
REMARK                         _______ _______ _______ _____ _____    ______ ____
ROOT
ATOM      1  C   UNL     1       4.321   3.929  18.827  0.00  0.00    +0.000 A 
ATOM      2  C   UNL     1       5.249   4.611  19.611  0.00  0.00    +0.000 A 
ATOM      3  C   UNL     1       6.191   5.460  19.015  0.00  0.00    +0.000 A 
ATOM      4  C   UNL     1       6.207   5.675  17.627  0.00  0.00    +0.000 A 
ATOM      5  C   UNL     1       5.234   5.019  16.840  0.00  0.00    +0.000 A 
ATOM      6  C   UNL     1       4.300   4.155  17.452  0.00  0.00    +0.000 A 
ENDROOT
BRANCH   4   7
ATOM      7  C   UNL     1       7.304   6.556  17.060  0.00  0.00    +0.000 C 
ATOM      8  O   UNL     1       7.807   6.331  15.978  0.00  0.00    +0.000 OA
BRANCH   7   9
ATOM      9  C   UNL     1       7.795   7.710  17.895  0.00  0.00    +0.000 C 
ATOM     10  C   UNL     1       8.043   8.938  17.401  0.00  0.00    +0.000 C 
BRANCH  10  11
ATOM     11  C   UNL     1       8.567   9.993  18.284  0.00  0.00    +0.000 A 
ATOM     12  C   UNL     1       8.645  11.320  17.851  0.00  0.00    +0.000 A 
ATOM     13  C   UNL     1       9.191  12.269  18.703  0.00  0.00    +0.000 A 
ATOM     14  N   UNL     1       9.659  11.987  19.935  0.00  0.00    +0.000 NA
ATOM     15  C   UNL     1       9.570  10.700  20.335  0.00  0.00    +0.000 A 
ATOM     16  C   UNL     1       9.041   9.679  19.556  0.00  0.00    +0.000 A 
ENDBRANCH  10  11
ENDBRANCH   7   9
ENDBRANCH   4   7
BRANCH   5  17
ATOM     17  O   UNL     1       5.145   5.336  15.504  0.00  0.00    +0.000 OA
ATOM     18  C   UNL     1       5.507   4.334  14.551  0.00  0.00    +0.000 C 
ENDBRANCH   5  17
BRANCH   1  19
ATOM     19  O   UNL     1       3.427   3.129  19.494  0.00  0.00    +0.000 OA
BRANCH  19  20
ATOM     20  C   UNL     1       2.042   3.472  19.348  0.00  0.00    +0.000 C 
BRANCH  20  22
ATOM     21  C   UNL     1       1.577   5.953  20.614  0.00  0.00    +0.000 C 
ATOM     22  C   UNL     1       1.792   4.807  20.029  0.00  0.00    +0.000 C 
ENDBRANCH  20  22
ENDBRANCH  19  20
ENDBRANCH   1  19
TORSDOF 7
ENDMDL
MODEL 9
REMARK VINA RESULT:      -6.2      4.075      6.576
REMARK  Name = 
REMARK  8 active torsions:
REMARK  status: ('A' for Active; 'I' for Inactive)
REMARK    1  A    between atoms: C_2  and  C_3
REMARK    2  A    between atoms: C_3  and  O_4
REMARK    3  A    between atoms: O_4  and  C_5
REMARK    4  A    between atoms: C_8  and  C_9
REMARK    5  A    between atoms: C_9  and  C_11
REMARK    6  A    between atoms: C_12  and  C_13
REMARK    7  A    between atoms: C_19  and  O_20
REMARK    8  A    between atoms: O_20  and  C_21
REMARK                            x       y       z     vdW  Elec       q    Type
REMARK                         _______ _______ _______ _____ _____    ______ ____
ROOT
ATOM      1  C   UNL     1       4.202   4.568  19.435  0.00  0.00    +0.000 A 
ATOM      2  C   UNL     1       5.562   4.338  19.625  0.00  0.00    +0.000 A 
ATOM      3  C   UNL     1       6.512   5.089  18.922  0.00  0.00    +0.000 A 
ATOM      4  C   UNL     1       6.128   6.112  18.039  0.00  0.00    +0.000 A 
ATOM      5  C   UNL     1       4.749   6.375  17.884  0.00  0.00    +0.000 A 
ATOM      6  C   UNL     1       3.802   5.600  18.589  0.00  0.00    +0.000 A 
ENDROOT
BRANCH   4   7
ATOM      7  C   UNL     1       7.221   6.829  17.267  0.00  0.00    +0.000 C 
ATOM      8  O   UNL     1       7.544   6.482  16.149  0.00  0.00    +0.000 OA
BRANCH   7   9
ATOM      9  C   UNL     1       7.936   7.972  17.940  0.00  0.00    +0.000 C 
ATOM     10  C   UNL     1       7.800   9.259  17.571  0.00  0.00    +0.000 C 
BRANCH  10  11
ATOM     11  C   UNL     1       8.577  10.305  18.255  0.00  0.00    +0.000 A 
ATOM     12  C   UNL     1       8.679  11.593  17.719  0.00  0.00    +0.000 A 
ATOM     13  C   UNL     1       9.462  12.530  18.377  0.00  0.00    +0.000 A 
ATOM     14  N   UNL     1      10.142  12.272  19.512  0.00  0.00    +0.000 NA
ATOM     15  C   UNL     1      10.026  11.024  20.015  0.00  0.00    +0.000 A 
ATOM     16  C   UNL     1       9.268  10.018  19.431  0.00  0.00    +0.000 A 
ENDBRANCH  10  11
ENDBRANCH   7   9
ENDBRANCH   4   7
BRANCH   5  17
ATOM     17  O   UNL     1       4.367   7.468  17.140  0.00  0.00    +0.000 OA
ATOM     18  C   UNL     1       3.167   8.149  17.515  0.00  0.00    +0.000 C 
ENDBRANCH   5  17
BRANCH   1  19
ATOM     19  O   UNL     1       3.341   3.796  20.175  0.00  0.00    +0.000 OA
BRANCH  19  20
ATOM     20  C   UNL     1       1.962   4.186  20.149  0.00  0.00    +0.000 C 
BRANCH  20  22
ATOM     21  C   UNL     1       0.492   2.249  18.714  0.00  0.00    +0.000 C 
ATOM     22  C   UNL     1       1.171   3.144  19.377  0.00  0.00    +0.000 C 
ENDBRANCH  20  22
ENDBRANCH  19  20
ENDBRANCH   1  19
TORSDOF 7
ENDMDL
