MODEL 1
REMARK VINA RESULT:      -7.5      0.000      0.000
REMARK  Name = 
REMARK  7 active torsions:
REMARK  status: ('A' for Active; 'I' for Inactive)
REMARK    1  A    between atoms: C_1  and  C_2
REMARK    2  A    between atoms: C_2  and  O_3
REMARK    3  A    between atoms: O_3  and  C_4
REMARK    4  A    between atoms: C_11  and  C_13
REMARK    5  A    between atoms: C_13  and  C_14
REMARK    6  A    between atoms: C_19  and  O_20
REMARK    7  A    between atoms: O_20  and  C_21
REMARK                            x       y       z     vdW  Elec       q    Type
REMARK                         _______ _______ _______ _____ _____    ______ ____
ROOT
ATOM      1  C   UNL     1       0.639  10.197  21.567  0.00  0.00    +0.000 A 
ATOM      2  C   UNL     1       0.734  10.782  20.304  0.00  0.00    +0.000 A 
ATOM      3  C   UNL     1       1.204  10.047  19.206  0.00  0.00    +0.000 A 
ATOM      4  C   UNL     1       1.579   8.698  19.372  0.00  0.00    +0.000 A 
ATOM      5  N   UNL     1       2.028   7.842  18.380  0.00  0.00    +0.000 NA
ATOM      6  C   UNL     1       2.330   6.672  18.911  0.00  0.00    +0.000 A 
ATOM      7  N   UNL     1       2.800   5.635  18.144  0.00  0.00    +0.000 N 
ATOM      8  C   UNL     1       3.366   4.471  18.617  0.00  0.00    +0.000 C 
ATOM      9  O   UNL     1       3.559   4.170  19.795  0.00  0.00    +0.000 OA
ATOM     10  S   UNL     1       2.038   6.516  20.578  0.00  0.00    +0.000 S 
ATOM     11  C   UNL     1       1.489   8.139  20.646  0.00  0.00    +0.000 A 
ATOM     12  C   UNL     1       1.018   8.864  21.751  0.00  0.00    +0.000 A 
ATOM     13  H   UNL     1       2.845   5.848  17.154  0.00  0.00    +0.000 HD
ENDROOT
BRANCH   1  14
ATOM     14  O   UNL     1       0.180  10.812  22.701  0.00  0.00    +0.000 OA
BRANCH  14  16
ATOM     15  C   UNL     1      -1.969  11.816  22.990  0.00  0.00    +0.000 C 
ATOM     16  C   UNL     1      -1.167  10.532  23.079  0.00  0.00    +0.000 C 
ENDBRANCH  14  16
ENDBRANCH   1  14
BRANCH   8  17
ATOM     17  C   UNL     1       3.849   3.540  17.506  0.00  0.00    +0.000 C 
BRANCH  17  18
ATOM     18  C   UNL     1       5.023   4.069  16.709  0.00  0.00    +0.000 A 
ATOM     19  C   UNL     1       4.891   4.169  15.304  0.00  0.00    +0.000 A 
ATOM     20  C   UNL     1       5.961   4.535  14.487  0.00  0.00    +0.000 A 
ATOM     21  C   UNL     1       7.178   4.863  15.060  0.00  0.00    +0.000 A 
ATOM     22  C   UNL     1       7.311   4.839  16.449  0.00  0.00    +0.000 A 
ATOM     23  C   UNL     1       6.246   4.458  17.282  0.00  0.00    +0.000 A 
BRANCH  23  24
ATOM     24  O   UNL     1       6.605   4.384  18.602  0.00  0.00    +0.000 OA
ATOM     25  C   UNL     1       7.232   5.511  19.200  0.00  0.00    +0.000 C 
ENDBRANCH  23  24
ENDBRANCH  17  18
ENDBRANCH   8  17
TORSDOF 5
ENDMDL
MODEL 2
REMARK VINA RESULT:      -7.4      2.324      4.156
REMARK  Name = 
REMARK  7 active torsions:
REMARK  status: ('A' for Active; 'I' for Inactive)
REMARK    1  A    between atoms: C_1  and  C_2
REMARK    2  A    between atoms: C_2  and  O_3
REMARK    3  A    between atoms: O_3  and  C_4
REMARK    4  A    between atoms: C_11  and  C_13
REMARK    5  A    between atoms: C_13  and  C_14
REMARK    6  A    between atoms: C_19  and  O_20
REMARK    7  A    between atoms: O_20  and  C_21
REMARK                            x       y       z     vdW  Elec       q    Type
REMARK                         _______ _______ _______ _____ _____    ______ ____
ROOT
ATOM      1  C   UNL     1      -1.606  12.216  21.671  0.00  0.00    +0.000 A 
ATOM      2  C   UNL     1      -1.605  11.575  22.909  0.00  0.00    +0.000 A 
ATOM      3  C   UNL     1      -0.859  10.405  23.113  0.00  0.00    +0.000 A 
ATOM      4  C   UNL     1      -0.092   9.870  22.057  0.00  0.00    +0.000 A 
ATOM      5  N   UNL     1       0.717   8.746  22.116  0.00  0.00    +0.000 NA
ATOM      6  C   UNL     1       1.241   8.518  20.928  0.00  0.00    +0.000 A 
ATOM      7  N   UNL     1       2.088   7.459  20.707  0.00  0.00    +0.000 N 
ATOM      8  C   UNL     1       2.494   6.992  19.476  0.00  0.00    +0.000 C 
ATOM      9  O   UNL     1       2.162   7.428  18.374  0.00  0.00    +0.000 OA
ATOM     10  S   UNL     1       0.858   9.648  19.717  0.00  0.00    +0.000 S 
ATOM     11  C   UNL     1      -0.120  10.520  20.824  0.00  0.00    +0.000 A 
ATOM     12  C   UNL     1      -0.861  11.692  20.611  0.00  0.00    +0.000 A 
ATOM     13  H   UNL     1       2.290   6.920  21.540  0.00  0.00    +0.000 HD
ENDROOT
BRANCH   1  14
ATOM     14  O   UNL     1      -2.282  13.369  21.367  0.00  0.00    +0.000 OA
BRANCH  14  16
ATOM     15  C   UNL     1      -4.464  12.812  20.572  0.00  0.00    +0.000 C 
ATOM     16  C   UNL     1      -3.664  13.408  21.715  0.00  0.00    +0.000 C 
ENDBRANCH  14  16
ENDBRANCH   1  14
BRANCH   8  17
ATOM     17  C   UNL     1       3.388   5.756  19.565  0.00  0.00    +0.000 C 
BRANCH  17  18
ATOM     18  C   UNL     1       2.707   4.459  19.182  0.00  0.00    +0.000 A 
ATOM     19  C   UNL     1       1.435   4.178  19.735  0.00  0.00    +0.000 A 
ATOM     20  C   UNL     1       0.794   2.957  19.527  0.00  0.00    +0.000 A 
ATOM     21  C   UNL     1       1.385   2.004  18.715  0.00  0.00    +0.000 A 
ATOM     22  C   UNL     1       2.606   2.287  18.103  0.00  0.00    +0.000 A 
ATOM     23  C   UNL     1       3.270   3.506  18.316  0.00  0.00    +0.000 A 
BRANCH  23  24
ATOM     24  O   UNL     1       4.506   3.548  17.726  0.00  0.00    +0.000 OA
ATOM     25  C   UNL     1       4.627   4.153  16.446  0.00  0.00    +0.000 C 
ENDBRANCH  23  24
ENDBRANCH  17  18
ENDBRANCH   8  17
TORSDOF 5
ENDMDL
MODEL 3
REMARK VINA RESULT:      -7.0      6.394      7.745
REMARK  Name = 
REMARK  7 active torsions:
REMARK  status: ('A' for Active; 'I' for Inactive)
REMARK    1  A    between atoms: C_1  and  C_2
REMARK    2  A    between atoms: C_2  and  O_3
REMARK    3  A    between atoms: O_3  and  C_4
REMARK    4  A    between atoms: C_11  and  C_13
REMARK    5  A    between atoms: C_13  and  C_14
REMARK    6  A    between atoms: C_19  and  O_20
REMARK    7  A    between atoms: O_20  and  C_21
REMARK                            x       y       z     vdW  Elec       q    Type
REMARK                         _______ _______ _______ _____ _____    ______ ____
ROOT
ATOM      1  C   UNL     1       9.952  14.450  18.959  0.00  0.00    +0.000 A 
ATOM      2  C   UNL     1      10.347  14.075  20.243  0.00  0.00    +0.000 A 
ATOM      3  C   UNL     1      10.235  12.743  20.669  0.00  0.00    +0.000 A 
ATOM      4  C   UNL     1       9.723  11.766  19.791  0.00  0.00    +0.000 A 
ATOM      5  N   UNL     1       9.583  10.414  20.058  0.00  0.00    +0.000 NA
ATOM      6  C   UNL     1       9.026   9.815  19.022  0.00  0.00    +0.000 A 
ATOM      7  N   UNL     1       8.774   8.466  19.022  0.00  0.00    +0.000 N 
ATOM      8  C   UNL     1       7.991   7.789  18.112  0.00  0.00    +0.000 C 
ATOM      9  O   UNL     1       7.378   8.274  17.161  0.00  0.00    +0.000 OA
ATOM     10  S   UNL     1       8.707  10.804  17.677  0.00  0.00    +0.000 S 
ATOM     11  C   UNL     1       9.320  12.167  18.518  0.00  0.00    +0.000 A 
ATOM     12  C   UNL     1       9.431  13.496  18.080  0.00  0.00    +0.000 A 
ATOM     13  H   UNL     1       9.093   7.992  19.859  0.00  0.00    +0.000 HD
ENDROOT
BRANCH   1  14
ATOM     14  O   UNL     1      10.033  15.712  18.434  0.00  0.00    +0.000 OA
BRANCH  14  16
ATOM     15  C   UNL     1       7.995  16.927  18.713  0.00  0.00    +0.000 C 
ATOM     16  C   UNL     1       8.885  16.186  17.733  0.00  0.00    +0.000 C 
ENDBRANCH  14  16
ENDBRANCH   1  14
BRANCH   8  17
ATOM     17  C   UNL     1       7.855   6.300  18.422  0.00  0.00    +0.000 C 
BRANCH  17  18
ATOM     18  C   UNL     1       6.587   5.661  17.895  0.00  0.00    +0.000 A 
ATOM     19  C   UNL     1       5.512   5.459  18.792  0.00  0.00    +0.000 A 
ATOM     20  C   UNL     1       4.357   4.773  18.417  0.00  0.00    +0.000 A 
ATOM     21  C   UNL     1       4.225   4.317  17.116  0.00  0.00    +0.000 A 
ATOM     22  C   UNL     1       5.242   4.567  16.195  0.00  0.00    +0.000 A 
ATOM     23  C   UNL     1       6.417   5.243  16.564  0.00  0.00    +0.000 A 
BRANCH  23  24
ATOM     24  O   UNL     1       7.343   5.286  15.556  0.00  0.00    +0.000 OA
ATOM     25  C   UNL     1       6.965   4.827  14.265  0.00  0.00    +0.000 C 
ENDBRANCH  23  24
ENDBRANCH  17  18
ENDBRANCH   8  17
TORSDOF 5
ENDMDL
MODEL 4
REMARK VINA RESULT:      -7.0      2.816      8.747
REMARK  Name = 
REMARK  7 active torsions:
REMARK  status: ('A' for Active; 'I' for Inactive)
REMARK    1  A    between atoms: C_1  and  C_2
REMARK    2  A    between atoms: C_2  and  O_3
REMARK    3  A    between atoms: O_3  and  C_4
REMARK    4  A    between atoms: C_11  and  C_13
REMARK    5  A    between atoms: C_13  and  C_14
REMARK    6  A    between atoms: C_19  and  O_20
REMARK    7  A    between atoms: O_20  and  C_21
REMARK                            x       y       z     vdW  Elec       q    Type
REMARK                         _______ _______ _______ _____ _____    ______ ____
ROOT
ATOM      1  C   UNL     1       4.698   4.245  18.862  0.00  0.00    +0.000 A 
ATOM      2  C   UNL     1       4.978   4.656  17.559  0.00  0.00    +0.000 A 
ATOM      3  C   UNL     1       4.421   5.834  17.042  0.00  0.00    +0.000 A 
ATOM      4  C   UNL     1       3.572   6.621  17.847  0.00  0.00    +0.000 A 
ATOM      5  N   UNL     1       2.977   7.820  17.487  0.00  0.00    +0.000 NA
ATOM      6  C   UNL     1       2.214   8.247  18.474  0.00  0.00    +0.000 A 
ATOM      7  N   UNL     1       1.506   9.420  18.380  0.00  0.00    +0.000 N 
ATOM      8  C   UNL     1       0.507   9.833  19.235  0.00  0.00    +0.000 C 
ATOM      9  O   UNL     1       0.072   9.223  20.211  0.00  0.00    +0.000 OA
ATOM     10  S   UNL     1       2.217   7.293  19.881  0.00  0.00    +0.000 S 
ATOM     11  C   UNL     1       3.294   6.183  19.141  0.00  0.00    +0.000 A 
ATOM     12  C   UNL     1       3.849   5.007  19.669  0.00  0.00    +0.000 A 
ATOM     13  H   UNL     1       1.666   9.923  17.515  0.00  0.00    +0.000 HD
ENDROOT
BRANCH   1  14
ATOM     14  O   UNL     1       5.198   3.125  19.473  0.00  0.00    +0.000 OA
BRANCH  14  16
ATOM     15  C   UNL     1       3.567   1.593  18.637  0.00  0.00    +0.000 C 
ATOM     16  C   UNL     1       4.248   2.141  19.877  0.00  0.00    +0.000 C 
ENDBRANCH  14  16
ENDBRANCH   1  14
BRANCH   8  17
ATOM     17  C   UNL     1      -0.131  11.158  18.822  0.00  0.00    +0.000 C 
BRANCH  17  18
ATOM     18  C   UNL     1      -1.590  11.057  18.428  0.00  0.00    +0.000 A 
ATOM     19  C   UNL     1      -1.957  10.108  17.446  0.00  0.00    +0.000 A 
ATOM     20  C   UNL     1      -3.256  10.032  16.943  0.00  0.00    +0.000 A 
ATOM     21  C   UNL     1      -4.236  10.870  17.450  0.00  0.00    +0.000 A 
ATOM     22  C   UNL     1      -3.911  11.766  18.469  0.00  0.00    +0.000 A 
ATOM     23  C   UNL     1      -2.604  11.863  18.973  0.00  0.00    +0.000 A 
BRANCH  23  24
ATOM     24  O   UNL     1      -2.460  12.878  19.881  0.00  0.00    +0.000 OA
ATOM     25  C   UNL     1      -2.881  12.656  21.221  0.00  0.00    +0.000 C 
ENDBRANCH  23  24
ENDBRANCH  17  18
ENDBRANCH   8  17
TORSDOF 5
ENDMDL
MODEL 5
REMARK VINA RESULT:      -7.0      3.147      8.940
REMARK  Name = 
REMARK  7 active torsions:
REMARK  status: ('A' for Active; 'I' for Inactive)
REMARK    1  A    between atoms: C_1  and  C_2
REMARK    2  A    between atoms: C_2  and  O_3
REMARK    3  A    between atoms: O_3  and  C_4
REMARK    4  A    between atoms: C_11  and  C_13
REMARK    5  A    between atoms: C_13  and  C_14
REMARK    6  A    between atoms: C_19  and  O_20
REMARK    7  A    between atoms: O_20  and  C_21
REMARK                            x       y       z     vdW  Elec       q    Type
REMARK                         _______ _______ _______ _____ _____    ______ ____
ROOT
ATOM      1  C   UNL     1       4.334   4.647  18.866  0.00  0.00    +0.000 A 
ATOM      2  C   UNL     1       4.750   5.070  17.604  0.00  0.00    +0.000 A 
ATOM      3  C   UNL     1       4.277   6.270  17.056  0.00  0.00    +0.000 A 
ATOM      4  C   UNL     1       3.373   7.068  17.788  0.00  0.00    +0.000 A 
ATOM      5  N   UNL     1       2.847   8.287  17.393  0.00  0.00    +0.000 NA
ATOM      6  C   UNL     1       2.001   8.719  18.309  0.00  0.00    +0.000 A 
ATOM      7  N   UNL     1       1.336   9.912  18.167  0.00  0.00    +0.000 N 
ATOM      8  C   UNL     1       0.269  10.338  18.929  0.00  0.00    +0.000 C 
ATOM      9  O   UNL     1      -0.274   9.726  19.847  0.00  0.00    +0.000 OA
ATOM     10  S   UNL     1       1.843   7.744  19.693  0.00  0.00    +0.000 S 
ATOM     11  C   UNL     1       2.959   6.617  19.041  0.00  0.00    +0.000 A 
ATOM     12  C   UNL     1       3.430   5.419  19.600  0.00  0.00    +0.000 A 
ATOM     13  H   UNL     1       1.592  10.424  17.331  0.00  0.00    +0.000 HD
ENDROOT
BRANCH   1  14
ATOM     14  O   UNL     1       4.744   3.505  19.503  0.00  0.00    +0.000 OA
BRANCH  14  16
ATOM     15  C   UNL     1       3.383   1.793  18.545  0.00  0.00    +0.000 C 
ATOM     16  C   UNL     1       3.732   2.549  19.812  0.00  0.00    +0.000 C 
ENDBRANCH  14  16
ENDBRANCH   1  14
BRANCH   8  17
ATOM     17  C   UNL     1      -0.292  11.687  18.479  0.00  0.00    +0.000 C 
BRANCH  17  18
ATOM     18  C   UNL     1      -1.801  11.794  18.549  0.00  0.00    +0.000 A 
ATOM     19  C   UNL     1      -2.378  12.462  19.654  0.00  0.00    +0.000 A 
ATOM     20  C   UNL     1      -3.757  12.503  19.854  0.00  0.00    +0.000 A 
ATOM     21  C   UNL     1      -4.601  11.921  18.922  0.00  0.00    +0.000 A 
ATOM     22  C   UNL     1      -4.057  11.319  17.787  0.00  0.00    +0.000 A 
ATOM     23  C   UNL     1      -2.669  11.257  17.582  0.00  0.00    +0.000 A 
BRANCH  23  24
ATOM     24  O   UNL     1      -2.328  10.525  16.476  0.00  0.00    +0.000 OA
ATOM     25  C   UNL     1      -2.989  10.800  15.248  0.00  0.00    +0.000 C 
ENDBRANCH  23  24
ENDBRANCH  17  18
ENDBRANCH   8  17
TORSDOF 5
ENDMDL
MODEL 6
REMARK VINA RESULT:      -6.9      6.443      8.032
REMARK  Name = 
REMARK  7 active torsions:
REMARK  status: ('A' for Active; 'I' for Inactive)
REMARK    1  A    between atoms: C_1  and  C_2
REMARK    2  A    between atoms: C_2  and  O_3
REMARK    3  A    between atoms: O_3  and  C_4
REMARK    4  A    between atoms: C_11  and  C_13
REMARK    5  A    between atoms: C_13  and  C_14
REMARK    6  A    between atoms: C_19  and  O_20
REMARK    7  A    between atoms: O_20  and  C_21
REMARK                            x       y       z     vdW  Elec       q    Type
REMARK                         _______ _______ _______ _____ _____    ______ ____
ROOT
ATOM      1  C   UNL     1       9.832  14.163  18.620  0.00  0.00    +0.000 A 
ATOM      2  C   UNL     1      10.316  13.819  19.881  0.00  0.00    +0.000 A 
ATOM      3  C   UNL     1      10.234  12.498  20.346  0.00  0.00    +0.000 A 
ATOM      4  C   UNL     1       9.663  11.501  19.530  0.00  0.00    +0.000 A 
ATOM      5  N   UNL     1       9.543  10.155  19.838  0.00  0.00    +0.000 NA
ATOM      6  C   UNL     1       8.916   9.533  18.858  0.00  0.00    +0.000 A 
ATOM      7  N   UNL     1       8.665   8.184  18.908  0.00  0.00    +0.000 N 
ATOM      8  C   UNL     1       7.821   7.487  18.070  0.00  0.00    +0.000 C 
ATOM      9  O   UNL     1       7.143   7.949  17.154  0.00  0.00    +0.000 OA
ATOM     10  S   UNL     1       8.503  10.490  17.515  0.00  0.00    +0.000 S 
ATOM     11  C   UNL     1       9.172  11.872  18.278  0.00  0.00    +0.000 A 
ATOM     12  C   UNL     1       9.252  13.189  17.802  0.00  0.00    +0.000 A 
ATOM     13  H   UNL     1       9.041   7.730  19.732  0.00  0.00    +0.000 HD
ENDROOT
BRANCH   1  14
ATOM     14  O   UNL     1       9.876  15.413  18.060  0.00  0.00    +0.000 OA
BRANCH  14  16
ATOM     15  C   UNL     1      12.029  16.375  17.677  0.00  0.00    +0.000 C 
ATOM     16  C   UNL     1      10.865  15.627  17.055  0.00  0.00    +0.000 C 
ENDBRANCH  14  16
ENDBRANCH   1  14
BRANCH   8  17
ATOM     17  C   UNL     1       7.708   6.005  18.426  0.00  0.00    +0.000 C 
BRANCH  17  18
ATOM     18  C   UNL     1       6.389   5.366  18.042  0.00  0.00    +0.000 A 
ATOM     19  C   UNL     1       5.309   5.454  18.952  0.00  0.00    +0.000 A 
ATOM     20  C   UNL     1       4.101   4.794  18.729  0.00  0.00    +0.000 A 
ATOM     21  C   UNL     1       3.922   4.072  17.561  0.00  0.00    +0.000 A 
ATOM     22  C   UNL     1       4.948   4.030  16.617  0.00  0.00    +0.000 A 
ATOM     23  C   UNL     1       6.176   4.677  16.836  0.00  0.00    +0.000 A 
BRANCH  23  24
ATOM     24  O   UNL     1       7.093   4.421  15.852  0.00  0.00    +0.000 OA
ATOM     25  C   UNL     1       6.655   4.406  14.501  0.00  0.00    +0.000 C 
ENDBRANCH  23  24
ENDBRANCH  17  18
ENDBRANCH   8  17
TORSDOF 5
ENDMDL
MODEL 7
REMARK VINA RESULT:      -6.9      2.121      3.124
REMARK  Name = 
REMARK  7 active torsions:
REMARK  status: ('A' for Active; 'I' for Inactive)
REMARK    1  A    between atoms: C_1  and  C_2
REMARK    2  A    between atoms: C_2  and  O_3
REMARK    3  A    between atoms: O_3  and  C_4
REMARK    4  A    between atoms: C_11  and  C_13
REMARK    5  A    between atoms: C_13  and  C_14
REMARK    6  A    between atoms: C_19  and  O_20
REMARK    7  A    between atoms: O_20  and  C_21
REMARK                            x       y       z     vdW  Elec       q    Type
REMARK                         _______ _______ _______ _____ _____    ______ ____
ROOT
ATOM      1  C   UNL     1      -0.990  11.334  22.333  0.00  0.00    +0.000 A 
ATOM      2  C   UNL     1      -0.932  10.236  23.191  0.00  0.00    +0.000 A 
ATOM      3  C   UNL     1      -0.218   9.083  22.835  0.00  0.00    +0.000 A 
ATOM      4  C   UNL     1       0.458   9.030  21.599  0.00  0.00    +0.000 A 
ATOM      5  N   UNL     1       1.227   7.978  21.127  0.00  0.00    +0.000 NA
ATOM      6  C   UNL     1       1.665   8.261  19.916  0.00  0.00    +0.000 A 
ATOM      7  N   UNL     1       2.455   7.384  19.214  0.00  0.00    +0.000 N 
ATOM      8  C   UNL     1       2.764   7.468  17.874  0.00  0.00    +0.000 C 
ATOM      9  O   UNL     1       2.377   8.324  17.080  0.00  0.00    +0.000 OA
ATOM     10  S   UNL     1       1.245   9.794  19.314  0.00  0.00    +0.000 S 
ATOM     11  C   UNL     1       0.374  10.134  20.751  0.00  0.00    +0.000 A 
ATOM     12  C   UNL     1      -0.335  11.293  21.099  0.00  0.00    +0.000 A 
ATOM     13  H   UNL     1       2.691   6.545  19.732  0.00  0.00    +0.000 HD
ENDROOT
BRANCH   1  14
ATOM     14  O   UNL     1      -1.641  12.513  22.584  0.00  0.00    +0.000 OA
BRANCH  14  16
ATOM     15  C   UNL     1      -1.737  14.800  23.269  0.00  0.00    +0.000 C 
ATOM     16  C   UNL     1      -0.833  13.610  23.008  0.00  0.00    +0.000 C 
ENDBRANCH  14  16
ENDBRANCH   1  14
BRANCH   8  17
ATOM     17  C   UNL     1       3.615   6.300  17.377  0.00  0.00    +0.000 C 
BRANCH  17  18
ATOM     18  C   UNL     1       5.029   6.279  17.918  0.00  0.00    +0.000 A 
ATOM     19  C   UNL     1       6.010   7.066  17.269  0.00  0.00    +0.000 A 
ATOM     20  C   UNL     1       7.356   7.012  17.631  0.00  0.00    +0.000 A 
ATOM     21  C   UNL     1       7.749   6.209  18.689  0.00  0.00    +0.000 A 
ATOM     22  C   UNL     1       6.788   5.479  19.388  0.00  0.00    +0.000 A 
ATOM     23  C   UNL     1       5.431   5.512  19.025  0.00  0.00    +0.000 A 
BRANCH  23  24
ATOM     24  O   UNL     1       4.665   4.640  19.753  0.00  0.00    +0.000 OA
ATOM     25  C   UNL     1       4.566   3.293  19.313  0.00  0.00    +0.000 C 
ENDBRANCH  23  24
ENDBRANCH  17  18
ENDBRANCH   8  17
TORSDOF 5
ENDMDL
MODEL 8
REMARK VINA RESULT:      -6.9      3.172      9.823
REMARK  Name = 
REMARK  7 active torsions:
REMARK  status: ('A' for Active; 'I' for Inactive)
REMARK    1  A    between atoms: C_1  and  C_2
REMARK    2  A    between atoms: C_2  and  O_3
REMARK    3  A    between atoms: O_3  and  C_4
REMARK    4  A    between atoms: C_11  and  C_13
REMARK    5  A    between atoms: C_13  and  C_14
REMARK    6  A    between atoms: C_19  and  O_20
REMARK    7  A    between atoms: O_20  and  C_21
REMARK                            x       y       z     vdW  Elec       q    Type
REMARK                         _______ _______ _______ _____ _____    ______ ____
ROOT
ATOM      1  C   UNL     1       2.677   6.543  18.824  0.00  0.00    +0.000 A 
ATOM      2  C   UNL     1       2.580   7.452  17.771  0.00  0.00    +0.000 A 
ATOM      3  C   UNL     1       2.001   8.715  17.962  0.00  0.00    +0.000 A 
ATOM      4  C   UNL     1       1.516   9.079  19.235  0.00  0.00    +0.000 A 
ATOM      5  N   UNL     1       0.952  10.296  19.583  0.00  0.00    +0.000 NA
ATOM      6  C   UNL     1       0.571  10.260  20.845  0.00  0.00    +0.000 A 
ATOM      7  N   UNL     1      -0.022  11.343  21.448  0.00  0.00    +0.000 N 
ATOM      8  C   UNL     1      -0.668  11.337  22.665  0.00  0.00    +0.000 C 
ATOM      9  O   UNL     1      -0.836  10.371  23.408  0.00  0.00    +0.000 OA
ATOM     10  S   UNL     1       0.919   8.824  21.686  0.00  0.00    +0.000 S 
ATOM     11  C   UNL     1       1.610   8.149  20.270  0.00  0.00    +0.000 A 
ATOM     12  C   UNL     1       2.190   6.884  20.089  0.00  0.00    +0.000 A 
ATOM     13  H   UNL     1      -0.090  12.156  20.847  0.00  0.00    +0.000 HD
ENDROOT
BRANCH   1  14
ATOM     14  O   UNL     1       3.237   5.295  18.755  0.00  0.00    +0.000 OA
BRANCH  14  16
ATOM     15  C   UNL     1       1.598   3.753  17.953  0.00  0.00    +0.000 C 
ATOM     16  C   UNL     1       2.410   4.203  19.152  0.00  0.00    +0.000 C 
ENDBRANCH  14  16
ENDBRANCH   1  14
BRANCH   8  17
ATOM     17  C   UNL     1      -1.278  12.690  23.030  0.00  0.00    +0.000 C 
BRANCH  17  18
ATOM     18  C   UNL     1      -2.747  12.829  22.688  0.00  0.00    +0.000 A 
ATOM     19  C   UNL     1      -3.687  12.824  23.745  0.00  0.00    +0.000 A 
ATOM     20  C   UNL     1      -5.062  12.830  23.508  0.00  0.00    +0.000 A 
ATOM     21  C   UNL     1      -5.532  12.896  22.207  0.00  0.00    +0.000 A 
ATOM     22  C   UNL     1      -4.622  12.973  21.153  0.00  0.00    +0.000 A 
ATOM     23  C   UNL     1      -3.235  12.953  21.376  0.00  0.00    +0.000 A 
BRANCH  23  24
ATOM     24  O   UNL     1      -2.511  12.918  20.214  0.00  0.00    +0.000 OA
ATOM     25  C   UNL     1      -2.836  11.935  19.240  0.00  0.00    +0.000 C 
ENDBRANCH  23  24
ENDBRANCH  17  18
ENDBRANCH   8  17
TORSDOF 5
ENDMDL
MODEL 9
REMARK VINA RESULT:      -6.9      2.169      3.241
REMARK  Name = 
REMARK  7 active torsions:
REMARK  status: ('A' for Active; 'I' for Inactive)
REMARK    1  A    between atoms: C_1  and  C_2
REMARK    2  A    between atoms: C_2  and  O_3
REMARK    3  A    between atoms: O_3  and  C_4
REMARK    4  A    between atoms: C_11  and  C_13
REMARK    5  A    between atoms: C_13  and  C_14
REMARK    6  A    between atoms: C_19  and  O_20
REMARK    7  A    between atoms: O_20  and  C_21
REMARK                            x       y       z     vdW  Elec       q    Type
REMARK                         _______ _______ _______ _____ _____    ______ ____
ROOT
ATOM      1  C   UNL     1      -1.582  11.919  21.752  0.00  0.00    +0.000 A 
ATOM      2  C   UNL     1      -1.418  11.292  22.986  0.00  0.00    +0.000 A 
ATOM      3  C   UNL     1      -0.598  10.161  23.115  0.00  0.00    +0.000 A 
ATOM      4  C   UNL     1       0.076   9.651  21.987  0.00  0.00    +0.000 A 
ATOM      5  N   UNL     1       0.939   8.567  21.965  0.00  0.00    +0.000 NA
ATOM      6  C   UNL     1       1.344   8.351  20.729  0.00  0.00    +0.000 A 
ATOM      7  N   UNL     1       2.212   7.331  20.425  0.00  0.00    +0.000 N 
ATOM      8  C   UNL     1       2.507   6.870  19.160  0.00  0.00    +0.000 C 
ATOM      9  O   UNL     1       2.039   7.278  18.098  0.00  0.00    +0.000 OA
ATOM     10  S   UNL     1       0.780   9.448  19.559  0.00  0.00    +0.000 S 
ATOM     11  C   UNL     1      -0.115  10.285  20.760  0.00  0.00    +0.000 A 
ATOM     12  C   UNL     1      -0.930  11.419  20.621  0.00  0.00    +0.000 A 
ATOM     13  H   UNL     1       2.528   6.811  21.235  0.00  0.00    +0.000 HD
ENDROOT
BRANCH   1  14
ATOM     14  O   UNL     1      -2.340  13.035  21.515  0.00  0.00    +0.000 OA
BRANCH  14  16
ATOM     15  C   UNL     1      -4.703  12.850  21.816  0.00  0.00    +0.000 C 
ATOM     16  C   UNL     1      -3.565  12.836  20.812  0.00  0.00    +0.000 C 
ENDBRANCH  14  16
ENDBRANCH   1  14
BRANCH   8  17
ATOM     17  C   UNL     1       3.464   5.679  19.160  0.00  0.00    +0.000 C 
BRANCH  17  18
ATOM     18  C   UNL     1       4.232   5.490  17.869  0.00  0.00    +0.000 A 
ATOM     19  C   UNL     1       4.810   6.627  17.257  0.00  0.00    +0.000 A 
ATOM     20  C   UNL     1       5.431   6.558  16.010  0.00  0.00    +0.000 A 
ATOM     21  C   UNL     1       5.539   5.337  15.366  0.00  0.00    +0.000 A 
ATOM     22  C   UNL     1       5.039   4.190  15.984  0.00  0.00    +0.000 A 
ATOM     23  C   UNL     1       4.397   4.248  17.232  0.00  0.00    +0.000 A 
BRANCH  23  24
ATOM     24  O   UNL     1       3.873   3.042  17.615  0.00  0.00    +0.000 OA
ATOM     25  C   UNL     1       2.465   2.860  17.545  0.00  0.00    +0.000 C 
ENDBRANCH  23  24
ENDBRANCH  17  18
ENDBRANCH   8  17
TORSDOF 5
ENDMDL
