MODEL 1
REMARK VINA RESULT:      -7.2      0.000      0.000
REMARK  Name = 
REMARK  3 active torsions:
REMARK  status: ('A' for Active; 'I' for Inactive)
REMARK    1  A    between atoms: C_4  and  C_5
REMARK    2  A    between atoms: C_5  and  C_6
REMARK    3  A    between atoms: C_6  and  N_7
REMARK                            x       y       z     vdW  Elec       q    Type
REMARK                         _______ _______ _______ _____ _____    ______ ____
ROOT
ATOM      1  N   UNL     1       4.396   4.851  16.995  0.00  0.00    +0.000 NA
ATOM      2  C   UNL     1       3.397   3.766  16.944  0.00  0.00    +0.000 C 
ATOM      3  C   UNL     1       3.315   2.882  18.211  0.00  0.00    +0.000 C 
ATOM      4  N   UNL     1       3.062   3.728  19.486  0.00  0.00    +0.000 N 
ATOM      5  C   UNL     1       3.224   2.799  20.722  0.00  0.00    +0.000 C 
ATOM      6  C   UNL     1       1.937   2.981  21.512  0.00  0.00    +0.000 C 
ATOM      7  C   UNL     1       0.902   3.286  20.453  0.00  0.00    +0.000 C 
ATOM      8  C   UNL     1       1.629   4.256  19.546  0.00  0.00    +0.000 C 
ATOM      9  C   UNL     1       4.114   4.853  19.543  0.00  0.00    +0.000 C 
ATOM     10  C   UNL     1       4.178   5.654  18.220  0.00  0.00    +0.000 C 
ENDROOT
BRANCH   1  11
ATOM     11  C   UNL     1       5.792   4.349  16.936  0.00  0.00    +0.000 C 
BRANCH  11  12
ATOM     12  C   UNL     1       6.775   5.153  16.059  0.00  0.00    +0.000 C 
BRANCH  12  16
ATOM     13  C   UNL     1       6.895   4.021  11.900  0.00  0.00    +0.000 A 
ATOM     14  C   UNL     1       7.746   5.018  12.368  0.00  0.00    +0.000 A 
ATOM     15  C   UNL     1       7.695   5.401  13.708  0.00  0.00    +0.000 A 
ATOM     16  C   UNL     1       6.777   4.806  14.585  0.00  0.00    +0.000 A 
ATOM     17  C   UNL     1       5.915   3.814  14.094  0.00  0.00    +0.000 A 
ATOM     18  C   UNL     1       5.970   3.425  12.757  0.00  0.00    +0.000 A 
ENDBRANCH  12  16
ENDBRANCH  11  12
ENDBRANCH   1  11
TORSDOF 3
ENDMDL
MODEL 2
REMARK VINA RESULT:      -7.2      0.111      1.144
REMARK  Name = 
REMARK  3 active torsions:
REMARK  status: ('A' for Active; 'I' for Inactive)
REMARK    1  A    between atoms: C_4  and  C_5
REMARK    2  A    between atoms: C_5  and  C_6
REMARK    3  A    between atoms: C_6  and  N_7
REMARK                            x       y       z     vdW  Elec       q    Type
REMARK                         _______ _______ _______ _____ _____    ______ ____
ROOT
ATOM      1  N   UNL     1       4.460   5.012  17.062  0.00  0.00    +0.000 NA
ATOM      2  C   UNL     1       3.459   3.931  16.961  0.00  0.00    +0.000 C 
ATOM      3  C   UNL     1       3.372   2.993  18.187  0.00  0.00    +0.000 C 
ATOM      4  N   UNL     1       3.116   3.783  19.497  0.00  0.00    +0.000 N 
ATOM      5  C   UNL     1       3.272   2.801  20.692  0.00  0.00    +0.000 C 
ATOM      6  C   UNL     1       1.983   2.950  21.485  0.00  0.00    +0.000 C 
ATOM      7  C   UNL     1       0.952   3.303  20.437  0.00  0.00    +0.000 C 
ATOM      8  C   UNL     1       1.684   4.311  19.576  0.00  0.00    +0.000 C 
ATOM      9  C   UNL     1       4.170   4.903  19.607  0.00  0.00    +0.000 C 
ATOM     10  C   UNL     1       4.240   5.760  18.320  0.00  0.00    +0.000 C 
ENDROOT
BRANCH   1  11
ATOM     11  C   UNL     1       5.856   4.510  16.986  0.00  0.00    +0.000 C 
BRANCH  11  12
ATOM     12  C   UNL     1       6.812   5.281  16.053  0.00  0.00    +0.000 C 
BRANCH  12  16
ATOM     13  C   UNL     1       6.836   4.045  11.921  0.00  0.00    +0.000 A 
ATOM     14  C   UNL     1       5.983   3.416  12.824  0.00  0.00    +0.000 A 
ATOM     15  C   UNL     1       5.988   3.800  14.164  0.00  0.00    +0.000 A 
ATOM     16  C   UNL     1       6.862   4.798  14.617  0.00  0.00    +0.000 A 
ATOM     17  C   UNL     1       7.727   5.410  13.698  0.00  0.00    +0.000 A 
ATOM     18  C   UNL     1       7.718   5.033  12.357  0.00  0.00    +0.000 A 
ENDBRANCH  12  16
ENDBRANCH  11  12
ENDBRANCH   1  11
TORSDOF 3
ENDMDL
MODEL 3
REMARK VINA RESULT:      -7.1      1.024      1.941
REMARK  Name = 
REMARK  3 active torsions:
REMARK  status: ('A' for Active; 'I' for Inactive)
REMARK    1  A    between atoms: C_4  and  C_5
REMARK    2  A    between atoms: C_5  and  C_6
REMARK    3  A    between atoms: C_6  and  N_7
REMARK                            x       y       z     vdW  Elec       q    Type
REMARK                         _______ _______ _______ _____ _____    ______ ____
ROOT
ATOM      1  N   UNL     1       5.060   5.809  17.937  0.00  0.00    +0.000 NA
ATOM      2  C   UNL     1       3.777   6.405  18.359  0.00  0.00    +0.000 C 
ATOM      3  C   UNL     1       2.526   5.530  18.109  0.00  0.00    +0.000 C 
ATOM      4  N   UNL     1       2.662   4.134  18.770  0.00  0.00    +0.000 N 
ATOM      5  C   UNL     1       1.479   3.252  18.280  0.00  0.00    +0.000 C 
ATOM      6  C   UNL     1       0.836   2.727  19.555  0.00  0.00    +0.000 C 
ATOM      7  C   UNL     1       1.089   3.823  20.566  0.00  0.00    +0.000 C 
ATOM      8  C   UNL     1       2.528   4.205  20.290  0.00  0.00    +0.000 C 
ATOM      9  C   UNL     1       3.996   3.507  18.318  0.00  0.00    +0.000 C 
ATOM     10  C   UNL     1       5.191   4.464  18.544  0.00  0.00    +0.000 C 
ENDROOT
BRANCH   1  11
ATOM     11  C   UNL     1       5.200   5.735  16.461  0.00  0.00    +0.000 C 
BRANCH  11  12
ATOM     12  C   UNL     1       6.618   5.453  15.919  0.00  0.00    +0.000 C 
BRANCH  12  16
ATOM     13  C   UNL     1       6.709   3.865  11.911  0.00  0.00    +0.000 A 
ATOM     14  C   UNL     1       5.740   3.421  12.807  0.00  0.00    +0.000 A 
ATOM     15  C   UNL     1       5.721   3.918  14.109  0.00  0.00    +0.000 A 
ATOM     16  C   UNL     1       6.684   4.844  14.534  0.00  0.00    +0.000 A 
ATOM     17  C   UNL     1       7.664   5.269  13.625  0.00  0.00    +0.000 A 
ATOM     18  C   UNL     1       7.680   4.779  12.320  0.00  0.00    +0.000 A 
ENDBRANCH  12  16
ENDBRANCH  11  12
ENDBRANCH   1  11
TORSDOF 3
ENDMDL
MODEL 4
REMARK VINA RESULT:      -7.1      0.990      1.573
REMARK  Name = 
REMARK  3 active torsions:
REMARK  status: ('A' for Active; 'I' for Inactive)
REMARK    1  A    between atoms: C_4  and  C_5
REMARK    2  A    between atoms: C_5  and  C_6
REMARK    3  A    between atoms: C_6  and  N_7
REMARK                            x       y       z     vdW  Elec       q    Type
REMARK                         _______ _______ _______ _____ _____    ______ ____
ROOT
ATOM      1  N   UNL     1       5.081   5.658  17.995  0.00  0.00    +0.000 NA
ATOM      2  C   UNL     1       3.822   6.270  18.463  0.00  0.00    +0.000 C 
ATOM      3  C   UNL     1       2.544   5.443  18.193  0.00  0.00    +0.000 C 
ATOM      4  N   UNL     1       2.649   4.014  18.787  0.00  0.00    +0.000 N 
ATOM      5  C   UNL     1       1.434   3.189  18.276  0.00  0.00    +0.000 C 
ATOM      6  C   UNL     1       0.794   2.624  19.535  0.00  0.00    +0.000 C 
ATOM      7  C   UNL     1       1.091   3.665  20.590  0.00  0.00    +0.000 C 
ATOM      8  C   UNL     1       2.537   4.019  20.311  0.00  0.00    +0.000 C 
ATOM      9  C   UNL     1       3.957   3.371  18.287  0.00  0.00    +0.000 C 
ATOM     10  C   UNL     1       5.182   4.284  18.538  0.00  0.00    +0.000 C 
ENDROOT
BRANCH   1  11
ATOM     11  C   UNL     1       5.200   5.648  16.515  0.00  0.00    +0.000 C 
BRANCH  11  12
ATOM     12  C   UNL     1       6.589   5.302  15.940  0.00  0.00    +0.000 C 
BRANCH  12  16
ATOM     13  C   UNL     1       6.741   3.856  11.880  0.00  0.00    +0.000 A 
ATOM     14  C   UNL     1       7.682   4.783  12.317  0.00  0.00    +0.000 A 
ATOM     15  C   UNL     1       7.624   5.268  13.623  0.00  0.00    +0.000 A 
ATOM     16  C   UNL     1       6.609   4.847  14.495  0.00  0.00    +0.000 A 
ATOM     17  C   UNL     1       5.658   3.926  14.034  0.00  0.00    +0.000 A 
ATOM     18  C   UNL     1       5.719   3.434  12.731  0.00  0.00    +0.000 A 
ENDBRANCH  12  16
ENDBRANCH  11  12
ENDBRANCH   1  11
TORSDOF 3
ENDMDL
MODEL 5
REMARK VINA RESULT:      -7.1      1.002      1.639
REMARK  Name = 
REMARK  3 active torsions:
REMARK  status: ('A' for Active; 'I' for Inactive)
REMARK    1  A    between atoms: C_4  and  C_5
REMARK    2  A    between atoms: C_5  and  C_6
REMARK    3  A    between atoms: C_6  and  N_7
REMARK                            x       y       z     vdW  Elec       q    Type
REMARK                         _______ _______ _______ _____ _____    ______ ____
ROOT
ATOM      1  N   UNL     1       5.354   5.339  17.812  0.00  0.00    +0.000 NA
ATOM      2  C   UNL     1       3.931   5.623  17.539  0.00  0.00    +0.000 C 
ATOM      3  C   UNL     1       2.959   4.452  17.814  0.00  0.00    +0.000 C 
ATOM      4  N   UNL     1       3.088   3.928  19.268  0.00  0.00    +0.000 N 
ATOM      5  C   UNL     1       2.254   2.621  19.385  0.00  0.00    +0.000 C 
ATOM      6  C   UNL     1       1.336   2.855  20.575  0.00  0.00    +0.000 C 
ATOM      7  C   UNL     1       1.104   4.350  20.565  0.00  0.00    +0.000 C 
ATOM      8  C   UNL     1       2.487   4.899  20.282  0.00  0.00    +0.000 C 
ATOM      9  C   UNL     1       4.573   3.620  19.546  0.00  0.00    +0.000 C 
ATOM     10  C   UNL     1       5.488   4.816  19.190  0.00  0.00    +0.000 C 
ENDROOT
BRANCH   1  11
ATOM     11  C   UNL     1       5.949   4.396  16.831  0.00  0.00    +0.000 C 
BRANCH  11  12
ATOM     12  C   UNL     1       5.164   4.185  15.519  0.00  0.00    +0.000 C 
BRANCH  12  16
ATOM     13  C   UNL     1       7.419   4.382  11.848  0.00  0.00    +0.000 A 
ATOM     14  C   UNL     1       6.316   3.537  11.935  0.00  0.00    +0.000 A 
ATOM     15  C   UNL     1       5.597   3.456  13.127  0.00  0.00    +0.000 A 
ATOM     16  C   UNL     1       5.990   4.201  14.249  0.00  0.00    +0.000 A 
ATOM     17  C   UNL     1       7.113   5.035  14.150  0.00  0.00    +0.000 A 
ATOM     18  C   UNL     1       7.828   5.122  12.957  0.00  0.00    +0.000 A 
ENDBRANCH  12  16
ENDBRANCH  11  12
ENDBRANCH   1  11
TORSDOF 3
ENDMDL
MODEL 6
REMARK VINA RESULT:      -7.1      1.834      3.198
REMARK  Name = 
REMARK  3 active torsions:
REMARK  status: ('A' for Active; 'I' for Inactive)
REMARK    1  A    between atoms: C_4  and  C_5
REMARK    2  A    between atoms: C_5  and  C_6
REMARK    3  A    between atoms: C_6  and  N_7
REMARK                            x       y       z     vdW  Elec       q    Type
REMARK                         _______ _______ _______ _____ _____    ______ ____
ROOT
ATOM      1  N   UNL     1       3.917   4.156  16.713  0.00  0.00    +0.000 NA
ATOM      2  C   UNL     1       2.904   3.107  16.945  0.00  0.00    +0.000 C 
ATOM      3  C   UNL     1       3.005   2.380  18.306  0.00  0.00    +0.000 C 
ATOM      4  N   UNL     1       2.966   3.376  19.494  0.00  0.00    +0.000 N 
ATOM      5  C   UNL     1       3.302   2.591  20.793  0.00  0.00    +0.000 C 
ATOM      6  C   UNL     1       2.156   2.907  21.743  0.00  0.00    +0.000 C 
ATOM      7  C   UNL     1       0.974   3.123  20.824  0.00  0.00    +0.000 C 
ATOM      8  C   UNL     1       1.569   3.956  19.708  0.00  0.00    +0.000 C 
ATOM      9  C   UNL     1       4.032   4.463  19.256  0.00  0.00    +0.000 C 
ATOM     10  C   UNL     1       3.904   5.102  17.852  0.00  0.00    +0.000 C 
ENDROOT
BRANCH   1  11
ATOM     11  C   UNL     1       5.279   3.603  16.504  0.00  0.00    +0.000 C 
BRANCH  11  12
ATOM     12  C   UNL     1       6.323   4.561  15.894  0.00  0.00    +0.000 C 
BRANCH  12  16
ATOM     13  C   UNL     1       8.153   7.200  18.772  0.00  0.00    +0.000 A 
ATOM     14  C   UNL     1       7.685   7.714  17.566  0.00  0.00    +0.000 A 
ATOM     15  C   UNL     1       7.111   6.859  16.625  0.00  0.00    +0.000 A 
ATOM     16  C   UNL     1       7.022   5.482  16.873  0.00  0.00    +0.000 A 
ATOM     17  C   UNL     1       7.513   4.978  18.086  0.00  0.00    +0.000 A 
ATOM     18  C   UNL     1       8.080   5.831  19.031  0.00  0.00    +0.000 A 
ENDBRANCH  12  16
ENDBRANCH  11  12
ENDBRANCH   1  11
TORSDOF 3
ENDMDL
MODEL 7
REMARK VINA RESULT:      -6.9      0.735      2.041
REMARK  Name = 
REMARK  3 active torsions:
REMARK  status: ('A' for Active; 'I' for Inactive)
REMARK    1  A    between atoms: C_4  and  C_5
REMARK    2  A    between atoms: C_5  and  C_6
REMARK    3  A    between atoms: C_6  and  N_7
REMARK                            x       y       z     vdW  Elec       q    Type
REMARK                         _______ _______ _______ _____ _____    ______ ____
ROOT
ATOM      1  N   UNL     1       5.663   4.318  17.892  0.00  0.00    +0.000 NA
ATOM      2  C   UNL     1       5.424   4.869  19.240  0.00  0.00    +0.000 C 
ATOM      3  C   UNL     1       3.955   5.234  19.555  0.00  0.00    +0.000 C 
ATOM      4  N   UNL     1       3.005   4.028  19.339  0.00  0.00    +0.000 N 
ATOM      5  C   UNL     1       1.541   4.540  19.452  0.00  0.00    +0.000 C 
ATOM      6  C   UNL     1       0.894   3.632  20.487  0.00  0.00    +0.000 C 
ATOM      7  C   UNL     1       2.036   3.256  21.404  0.00  0.00    +0.000 C 
ATOM      8  C   UNL     1       3.163   2.973  20.433  0.00  0.00    +0.000 C 
ATOM      9  C   UNL     1       3.247   3.461  17.926  0.00  0.00    +0.000 C 
ATOM     10  C   UNL     1       4.746   3.178  17.665  0.00  0.00    +0.000 C 
ENDROOT
BRANCH   1  11
ATOM     11  C   UNL     1       5.512   5.335  16.821  0.00  0.00    +0.000 C 
BRANCH  11  12
ATOM     12  C   UNL     1       6.756   5.601  15.946  0.00  0.00    +0.000 C 
BRANCH  12  16
ATOM     13  C   UNL     1       6.659   3.851  12.006  0.00  0.00    +0.000 A 
ATOM     14  C   UNL     1       5.735   3.443  12.964  0.00  0.00    +0.000 A 
ATOM     15  C   UNL     1       5.777   3.992  14.245  0.00  0.00    +0.000 A 
ATOM     16  C   UNL     1       6.757   4.936  14.585  0.00  0.00    +0.000 A 
ATOM     17  C   UNL     1       7.691   5.323  13.613  0.00  0.00    +0.000 A 
ATOM     18  C   UNL     1       7.646   4.781  12.330  0.00  0.00    +0.000 A 
ENDBRANCH  12  16
ENDBRANCH  11  12
ENDBRANCH   1  11
TORSDOF 3
ENDMDL
MODEL 8
REMARK VINA RESULT:      -6.9      2.196      6.635
REMARK  Name = 
REMARK  3 active torsions:
REMARK  status: ('A' for Active; 'I' for Inactive)
REMARK    1  A    between atoms: C_4  and  C_5
REMARK    2  A    between atoms: C_5  and  C_6
REMARK    3  A    between atoms: C_6  and  N_7
REMARK                            x       y       z     vdW  Elec       q    Type
REMARK                         _______ _______ _______ _____ _____    ______ ____
ROOT
ATOM      1  N   UNL     1       4.465   3.954  16.439  0.00  0.00    +0.000 NA
ATOM      2  C   UNL     1       4.125   5.212  17.131  0.00  0.00    +0.000 C 
ATOM      3  C   UNL     1       5.117   5.650  18.234  0.00  0.00    +0.000 C 
ATOM      4  N   UNL     1       6.565   5.762  17.691  0.00  0.00    +0.000 N 
ATOM      5  C   UNL     1       7.519   5.978  18.900  0.00  0.00    +0.000 C 
ATOM      6  C   UNL     1       8.317   7.223  18.544  0.00  0.00    +0.000 C 
ATOM      7  C   UNL     1       7.363   8.034  17.695  0.00  0.00    +0.000 C 
ATOM      8  C   UNL     1       6.747   6.985  16.793  0.00  0.00    +0.000 C 
ATOM      9  C   UNL     1       6.924   4.442  16.979  0.00  0.00    +0.000 C 
ATOM     10  C   UNL     1       5.855   4.040  15.934  0.00  0.00    +0.000 C 
ENDROOT
BRANCH   1  11
ATOM     11  C   UNL     1       4.292   2.759  17.302  0.00  0.00    +0.000 C 
BRANCH  11  12
ATOM     12  C   UNL     1       2.839   2.323  17.588  0.00  0.00    +0.000 C 
BRANCH  12  16
ATOM     13  C   UNL     1       1.491   3.152  21.599  0.00  0.00    +0.000 A 
ATOM     14  C   UNL     1       2.775   2.654  21.392  0.00  0.00    +0.000 A 
ATOM     15  C   UNL     1       3.206   2.366  20.098  0.00  0.00    +0.000 A 
ATOM     16  C   UNL     1       2.350   2.551  19.003  0.00  0.00    +0.000 A 
ATOM     17  C   UNL     1       1.055   3.038  19.230  0.00  0.00    +0.000 A 
ATOM     18  C   UNL     1       0.624   3.334  20.522  0.00  0.00    +0.000 A 
ENDBRANCH  12  16
ENDBRANCH  11  12
ENDBRANCH   1  11
TORSDOF 3
ENDMDL
MODEL 9
REMARK VINA RESULT:      -6.9      0.792      1.690
REMARK  Name = 
REMARK  3 active torsions:
REMARK  status: ('A' for Active; 'I' for Inactive)
REMARK    1  A    between atoms: C_4  and  C_5
REMARK    2  A    between atoms: C_5  and  C_6
REMARK    3  A    between atoms: C_6  and  N_7
REMARK                            x       y       z     vdW  Elec       q    Type
REMARK                         _______ _______ _______ _____ _____    ______ ____
ROOT
ATOM      1  N   UNL     1       5.556   4.174  17.576  0.00  0.00    +0.000 NA
ATOM      2  C   UNL     1       5.567   4.601  18.989  0.00  0.00    +0.000 C 
ATOM      3  C   UNL     1       4.239   5.199  19.510  0.00  0.00    +0.000 C 
ATOM      4  N   UNL     1       3.049   4.228  19.295  0.00  0.00    +0.000 N 
ATOM      5  C   UNL     1       1.737   4.991  19.630  0.00  0.00    +0.000 C 
ATOM      6  C   UNL     1       1.025   4.109  20.644  0.00  0.00    +0.000 C 
ATOM      7  C   UNL     1       2.153   3.420  21.379  0.00  0.00    +0.000 C 
ATOM      8  C   UNL     1       3.098   3.042  20.259  0.00  0.00    +0.000 C 
ATOM      9  C   UNL     1       3.032   3.794  17.817  0.00  0.00    +0.000 C 
ATOM     10  C   UNL     1       4.410   3.263  17.353  0.00  0.00    +0.000 C 
ENDROOT
BRANCH   1  11
ATOM     11  C   UNL     1       5.509   5.319  16.631  0.00  0.00    +0.000 C 
BRANCH  11  12
ATOM     12  C   UNL     1       6.757   5.535  15.751  0.00  0.00    +0.000 C 
BRANCH  12  16
ATOM     13  C   UNL     1       6.662   3.707  11.846  0.00  0.00    +0.000 A 
ATOM     14  C   UNL     1       7.637   4.657  12.139  0.00  0.00    +0.000 A 
ATOM     15  C   UNL     1       7.658   5.264  13.394  0.00  0.00    +0.000 A 
ATOM     16  C   UNL     1       6.690   4.944  14.357  0.00  0.00    +0.000 A 
ATOM     17  C   UNL     1       5.704   3.998  14.040  0.00  0.00    +0.000 A 
ATOM     18  C   UNL     1       5.686   3.385  12.789  0.00  0.00    +0.000 A 
ENDBRANCH  12  16
ENDBRANCH  11  12
ENDBRANCH   1  11
TORSDOF 3
ENDMDL
