MODEL 1
REMARK VINA RESULT:      -4.3      0.000      0.000
REMARK  Name = 
REMARK  5 active torsions:
REMARK  status: ('A' for Active; 'I' for Inactive)
REMARK    1  A    between atoms: C_1  and  N_2
REMARK    2  A    between atoms: N_2  and  C_3
REMARK    3  A    between atoms: N_2  and  N_7
REMARK    4  A    between atoms: C_3  and  C_4
REMARK    5  A    between atoms: C_4  and  O_6
REMARK                            x       y       z     vdW  Elec       q    Type
REMARK                         _______ _______ _______ _____ _____    ______ ____
ROOT
ATOM      1  C   UNL     1       5.898   3.655  15.289  0.00  0.00    +0.000 C 
ATOM      2  N   UNL     1       6.116   4.411  16.502  0.00  0.00    +0.000 N 
ENDROOT
BRANCH   2   3
ATOM      3  N   UNL     1       7.322   4.977  16.740  0.00  0.00    +0.000 N 
ATOM      4  O   UNL     1       7.497   6.127  16.341  0.00  0.00    +0.000 OA
ATOM      5  O   UNL     1       8.140   4.244  17.306  0.00  0.00    +0.000 OA
ENDBRANCH   2   3
BRANCH   2   6
ATOM      6  C   UNL     1       4.944   4.948  17.177  0.00  0.00    +0.000 C 
BRANCH   6   7
ATOM      7  C   UNL     1       5.027   4.627  18.663  0.00  0.00    +0.000 C 
ATOM      8  O   UNL     1       4.653   5.395  19.536  0.00  0.00    +0.000 OA
BRANCH   7   9
ATOM      9  O   UNL     1       5.559   3.417  18.946  0.00  0.00    +0.000 OA
ATOM     10  H   UNL     1       6.361   3.201  18.417  0.00  0.00    +0.000 HD
ENDBRANCH   7   9
ENDBRANCH   6   7
ENDBRANCH   2   6
TORSDOF 4
ENDMDL
MODEL 2
REMARK VINA RESULT:      -4.2      1.418      1.670
REMARK  Name = 
REMARK  5 active torsions:
REMARK  status: ('A' for Active; 'I' for Inactive)
REMARK    1  A    between atoms: C_1  and  N_2
REMARK    2  A    between atoms: N_2  and  C_3
REMARK    3  A    between atoms: N_2  and  N_7
REMARK    4  A    between atoms: C_3  and  C_4
REMARK    5  A    between atoms: C_4  and  O_6
REMARK                            x       y       z     vdW  Elec       q    Type
REMARK                         _______ _______ _______ _____ _____    ______ ____
ROOT
ATOM      1  C   UNL     1       5.257   4.962  16.632  0.00  0.00    +0.000 C 
ATOM      2  N   UNL     1       6.051   4.599  17.785  0.00  0.00    +0.000 N 
ENDROOT
BRANCH   2   3
ATOM      3  N   UNL     1       7.402   4.608  17.707  0.00  0.00    +0.000 N 
ATOM      4  O   UNL     1       7.908   4.447  16.598  0.00  0.00    +0.000 OA
ATOM      5  O   UNL     1       7.986   4.739  18.789  0.00  0.00    +0.000 OA
ENDBRANCH   2   3
BRANCH   2   6
ATOM      6  C   UNL     1       5.424   4.713  19.093  0.00  0.00    +0.000 C 
BRANCH   6   7
ATOM      7  C   UNL     1       4.515   3.513  19.322  0.00  0.00    +0.000 C 
ATOM      8  O   UNL     1       3.297   3.568  19.232  0.00  0.00    +0.000 OA
BRANCH   7   9
ATOM      9  O   UNL     1       5.163   2.372  19.645  0.00  0.00    +0.000 OA
ATOM     10  H   UNL     1       5.420   1.826  18.867  0.00  0.00    +0.000 HD
ENDBRANCH   7   9
ENDBRANCH   6   7
ENDBRANCH   2   6
TORSDOF 4
ENDMDL
MODEL 3
REMARK VINA RESULT:      -4.2      2.021      2.484
REMARK  Name = 
REMARK  5 active torsions:
REMARK  status: ('A' for Active; 'I' for Inactive)
REMARK    1  A    between atoms: C_1  and  N_2
REMARK    2  A    between atoms: N_2  and  C_3
REMARK    3  A    between atoms: N_2  and  N_7
REMARK    4  A    between atoms: C_3  and  C_4
REMARK    5  A    between atoms: C_4  and  O_6
REMARK                            x       y       z     vdW  Elec       q    Type
REMARK                         _______ _______ _______ _____ _____    ______ ____
ROOT
ATOM      1  C   UNL     1       5.208   4.335  17.353  0.00  0.00    +0.000 C 
ATOM      2  N   UNL     1       6.505   4.695  16.825  0.00  0.00    +0.000 N 
ENDROOT
BRANCH   2   3
ATOM      3  N   UNL     1       6.595   5.507  15.747  0.00  0.00    +0.000 N 
ATOM      4  O   UNL     1       5.644   6.252  15.515  0.00  0.00    +0.000 OA
ATOM      5  O   UNL     1       7.628   5.375  15.080  0.00  0.00    +0.000 OA
ENDBRANCH   2   3
BRANCH   2   6
ATOM      6  C   UNL     1       7.645   4.592  17.722  0.00  0.00    +0.000 C 
BRANCH   6   7
ATOM      7  C   UNL     1       7.616   5.750  18.710  0.00  0.00    +0.000 C 
ATOM      8  O   UNL     1       7.862   6.905  18.397  0.00  0.00    +0.000 OA
BRANCH   7   9
ATOM      9  O   UNL     1       7.303   5.398  19.977  0.00  0.00    +0.000 OA
ATOM     10  H   UNL     1       6.515   4.811  20.044  0.00  0.00    +0.000 HD
ENDBRANCH   7   9
ENDBRANCH   6   7
ENDBRANCH   2   6
TORSDOF 4
ENDMDL
MODEL 4
REMARK VINA RESULT:      -4.1      1.983      2.541
REMARK  Name = 
REMARK  5 active torsions:
REMARK  status: ('A' for Active; 'I' for Inactive)
REMARK    1  A    between atoms: C_1  and  N_2
REMARK    2  A    between atoms: N_2  and  C_3
REMARK    3  A    between atoms: N_2  and  N_7
REMARK    4  A    between atoms: C_3  and  C_4
REMARK    5  A    between atoms: C_4  and  O_6
REMARK                            x       y       z     vdW  Elec       q    Type
REMARK                         _______ _______ _______ _____ _____    ______ ____
ROOT
ATOM      1  C   UNL     1       5.284   4.231  17.208  0.00  0.00    +0.000 C 
ATOM      2  N   UNL     1       6.591   4.643  16.747  0.00  0.00    +0.000 N 
ENDROOT
BRANCH   2   3
ATOM      3  N   UNL     1       6.704   5.471  15.683  0.00  0.00    +0.000 N 
ATOM      4  O   UNL     1       7.718   5.376  14.994  0.00  0.00    +0.000 OA
ATOM      5  O   UNL     1       5.774   6.275  15.546  0.00  0.00    +0.000 OA
ENDBRANCH   2   3
BRANCH   2   6
ATOM      6  C   UNL     1       7.690   4.570  17.697  0.00  0.00    +0.000 C 
BRANCH   6   7
ATOM      7  C   UNL     1       7.568   5.710  18.700  0.00  0.00    +0.000 C 
ATOM      8  O   UNL     1       7.921   6.854  18.459  0.00  0.00    +0.000 OA
BRANCH   7   9
ATOM      9  O   UNL     1       7.041   5.352  19.892  0.00  0.00    +0.000 OA
ATOM     10  H   UNL     1       7.701   4.984  20.524  0.00  0.00    +0.000 HD
ENDBRANCH   7   9
ENDBRANCH   6   7
ENDBRANCH   2   6
TORSDOF 4
ENDMDL
MODEL 5
REMARK VINA RESULT:      -4.1      0.646      1.226
REMARK  Name = 
REMARK  5 active torsions:
REMARK  status: ('A' for Active; 'I' for Inactive)
REMARK    1  A    between atoms: C_1  and  N_2
REMARK    2  A    between atoms: N_2  and  C_3
REMARK    3  A    between atoms: N_2  and  N_7
REMARK    4  A    between atoms: C_3  and  C_4
REMARK    5  A    between atoms: C_4  and  O_6
REMARK                            x       y       z     vdW  Elec       q    Type
REMARK                         _______ _______ _______ _____ _____    ______ ____
ROOT
ATOM      1  C   UNL     1       5.641   3.820  15.497  0.00  0.00    +0.000 C 
ATOM      2  N   UNL     1       6.075   4.519  16.686  0.00  0.00    +0.000 N 
ENDROOT
BRANCH   2   3
ATOM      3  N   UNL     1       7.350   4.962  16.783  0.00  0.00    +0.000 N 
ATOM      4  O   UNL     1       8.159   4.243  17.365  0.00  0.00    +0.000 OA
ATOM      5  O   UNL     1       7.550   6.084  16.302  0.00  0.00    +0.000 OA
ENDBRANCH   2   3
BRANCH   2   6
ATOM      6  C   UNL     1       5.051   5.146  17.507  0.00  0.00    +0.000 C 
BRANCH   6   7
ATOM      7  C   UNL     1       4.652   4.196  18.629  0.00  0.00    +0.000 C 
ATOM      8  O   UNL     1       3.523   4.143  19.092  0.00  0.00    +0.000 OA
BRANCH   7   9
ATOM      9  O   UNL     1       5.656   3.414  19.084  0.00  0.00    +0.000 OA
ATOM     10  H   UNL     1       5.727   3.387  20.066  0.00  0.00    +0.000 HD
ENDBRANCH   7   9
ENDBRANCH   6   7
ENDBRANCH   2   6
TORSDOF 4
ENDMDL
MODEL 6
REMARK VINA RESULT:      -4.1      1.419      1.473
REMARK  Name = 
REMARK  5 active torsions:
REMARK  status: ('A' for Active; 'I' for Inactive)
REMARK    1  A    between atoms: C_1  and  N_2
REMARK    2  A    between atoms: N_2  and  C_3
REMARK    3  A    between atoms: N_2  and  N_7
REMARK    4  A    between atoms: C_3  and  C_4
REMARK    5  A    between atoms: C_4  and  O_6
REMARK                            x       y       z     vdW  Elec       q    Type
REMARK                         _______ _______ _______ _____ _____    ______ ____
ROOT
ATOM      1  C   UNL     1       5.292   6.602  16.673  0.00  0.00    +0.000 C 
ATOM      2  N   UNL     1       6.198   5.648  17.272  0.00  0.00    +0.000 N 
ENDROOT
BRANCH   2   3
ATOM      3  N   UNL     1       7.276   5.212  16.581  0.00  0.00    +0.000 N 
ATOM      4  O   UNL     1       7.455   5.675  15.456  0.00  0.00    +0.000 OA
ATOM      5  O   UNL     1       7.950   4.349  17.156  0.00  0.00    +0.000 OA
ENDBRANCH   2   3
BRANCH   2   6
ATOM      6  C   UNL     1       6.214   5.559  18.724  0.00  0.00    +0.000 C 
BRANCH   6   7
ATOM      7  C   UNL     1       5.149   4.570  19.180  0.00  0.00    +0.000 C 
ATOM      8  O   UNL     1       4.081   4.912  19.665  0.00  0.00    +0.000 OA
BRANCH   7   9
ATOM      9  O   UNL     1       5.484   3.271  19.015  0.00  0.00    +0.000 OA
ATOM     10  H   UNL     1       6.447   3.091  19.117  0.00  0.00    +0.000 HD
ENDBRANCH   7   9
ENDBRANCH   6   7
ENDBRANCH   2   6
TORSDOF 4
ENDMDL
MODEL 7
REMARK VINA RESULT:      -4.1      3.986      5.040
REMARK  Name = 
REMARK  5 active torsions:
REMARK  status: ('A' for Active; 'I' for Inactive)
REMARK    1  A    between atoms: C_1  and  N_2
REMARK    2  A    between atoms: N_2  and  C_3
REMARK    3  A    between atoms: N_2  and  N_7
REMARK    4  A    between atoms: C_3  and  C_4
REMARK    5  A    between atoms: C_4  and  O_6
REMARK                            x       y       z     vdW  Elec       q    Type
REMARK                         _______ _______ _______ _____ _____    ______ ____
ROOT
ATOM      1  C   UNL     1       3.574   5.044  19.610  0.00  0.00    +0.000 C 
ATOM      2  N   UNL     1       2.758   3.952  19.130  0.00  0.00    +0.000 N 
ENDROOT
BRANCH   2   3
ATOM      3  N   UNL     1       2.438   3.872  17.818  0.00  0.00    +0.000 N 
ATOM      4  O   UNL     1       1.244   3.858  17.525  0.00  0.00    +0.000 OA
ATOM      5  O   UNL     1       3.403   3.779  17.050  0.00  0.00    +0.000 OA
ENDBRANCH   2   3
BRANCH   2   6
ATOM      6  C   UNL     1       2.717   2.742  19.936  0.00  0.00    +0.000 C 
BRANCH   6   7
ATOM      7  C   UNL     1       1.577   2.844  20.940  0.00  0.00    +0.000 C 
ATOM      8  O   UNL     1       1.721   2.653  22.139  0.00  0.00    +0.000 OA
BRANCH   7   9
ATOM      9  O   UNL     1       0.379   3.155  20.398  0.00  0.00    +0.000 OA
ATOM     10  H   UNL     1      -0.086   3.893  20.855  0.00  0.00    +0.000 HD
ENDBRANCH   7   9
ENDBRANCH   6   7
ENDBRANCH   2   6
TORSDOF 4
ENDMDL
MODEL 8
REMARK VINA RESULT:      -4.1      1.231      1.563
REMARK  Name = 
REMARK  5 active torsions:
REMARK  status: ('A' for Active; 'I' for Inactive)
REMARK    1  A    between atoms: C_1  and  N_2
REMARK    2  A    between atoms: N_2  and  C_3
REMARK    3  A    between atoms: N_2  and  N_7
REMARK    4  A    between atoms: C_3  and  C_4
REMARK    5  A    between atoms: C_4  and  O_6
REMARK                            x       y       z     vdW  Elec       q    Type
REMARK                         _______ _______ _______ _____ _____    ______ ____
ROOT
ATOM      1  C   UNL     1       5.111   5.489  15.513  0.00  0.00    +0.000 C 
ATOM      2  N   UNL     1       5.937   5.435  16.697  0.00  0.00    +0.000 N 
ENDROOT
BRANCH   2   3
ATOM      3  N   UNL     1       7.280   5.566  16.593  0.00  0.00    +0.000 N 
ATOM      4  O   UNL     1       7.946   4.537  16.507  0.00  0.00    +0.000 OA
ATOM      5  O   UNL     1       7.695   6.730  16.639  0.00  0.00    +0.000 OA
ENDBRANCH   2   3
BRANCH   2   6
ATOM      6  C   UNL     1       5.302   5.730  17.972  0.00  0.00    +0.000 C 
BRANCH   6   7
ATOM      7  C   UNL     1       5.941   4.881  19.063  0.00  0.00    +0.000 C 
ATOM      8  O   UNL     1       6.721   5.328  19.890  0.00  0.00    +0.000 OA
BRANCH   7   9
ATOM      9  O   UNL     1       5.582   3.578  19.040  0.00  0.00    +0.000 OA
ATOM     10  H   UNL     1       4.982   3.317  19.776  0.00  0.00    +0.000 HD
ENDBRANCH   7   9
ENDBRANCH   6   7
ENDBRANCH   2   6
TORSDOF 4
ENDMDL
MODEL 9
REMARK VINA RESULT:      -4.1      3.985      5.074
REMARK  Name = 
REMARK  5 active torsions:
REMARK  status: ('A' for Active; 'I' for Inactive)
REMARK    1  A    between atoms: C_1  and  N_2
REMARK    2  A    between atoms: N_2  and  C_3
REMARK    3  A    between atoms: N_2  and  N_7
REMARK    4  A    between atoms: C_3  and  C_4
REMARK    5  A    between atoms: C_4  and  O_6
REMARK                            x       y       z     vdW  Elec       q    Type
REMARK                         _______ _______ _______ _____ _____    ______ ____
ROOT
ATOM      1  C   UNL     1       3.686   4.816  19.560  0.00  0.00    +0.000 C 
ATOM      2  N   UNL     1       2.788   3.786  19.090  0.00  0.00    +0.000 N 
ENDROOT
BRANCH   2   3
ATOM      3  N   UNL     1       2.455   3.722  17.780  0.00  0.00    +0.000 N 
ATOM      4  O   UNL     1       3.372   3.661  16.963  0.00  0.00    +0.000 OA
ATOM      5  O   UNL     1       1.242   3.776  17.547  0.00  0.00    +0.000 OA
ENDBRANCH   2   3
BRANCH   2   6
ATOM      6  C   UNL     1       2.660   2.586  19.904  0.00  0.00    +0.000 C 
BRANCH   6   7
ATOM      7  C   UNL     1       1.538   2.780  20.915  0.00  0.00    +0.000 C 
ATOM      8  O   UNL     1       1.675   2.587  22.113  0.00  0.00    +0.000 OA
BRANCH   7   9
ATOM      9  O   UNL     1       0.363   3.177  20.378  0.00  0.00    +0.000 OA
ATOM     10  H   UNL     1       0.372   3.232  19.394  0.00  0.00    +0.000 HD
ENDBRANCH   7   9
ENDBRANCH   6   7
ENDBRANCH   2   6
TORSDOF 4
ENDMDL
