MODEL 1
REMARK VINA RESULT:      -9.0      0.000      0.000
REMARK  Name = 
REMARK  10 active torsions:
REMARK  status: ('A' for Active; 'I' for Inactive)
REMARK    1  A    between atoms: C_2  and  C_3
REMARK    2  A    between atoms: C_4  and  C_5
REMARK    3  A    between atoms: C_9  and  O_10
REMARK    4  A    between atoms: O_10  and  C_11
REMARK    5  A    between atoms: N_18  and  C_19
REMARK    6  A    between atoms: C_19  and  C_20
REMARK    7  A    between atoms: C_23  and  C_24
REMARK    8  A    between atoms: N_26  and  C_27
REMARK    9  A    between atoms: C_27  and  C_28
REMARK   10  A    between atoms: C_28  and  C_29
REMARK                            x       y       z     vdW  Elec       q    Type
REMARK                         _______ _______ _______ _____ _____    ______ ____
ROOT
ATOM      1  O   UNL     1       2.434  10.565  17.416  0.00  0.00    +0.000 OA
ATOM      2  C   UNL     1       2.110   9.537  17.993  0.00  0.00    +0.000 C 
ATOM      3  N   UNL     1       1.311   9.481  19.107  0.00  0.00    +0.000 N 
ATOM      4  H   UNL     1       1.074   8.594  19.527  0.00  0.00    +0.000 HD
ENDROOT
BRANCH   2   5
ATOM      5  C   UNL     1       2.524   8.192  17.532  0.00  0.00    +0.000 C 
ATOM      6  C   UNL     1       3.682   7.653  17.948  0.00  0.00    +0.000 C 
BRANCH   6   7
ATOM      7  C   UNL     1       4.222   6.385  17.436  0.00  0.00    +0.000 A 
ATOM      8  C   UNL     1       4.936   6.363  16.232  0.00  0.00    +0.000 A 
ATOM      9  C   UNL     1       5.345   5.150  15.669  0.00  0.00    +0.000 A 
ATOM     10  C   UNL     1       4.994   3.944  16.273  0.00  0.00    +0.000 A 
ATOM     11  C   UNL     1       4.244   3.952  17.448  0.00  0.00    +0.000 A 
ATOM     12  C   UNL     1       3.921   5.168  18.059  0.00  0.00    +0.000 A 
BRANCH  11  13
ATOM     13  O   UNL     1       3.863   2.728  17.957  0.00  0.00    +0.000 OA
BRANCH  13  14
ATOM     14  C   UNL     1       2.980   2.696  19.018  0.00  0.00    +0.000 A 
ATOM     15  C   UNL     1       1.587   2.758  18.885  0.00  0.00    +0.000 A 
ATOM     16  C   UNL     1       0.772   2.791  20.017  0.00  0.00    +0.000 A 
ATOM     17  C   UNL     1       1.340   2.693  21.286  0.00  0.00    +0.000 A 
ATOM     18  C   UNL     1       2.722   2.558  21.420  0.00  0.00    +0.000 A 
ATOM     19  C   UNL     1       3.542   2.562  20.289  0.00  0.00    +0.000 A 
ENDBRANCH  13  14
ENDBRANCH  11  13
ENDBRANCH   6   7
ENDBRANCH   2   5
BRANCH   3  20
ATOM     20  C   UNL     1       0.734  10.667  19.683  0.00  0.00    +0.000 C 
BRANCH  20  21
ATOM     21  C   UNL     1      -0.623  10.923  19.083  0.00  0.00    +0.000 A 
ATOM     22  C   UNL     1      -1.013  10.234  17.928  0.00  0.00    +0.000 A 
ATOM     23  C   UNL     1      -2.264  10.464  17.358  0.00  0.00    +0.000 A 
ATOM     24  C   UNL     1      -3.153  11.382  17.934  0.00  0.00    +0.000 A 
ATOM     25  C   UNL     1      -2.761  12.080  19.083  0.00  0.00    +0.000 A 
ATOM     26  C   UNL     1      -1.505  11.848  19.655  0.00  0.00    +0.000 A 
BRANCH  24  27
ATOM     27  C   UNL     1      -4.475  11.571  17.266  0.00  0.00    +0.000 C 
ATOM     28  O   UNL     1      -4.705  11.001  16.205  0.00  0.00    +0.000 OA
ATOM     29  N   UNL     1      -5.400  12.382  17.892  0.00  0.00    +0.000 N 
ATOM     30  H   UNL     1      -5.236  12.711  18.828  0.00  0.00    +0.000 HD
BRANCH  29  31
ATOM     31  C   UNL     1      -6.741  12.546  17.345  0.00  0.00    +0.000 C 
BRANCH  31  32
ATOM     32  C   UNL     1      -7.594  13.470  18.216  0.00  0.00    +0.000 C 
BRANCH  32  33
ATOM     33  C   UNL     1      -7.043  14.870  18.316  0.00  0.00    +0.000 A 
ATOM     34  C   UNL     1      -6.380  15.297  19.472  0.00  0.00    +0.000 A 
ATOM     35  C   UNL     1      -5.861  16.591  19.556  0.00  0.00    +0.000 A 
ATOM     36  C   UNL     1      -6.007  17.473  18.483  0.00  0.00    +0.000 A 
ATOM     37  C   UNL     1      -6.672  17.060  17.333  0.00  0.00    +0.000 A 
ATOM     38  C   UNL     1      -7.191  15.766  17.246  0.00  0.00    +0.000 A 
ENDBRANCH  32  33
ENDBRANCH  31  32
ENDBRANCH  29  31
ENDBRANCH  24  27
ENDBRANCH  20  21
ENDBRANCH   3  20
TORSDOF 10
ENDMDL
MODEL 2
REMARK VINA RESULT:      -8.8      2.232      4.117
REMARK  Name = 
REMARK  10 active torsions:
REMARK  status: ('A' for Active; 'I' for Inactive)
REMARK    1  A    between atoms: C_2  and  C_3
REMARK    2  A    between atoms: C_4  and  C_5
REMARK    3  A    between atoms: C_9  and  O_10
REMARK    4  A    between atoms: O_10  and  C_11
REMARK    5  A    between atoms: N_18  and  C_19
REMARK    6  A    between atoms: C_19  and  C_20
REMARK    7  A    between atoms: C_23  and  C_24
REMARK    8  A    between atoms: N_26  and  C_27
REMARK    9  A    between atoms: C_27  and  C_28
REMARK   10  A    between atoms: C_28  and  C_29
REMARK                            x       y       z     vdW  Elec       q    Type
REMARK                         _______ _______ _______ _____ _____    ______ ____
ROOT
ATOM      1  O   UNL     1       0.687   9.932  21.492  0.00  0.00    +0.000 OA
ATOM      2  C   UNL     1       1.081   9.199  20.597  0.00  0.00    +0.000 C 
ATOM      3  N   UNL     1       1.211   9.567  19.281  0.00  0.00    +0.000 N 
ATOM      4  H   UNL     1       1.555   8.912  18.594  0.00  0.00    +0.000 HD
ENDROOT
BRANCH   2   5
ATOM      5  C   UNL     1       1.508   7.800  20.832  0.00  0.00    +0.000 C 
ATOM      6  C   UNL     1       2.025   7.066  19.833  0.00  0.00    +0.000 C 
BRANCH   6   7
ATOM      7  C   UNL     1       2.349   5.638  19.954  0.00  0.00    +0.000 A 
ATOM      8  C   UNL     1       1.806   4.882  21.001  0.00  0.00    +0.000 A 
ATOM      9  C   UNL     1       2.204   3.557  21.204  0.00  0.00    +0.000 A 
ATOM     10  C   UNL     1       3.193   2.991  20.400  0.00  0.00    +0.000 A 
ATOM     11  C   UNL     1       3.773   3.748  19.383  0.00  0.00    +0.000 A 
ATOM     12  C   UNL     1       3.303   5.039  19.122  0.00  0.00    +0.000 A 
BRANCH  11  13
ATOM     13  O   UNL     1       4.798   3.160  18.671  0.00  0.00    +0.000 OA
BRANCH  13  14
ATOM     14  C   UNL     1       5.487   3.922  17.748  0.00  0.00    +0.000 A 
ATOM     15  C   UNL     1       6.572   4.750  18.065  0.00  0.00    +0.000 A 
ATOM     16  C   UNL     1       7.166   5.539  17.080  0.00  0.00    +0.000 A 
ATOM     17  C   UNL     1       6.724   5.456  15.761  0.00  0.00    +0.000 A 
ATOM     18  C   UNL     1       5.691   4.579  15.429  0.00  0.00    +0.000 A 
ATOM     19  C   UNL     1       5.071   3.815  16.420  0.00  0.00    +0.000 A 
ENDBRANCH  13  14
ENDBRANCH  11  13
ENDBRANCH   6   7
ENDBRANCH   2   5
BRANCH   3  20
ATOM     20  C   UNL     1       0.923  10.907  18.840  0.00  0.00    +0.000 C 
BRANCH  20  21
ATOM     21  C   UNL     1      -0.554  11.061  18.593  0.00  0.00    +0.000 A 
ATOM     22  C   UNL     1      -1.269  12.062  19.263  0.00  0.00    +0.000 A 
ATOM     23  C   UNL     1      -2.638  12.214  19.048  0.00  0.00    +0.000 A 
ATOM     24  C   UNL     1      -3.319  11.374  18.156  0.00  0.00    +0.000 A 
ATOM     25  C   UNL     1      -2.607  10.366  17.493  0.00  0.00    +0.000 A 
ATOM     26  C   UNL     1      -1.232  10.214  17.709  0.00  0.00    +0.000 A 
BRANCH  24  27
ATOM     27  C   UNL     1      -4.784  11.601  17.978  0.00  0.00    +0.000 C 
ATOM     28  O   UNL     1      -5.190  12.185  16.978  0.00  0.00    +0.000 OA
ATOM     29  N   UNL     1      -5.630  11.122  18.956  0.00  0.00    +0.000 N 
ATOM     30  H   UNL     1      -5.279  10.520  19.683  0.00  0.00    +0.000 HD
BRANCH  29  31
ATOM     31  C   UNL     1      -7.077  11.229  18.812  0.00  0.00    +0.000 C 
BRANCH  31  32
ATOM     32  C   UNL     1      -7.613  12.509  19.453  0.00  0.00    +0.000 C 
BRANCH  32  33
ATOM     33  C   UNL     1      -7.216  12.662  20.900  0.00  0.00    +0.000 A 
ATOM     34  C   UNL     1      -6.150  13.492  21.265  0.00  0.00    +0.000 A 
ATOM     35  C   UNL     1      -5.792  13.640  22.607  0.00  0.00    +0.000 A 
ATOM     36  C   UNL     1      -6.496  12.951  23.597  0.00  0.00    +0.000 A 
ATOM     37  C   UNL     1      -7.552  12.117  23.243  0.00  0.00    +0.000 A 
ATOM     38  C   UNL     1      -7.912  11.969  21.901  0.00  0.00    +0.000 A 
ENDBRANCH  32  33
ENDBRANCH  31  32
ENDBRANCH  29  31
ENDBRANCH  24  27
ENDBRANCH  20  21
ENDBRANCH   3  20
TORSDOF 10
ENDMDL
MODEL 3
REMARK VINA RESULT:      -8.7      4.851      9.296
REMARK  Name = 
REMARK  10 active torsions:
REMARK  status: ('A' for Active; 'I' for Inactive)
REMARK    1  A    between atoms: C_2  and  C_3
REMARK    2  A    between atoms: C_4  and  C_5
REMARK    3  A    between atoms: C_9  and  O_10
REMARK    4  A    between atoms: O_10  and  C_11
REMARK    5  A    between atoms: N_18  and  C_19
REMARK    6  A    between atoms: C_19  and  C_20
REMARK    7  A    between atoms: C_23  and  C_24
REMARK    8  A    between atoms: N_26  and  C_27
REMARK    9  A    between atoms: C_27  and  C_28
REMARK   10  A    between atoms: C_28  and  C_29
REMARK                            x       y       z     vdW  Elec       q    Type
REMARK                         _______ _______ _______ _____ _____    ______ ____
ROOT
ATOM      1  O   UNL     1       1.181  10.226  21.793  0.00  0.00    +0.000 OA
ATOM      2  C   UNL     1       1.053  10.039  20.592  0.00  0.00    +0.000 C 
ATOM      3  N   UNL     1       0.629  10.983  19.691  0.00  0.00    +0.000 N 
ATOM      4  H   UNL     1       0.556  10.762  18.709  0.00  0.00    +0.000 HD
ENDROOT
BRANCH   2   5
ATOM      5  C   UNL     1       1.376   8.748  19.941  0.00  0.00    +0.000 C 
ATOM      6  C   UNL     1       1.519   7.631  20.672  0.00  0.00    +0.000 C 
BRANCH   6   7
ATOM      7  C   UNL     1       1.965   6.344  20.118  0.00  0.00    +0.000 A 
ATOM      8  C   UNL     1       1.588   5.146  20.736  0.00  0.00    +0.000 A 
ATOM      9  C   UNL     1       2.106   3.923  20.297  0.00  0.00    +0.000 A 
ATOM     10  C   UNL     1       3.052   3.891  19.273  0.00  0.00    +0.000 A 
ATOM     11  C   UNL     1       3.468   5.081  18.680  0.00  0.00    +0.000 A 
ATOM     12  C   UNL     1       2.876   6.291  19.056  0.00  0.00    +0.000 A 
BRANCH  11  13
ATOM     13  O   UNL     1       4.461   4.992  17.726  0.00  0.00    +0.000 OA
BRANCH  13  14
ATOM     14  C   UNL     1       5.630   5.702  17.916  0.00  0.00    +0.000 A 
ATOM     15  C   UNL     1       5.980   6.849  17.193  0.00  0.00    +0.000 A 
ATOM     16  C   UNL     1       7.215   7.464  17.402  0.00  0.00    +0.000 A 
ATOM     17  C   UNL     1       8.078   6.976  18.381  0.00  0.00    +0.000 A 
ATOM     18  C   UNL     1       7.703   5.876  19.153  0.00  0.00    +0.000 A 
ATOM     19  C   UNL     1       6.482   5.237  18.920  0.00  0.00    +0.000 A 
ENDBRANCH  13  14
ENDBRANCH  11  13
ENDBRANCH   6   7
ENDBRANCH   2   5
BRANCH   3  20
ATOM     20  C   UNL     1       0.332  12.332  20.095  0.00  0.00    +0.000 C 
BRANCH  20  21
ATOM     21  C   UNL     1       1.584  13.166  20.067  0.00  0.00    +0.000 A 
ATOM     22  C   UNL     1       2.306  13.297  18.874  0.00  0.00    +0.000 A 
ATOM     23  C   UNL     1       3.470  14.062  18.834  0.00  0.00    +0.000 A 
ATOM     24  C   UNL     1       3.934  14.717  19.983  0.00  0.00    +0.000 A 
ATOM     25  C   UNL     1       3.220  14.580  21.179  0.00  0.00    +0.000 A 
ATOM     26  C   UNL     1       2.050  13.812  21.219  0.00  0.00    +0.000 A 
BRANCH  24  27
ATOM     27  C   UNL     1       5.188  15.519  19.859  0.00  0.00    +0.000 C 
ATOM     28  O   UNL     1       5.285  16.588  20.453  0.00  0.00    +0.000 OA
ATOM     29  N   UNL     1       6.204  15.005  19.080  0.00  0.00    +0.000 N 
ATOM     30  H   UNL     1       6.150  14.063  18.731  0.00  0.00    +0.000 HD
BRANCH  29  31
ATOM     31  C   UNL     1       7.488  15.687  18.980  0.00  0.00    +0.000 C 
BRANCH  31  32
ATOM     32  C   UNL     1       8.449  14.944  18.052  0.00  0.00    +0.000 C 
BRANCH  32  33
ATOM     33  C   UNL     1       8.852  13.589  18.574  0.00  0.00    +0.000 A 
ATOM     34  C   UNL     1       9.389  13.448  19.859  0.00  0.00    +0.000 A 
ATOM     35  C   UNL     1       9.750  12.189  20.343  0.00  0.00    +0.000 A 
ATOM     36  C   UNL     1       9.584  11.058  19.541  0.00  0.00    +0.000 A 
ATOM     37  C   UNL     1       9.059  11.189  18.259  0.00  0.00    +0.000 A 
ATOM     38  C   UNL     1       8.696  12.447  17.774  0.00  0.00    +0.000 A 
ENDBRANCH  32  33
ENDBRANCH  31  32
ENDBRANCH  29  31
ENDBRANCH  24  27
ENDBRANCH  20  21
ENDBRANCH   3  20
TORSDOF 10
ENDMDL
MODEL 4
REMARK VINA RESULT:      -8.6      4.846      8.900
REMARK  Name = 
REMARK  10 active torsions:
REMARK  status: ('A' for Active; 'I' for Inactive)
REMARK    1  A    between atoms: C_2  and  C_3
REMARK    2  A    between atoms: C_4  and  C_5
REMARK    3  A    between atoms: C_9  and  O_10
REMARK    4  A    between atoms: O_10  and  C_11
REMARK    5  A    between atoms: N_18  and  C_19
REMARK    6  A    between atoms: C_19  and  C_20
REMARK    7  A    between atoms: C_23  and  C_24
REMARK    8  A    between atoms: N_26  and  C_27
REMARK    9  A    between atoms: C_27  and  C_28
REMARK   10  A    between atoms: C_28  and  C_29
REMARK                            x       y       z     vdW  Elec       q    Type
REMARK                         _______ _______ _______ _____ _____    ______ ____
ROOT
ATOM      1  O   UNL     1       0.105   9.328  22.726  0.00  0.00    +0.000 OA
ATOM      2  C   UNL     1       0.381   8.897  21.615  0.00  0.00    +0.000 C 
ATOM      3  N   UNL     1       0.259   9.605  20.446  0.00  0.00    +0.000 N 
ATOM      4  H   UNL     1       0.516   9.189  19.563  0.00  0.00    +0.000 HD
ENDROOT
BRANCH   2   5
ATOM      5  C   UNL     1       0.923   7.536  21.393  0.00  0.00    +0.000 C 
ATOM      6  C   UNL     1       1.864   7.320  20.459  0.00  0.00    +0.000 C 
BRANCH   6   7
ATOM      7  C   UNL     1       2.356   5.985  20.092  0.00  0.00    +0.000 A 
ATOM      8  C   UNL     1       1.573   4.853  20.352  0.00  0.00    +0.000 A 
ATOM      9  C   UNL     1       2.079   3.569  20.125  0.00  0.00    +0.000 A 
ATOM     10  C   UNL     1       3.394   3.401  19.692  0.00  0.00    +0.000 A 
ATOM     11  C   UNL     1       4.197   4.518  19.473  0.00  0.00    +0.000 A 
ATOM     12  C   UNL     1       3.657   5.801  19.608  0.00  0.00    +0.000 A 
BRANCH  11  13
ATOM     13  O   UNL     1       5.510   4.286  19.120  0.00  0.00    +0.000 OA
BRANCH  13  14
ATOM     14  C   UNL     1       6.258   5.334  18.619  0.00  0.00    +0.000 A 
ATOM     15  C   UNL     1       7.440   5.807  19.204  0.00  0.00    +0.000 A 
ATOM     16  C   UNL     1       8.094   6.917  18.670  0.00  0.00    +0.000 A 
ATOM     17  C   UNL     1       7.610   7.518  17.510  0.00  0.00    +0.000 A 
ATOM     18  C   UNL     1       6.474   7.005  16.883  0.00  0.00    +0.000 A 
ATOM     19  C   UNL     1       5.796   5.916  17.437  0.00  0.00    +0.000 A 
ENDBRANCH  13  14
ENDBRANCH  11  13
ENDBRANCH   6   7
ENDBRANCH   2   5
BRANCH   3  20
ATOM     20  C   UNL     1      -0.179  10.976  20.436  0.00  0.00    +0.000 C 
BRANCH  20  21
ATOM     21  C   UNL     1       0.898  11.857  19.863  0.00  0.00    +0.000 A 
ATOM     22  C   UNL     1       1.293  13.010  20.553  0.00  0.00    +0.000 A 
ATOM     23  C   UNL     1       2.287  13.838  20.033  0.00  0.00    +0.000 A 
ATOM     24  C   UNL     1       2.910  13.528  18.815  0.00  0.00    +0.000 A 
ATOM     25  C   UNL     1       2.508  12.381  18.119  0.00  0.00    +0.000 A 
ATOM     26  C   UNL     1       1.512  11.550  18.643  0.00  0.00    +0.000 A 
BRANCH  24  27
ATOM     27  C   UNL     1       3.965  14.463  18.325  0.00  0.00    +0.000 C 
ATOM     28  O   UNL     1       3.664  15.367  17.553  0.00  0.00    +0.000 OA
ATOM     29  N   UNL     1       5.252  14.275  18.784  0.00  0.00    +0.000 N 
ATOM     30  H   UNL     1       5.436  13.623  19.528  0.00  0.00    +0.000 HD
BRANCH  29  31
ATOM     31  C   UNL     1       6.319  15.198  18.419  0.00  0.00    +0.000 C 
BRANCH  31  32
ATOM     32  C   UNL     1       7.359  14.529  17.518  0.00  0.00    +0.000 C 
BRANCH  32  33
ATOM     33  C   UNL     1       8.177  13.481  18.230  0.00  0.00    +0.000 A 
ATOM     34  C   UNL     1       8.678  13.717  19.515  0.00  0.00    +0.000 A 
ATOM     35  C   UNL     1       9.426  12.740  20.176  0.00  0.00    +0.000 A 
ATOM     36  C   UNL     1       9.685  11.518  19.552  0.00  0.00    +0.000 A 
ATOM     37  C   UNL     1       9.198  11.278  18.270  0.00  0.00    +0.000 A 
ATOM     38  C   UNL     1       8.448  12.253  17.609  0.00  0.00    +0.000 A 
ENDBRANCH  32  33
ENDBRANCH  31  32
ENDBRANCH  29  31
ENDBRANCH  24  27
ENDBRANCH  20  21
ENDBRANCH   3  20
TORSDOF 10
ENDMDL
MODEL 5
REMARK VINA RESULT:      -8.6      3.040      4.778
REMARK  Name = 
REMARK  10 active torsions:
REMARK  status: ('A' for Active; 'I' for Inactive)
REMARK    1  A    between atoms: C_2  and  C_3
REMARK    2  A    between atoms: C_4  and  C_5
REMARK    3  A    between atoms: C_9  and  O_10
REMARK    4  A    between atoms: O_10  and  C_11
REMARK    5  A    between atoms: N_18  and  C_19
REMARK    6  A    between atoms: C_19  and  C_20
REMARK    7  A    between atoms: C_23  and  C_24
REMARK    8  A    between atoms: N_26  and  C_27
REMARK    9  A    between atoms: C_27  and  C_28
REMARK   10  A    between atoms: C_28  and  C_29
REMARK                            x       y       z     vdW  Elec       q    Type
REMARK                         _______ _______ _______ _____ _____    ______ ____
ROOT
ATOM      1  O   UNL     1       0.135   9.862  19.199  0.00  0.00    +0.000 OA
ATOM      2  C   UNL     1       0.869   9.670  20.158  0.00  0.00    +0.000 C 
ATOM      3  N   UNL     1       1.264  10.635  21.050  0.00  0.00    +0.000 N 
ATOM      4  H   UNL     1       1.865  10.403  21.828  0.00  0.00    +0.000 HD
ENDROOT
BRANCH   2   5
ATOM      5  C   UNL     1       1.409   8.334  20.501  0.00  0.00    +0.000 C 
ATOM      6  C   UNL     1       1.728   7.457  19.535  0.00  0.00    +0.000 C 
BRANCH   6   7
ATOM      7  C   UNL     1       2.145   6.072  19.796  0.00  0.00    +0.000 A 
ATOM      8  C   UNL     1       1.408   5.273  20.679  0.00  0.00    +0.000 A 
ATOM      9  C   UNL     1       1.862   3.999  21.035  0.00  0.00    +0.000 A 
ATOM     10  C   UNL     1       3.087   3.534  20.559  0.00  0.00    +0.000 A 
ATOM     11  C   UNL     1       3.850   4.338  19.715  0.00  0.00    +0.000 A 
ATOM     12  C   UNL     1       3.347   5.570  19.285  0.00  0.00    +0.000 A 
BRANCH  11  13
ATOM     13  O   UNL     1       5.086   3.855  19.338  0.00  0.00    +0.000 OA
BRANCH  13  14
ATOM     14  C   UNL     1       5.894   4.645  18.544  0.00  0.00    +0.000 A 
ATOM     15  C   UNL     1       5.877   4.629  17.143  0.00  0.00    +0.000 A 
ATOM     16  C   UNL     1       6.778   5.410  16.419  0.00  0.00    +0.000 A 
ATOM     17  C   UNL     1       7.654   6.262  17.089  0.00  0.00    +0.000 A 
ATOM     18  C   UNL     1       7.625   6.334  18.481  0.00  0.00    +0.000 A 
ATOM     19  C   UNL     1       6.749   5.526  19.210  0.00  0.00    +0.000 A 
ENDBRANCH  13  14
ENDBRANCH  11  13
ENDBRANCH   6   7
ENDBRANCH   2   5
BRANCH   3  20
ATOM     20  C   UNL     1       0.797  11.992  20.950  0.00  0.00    +0.000 C 
BRANCH  20  21
ATOM     21  C   UNL     1      -0.554  12.121  21.601  0.00  0.00    +0.000 A 
ATOM     22  C   UNL     1      -1.529  12.944  21.022  0.00  0.00    +0.000 A 
ATOM     23  C   UNL     1      -2.784  13.076  21.615  0.00  0.00    +0.000 A 
ATOM     24  C   UNL     1      -3.092  12.386  22.796  0.00  0.00    +0.000 A 
ATOM     25  C   UNL     1      -2.115  11.571  23.382  0.00  0.00    +0.000 A 
ATOM     26  C   UNL     1      -0.856  11.437  22.785  0.00  0.00    +0.000 A 
BRANCH  24  27
ATOM     27  C   UNL     1      -4.457  12.578  23.369  0.00  0.00    +0.000 C 
ATOM     28  O   UNL     1      -4.590  12.737  24.578  0.00  0.00    +0.000 OA
ATOM     29  N   UNL     1      -5.524  12.584  22.496  0.00  0.00    +0.000 N 
ATOM     30  H   UNL     1      -5.368  12.602  21.502  0.00  0.00    +0.000 HD
BRANCH  29  31
ATOM     31  C   UNL     1      -6.877  12.852  22.969  0.00  0.00    +0.000 C 
BRANCH  31  32
ATOM     32  C   UNL     1      -7.917  12.052  22.184  0.00  0.00    +0.000 C 
BRANCH  32  33
ATOM     33  C   UNL     1      -7.576  11.906  20.722  0.00  0.00    +0.000 A 
ATOM     34  C   UNL     1      -7.115  10.686  20.214  0.00  0.00    +0.000 A 
ATOM     35  C   UNL     1      -6.812  10.551  18.857  0.00  0.00    +0.000 A 
ATOM     36  C   UNL     1      -6.962  11.641  17.997  0.00  0.00    +0.000 A 
ATOM     37  C   UNL     1      -7.411  12.860  18.495  0.00  0.00    +0.000 A 
ATOM     38  C   UNL     1      -7.717  12.996  19.851  0.00  0.00    +0.000 A 
ENDBRANCH  32  33
ENDBRANCH  31  32
ENDBRANCH  29  31
ENDBRANCH  24  27
ENDBRANCH  20  21
ENDBRANCH   3  20
TORSDOF 10
ENDMDL
MODEL 6
REMARK VINA RESULT:      -8.5      1.893      3.691
REMARK  Name = 
REMARK  10 active torsions:
REMARK  status: ('A' for Active; 'I' for Inactive)
REMARK    1  A    between atoms: C_2  and  C_3
REMARK    2  A    between atoms: C_4  and  C_5
REMARK    3  A    between atoms: C_9  and  O_10
REMARK    4  A    between atoms: O_10  and  C_11
REMARK    5  A    between atoms: N_18  and  C_19
REMARK    6  A    between atoms: C_19  and  C_20
REMARK    7  A    between atoms: C_23  and  C_24
REMARK    8  A    between atoms: N_26  and  C_27
REMARK    9  A    between atoms: C_27  and  C_28
REMARK   10  A    between atoms: C_28  and  C_29
REMARK                            x       y       z     vdW  Elec       q    Type
REMARK                         _______ _______ _______ _____ _____    ______ ____
ROOT
ATOM      1  O   UNL     1       1.191   8.932  22.444  0.00  0.00    +0.000 OA
ATOM      2  C   UNL     1       1.269   8.466  21.315  0.00  0.00    +0.000 C 
ATOM      3  N   UNL     1       1.059   9.173  20.158  0.00  0.00    +0.000 N 
ATOM      4  H   UNL     1       1.151   8.726  19.258  0.00  0.00    +0.000 HD
ENDROOT
BRANCH   2   5
ATOM      5  C   UNL     1       1.639   7.056  21.052  0.00  0.00    +0.000 C 
ATOM      6  C   UNL     1       1.522   6.538  19.818  0.00  0.00    +0.000 C 
BRANCH   6   7
ATOM      7  C   UNL     1       1.745   5.119  19.505  0.00  0.00    +0.000 A 
ATOM      8  C   UNL     1       1.183   4.126  20.317  0.00  0.00    +0.000 A 
ATOM      9  C   UNL     1       1.490   2.777  20.108  0.00  0.00    +0.000 A 
ATOM     10  C   UNL     1       2.406   2.412  19.123  0.00  0.00    +0.000 A 
ATOM     11  C   UNL     1       3.006   3.396  18.338  0.00  0.00    +0.000 A 
ATOM     12  C   UNL     1       2.624   4.733  18.486  0.00  0.00    +0.000 A 
BRANCH  11  13
ATOM     13  O   UNL     1       3.960   2.980  17.433  0.00  0.00    +0.000 OA
BRANCH  13  14
ATOM     14  C   UNL     1       4.943   3.870  17.048  0.00  0.00    +0.000 A 
ATOM     15  C   UNL     1       4.969   4.528  15.812  0.00  0.00    +0.000 A 
ATOM     16  C   UNL     1       6.039   5.358  15.478  0.00  0.00    +0.000 A 
ATOM     17  C   UNL     1       7.055   5.589  16.404  0.00  0.00    +0.000 A 
ATOM     18  C   UNL     1       6.996   4.993  17.663  0.00  0.00    +0.000 A 
ATOM     19  C   UNL     1       5.944   4.133  17.986  0.00  0.00    +0.000 A 
ENDBRANCH  13  14
ENDBRANCH  11  13
ENDBRANCH   6   7
ENDBRANCH   2   5
BRANCH   3  20
ATOM     20  C   UNL     1       0.760  10.581  20.177  0.00  0.00    +0.000 C 
BRANCH  20  21
ATOM     21  C   UNL     1      -0.524  10.845  19.438  0.00  0.00    +0.000 A 
ATOM     22  C   UNL     1      -0.802  10.145  18.256  0.00  0.00    +0.000 A 
ATOM     23  C   UNL     1      -1.985  10.381  17.558  0.00  0.00    +0.000 A 
ATOM     24  C   UNL     1      -2.916  11.318  18.027  0.00  0.00    +0.000 A 
ATOM     25  C   UNL     1      -2.635  12.026  19.202  0.00  0.00    +0.000 A 
ATOM     26  C   UNL     1      -1.448  11.787  19.904  0.00  0.00    +0.000 A 
BRANCH  24  27
ATOM     27  C   UNL     1      -4.160  11.514  17.224  0.00  0.00    +0.000 C 
ATOM     28  O   UNL     1      -4.283  10.939  16.148  0.00  0.00    +0.000 OA
ATOM     29  N   UNL     1      -5.138  12.335  17.746  0.00  0.00    +0.000 N 
ATOM     30  H   UNL     1      -5.070  12.668  18.694  0.00  0.00    +0.000 HD
BRANCH  29  31
ATOM     31  C   UNL     1      -6.413  12.506  17.063  0.00  0.00    +0.000 C 
BRANCH  31  32
ATOM     32  C   UNL     1      -7.434  13.225  17.947  0.00  0.00    +0.000 C 
BRANCH  32  33
ATOM     33  C   UNL     1      -7.062  13.222  19.408  0.00  0.00    +0.000 A 
ATOM     34  C   UNL     1      -7.441  12.162  20.240  0.00  0.00    +0.000 A 
ATOM     35  C   UNL     1      -7.084  12.158  21.590  0.00  0.00    +0.000 A 
ATOM     36  C   UNL     1      -6.349  13.219  22.122  0.00  0.00    +0.000 A 
ATOM     37  C   UNL     1      -5.975  14.281  21.305  0.00  0.00    +0.000 A 
ATOM     38  C   UNL     1      -6.330  14.287  19.953  0.00  0.00    +0.000 A 
ENDBRANCH  32  33
ENDBRANCH  31  32
ENDBRANCH  29  31
ENDBRANCH  24  27
ENDBRANCH  20  21
ENDBRANCH   3  20
TORSDOF 10
ENDMDL
MODEL 7
REMARK VINA RESULT:      -8.5      2.810      4.566
REMARK  Name = 
REMARK  10 active torsions:
REMARK  status: ('A' for Active; 'I' for Inactive)
REMARK    1  A    between atoms: C_2  and  C_3
REMARK    2  A    between atoms: C_4  and  C_5
REMARK    3  A    between atoms: C_9  and  O_10
REMARK    4  A    between atoms: O_10  and  C_11
REMARK    5  A    between atoms: N_18  and  C_19
REMARK    6  A    between atoms: C_19  and  C_20
REMARK    7  A    between atoms: C_23  and  C_24
REMARK    8  A    between atoms: N_26  and  C_27
REMARK    9  A    between atoms: C_27  and  C_28
REMARK   10  A    between atoms: C_28  and  C_29
REMARK                            x       y       z     vdW  Elec       q    Type
REMARK                         _______ _______ _______ _____ _____    ______ ____
ROOT
ATOM      1  O   UNL     1       2.513  10.249  17.709  0.00  0.00    +0.000 OA
ATOM      2  C   UNL     1       1.663   9.560  18.256  0.00  0.00    +0.000 C 
ATOM      3  N   UNL     1       0.510  10.039  18.824  0.00  0.00    +0.000 N 
ATOM      4  H   UNL     1      -0.155   9.410  19.250  0.00  0.00    +0.000 HD
ENDROOT
BRANCH   2   5
ATOM      5  C   UNL     1       1.761   8.084  18.346  0.00  0.00    +0.000 C 
ATOM      6  C   UNL     1       2.031   7.488  19.518  0.00  0.00    +0.000 C 
BRANCH   6   7
ATOM      7  C   UNL     1       2.271   6.045  19.663  0.00  0.00    +0.000 A 
ATOM      8  C   UNL     1       1.930   5.394  20.854  0.00  0.00    +0.000 A 
ATOM      9  C   UNL     1       2.267   4.051  21.055  0.00  0.00    +0.000 A 
ATOM     10  C   UNL     1       3.002   3.363  20.091  0.00  0.00    +0.000 A 
ATOM     11  C   UNL     1       3.386   4.013  18.920  0.00  0.00    +0.000 A 
ATOM     12  C   UNL     1       2.963   5.325  18.682  0.00  0.00    +0.000 A 
BRANCH  11  13
ATOM     13  O   UNL     1       4.175   3.304  18.038  0.00  0.00    +0.000 OA
BRANCH  13  14
ATOM     14  C   UNL     1       5.097   3.990  17.272  0.00  0.00    +0.000 A 
ATOM     15  C   UNL     1       4.930   4.276  15.911  0.00  0.00    +0.000 A 
ATOM     16  C   UNL     1       5.945   4.913  15.196  0.00  0.00    +0.000 A 
ATOM     17  C   UNL     1       7.102   5.328  15.852  0.00  0.00    +0.000 A 
ATOM     18  C   UNL     1       7.241   5.109  17.222  0.00  0.00    +0.000 A 
ATOM     19  C   UNL     1       6.242   4.439  17.932  0.00  0.00    +0.000 A 
ENDBRANCH  13  14
ENDBRANCH  11  13
ENDBRANCH   6   7
ENDBRANCH   2   5
BRANCH   3  20
ATOM     20  C   UNL     1       0.174  11.438  18.785  0.00  0.00    +0.000 C 
BRANCH  20  21
ATOM     21  C   UNL     1      -0.708  11.789  19.953  0.00  0.00    +0.000 A 
ATOM     22  C   UNL     1      -1.978  12.336  19.727  0.00  0.00    +0.000 A 
ATOM     23  C   UNL     1      -2.804  12.670  20.798  0.00  0.00    +0.000 A 
ATOM     24  C   UNL     1      -2.381  12.459  22.119  0.00  0.00    +0.000 A 
ATOM     25  C   UNL     1      -1.108  11.922  22.347  0.00  0.00    +0.000 A 
ATOM     26  C   UNL     1      -0.279  11.586  21.271  0.00  0.00    +0.000 A 
BRANCH  24  27
ATOM     27  C   UNL     1      -3.324  12.841  23.212  0.00  0.00    +0.000 C 
ATOM     28  O   UNL     1      -2.958  13.625  24.081  0.00  0.00    +0.000 OA
ATOM     29  N   UNL     1      -4.591  12.296  23.185  0.00  0.00    +0.000 N 
ATOM     30  H   UNL     1      -4.905  11.778  22.382  0.00  0.00    +0.000 HD
BRANCH  29  31
ATOM     31  C   UNL     1      -5.593  12.687  24.169  0.00  0.00    +0.000 C 
BRANCH  31  32
ATOM     32  C   UNL     1      -6.878  13.175  23.499  0.00  0.00    +0.000 C 
BRANCH  32  33
ATOM     33  C   UNL     1      -6.947  12.841  22.030  0.00  0.00    +0.000 A 
ATOM     34  C   UNL     1      -6.459  13.735  21.070  0.00  0.00    +0.000 A 
ATOM     35  C   UNL     1      -6.514  13.417  19.711  0.00  0.00    +0.000 A 
ATOM     36  C   UNL     1      -7.066  12.202  19.300  0.00  0.00    +0.000 A 
ATOM     37  C   UNL     1      -7.562  11.311  20.246  0.00  0.00    +0.000 A 
ATOM     38  C   UNL     1      -7.506  11.626  21.606  0.00  0.00    +0.000 A 
ENDBRANCH  32  33
ENDBRANCH  31  32
ENDBRANCH  29  31
ENDBRANCH  24  27
ENDBRANCH  20  21
ENDBRANCH   3  20
TORSDOF 10
ENDMDL
MODEL 8
REMARK VINA RESULT:      -8.4      5.302      9.555
REMARK  Name = 
REMARK  10 active torsions:
REMARK  status: ('A' for Active; 'I' for Inactive)
REMARK    1  A    between atoms: C_2  and  C_3
REMARK    2  A    between atoms: C_4  and  C_5
REMARK    3  A    between atoms: C_9  and  O_10
REMARK    4  A    between atoms: O_10  and  C_11
REMARK    5  A    between atoms: N_18  and  C_19
REMARK    6  A    between atoms: C_19  and  C_20
REMARK    7  A    between atoms: C_23  and  C_24
REMARK    8  A    between atoms: N_26  and  C_27
REMARK    9  A    between atoms: C_27  and  C_28
REMARK   10  A    between atoms: C_28  and  C_29
REMARK                            x       y       z     vdW  Elec       q    Type
REMARK                         _______ _______ _______ _____ _____    ______ ____
ROOT
ATOM      1  O   UNL     1       7.962   6.850  18.768  0.00  0.00    +0.000 OA
ATOM      2  C   UNL     1       7.794   7.638  17.848  0.00  0.00    +0.000 C 
ATOM      3  N   UNL     1       6.961   7.429  16.778  0.00  0.00    +0.000 N 
ATOM      4  H   UNL     1       6.863   8.129  16.057  0.00  0.00    +0.000 HD
ENDROOT
BRANCH   2   5
ATOM      5  C   UNL     1       8.462   8.959  17.790  0.00  0.00    +0.000 C 
ATOM      6  C   UNL     1       8.926   9.540  18.908  0.00  0.00    +0.000 C 
BRANCH   6   7
ATOM      7  C   UNL     1       9.481  10.900  18.950  0.00  0.00    +0.000 A 
ATOM      8  C   UNL     1      10.367  11.264  19.972  0.00  0.00    +0.000 A 
ATOM      9  C   UNL     1      10.803  12.587  20.099  0.00  0.00    +0.000 A 
ATOM     10  C   UNL     1      10.312  13.572  19.243  0.00  0.00    +0.000 A 
ATOM     11  C   UNL     1       9.395  13.230  18.251  0.00  0.00    +0.000 A 
ATOM     12  C   UNL     1       9.037  11.890  18.066  0.00  0.00    +0.000 A 
BRANCH  11  13
ATOM     13  O   UNL     1       8.888  14.258  17.484  0.00  0.00    +0.000 OA
BRANCH  13  14
ATOM     14  C   UNL     1       7.765  14.928  17.931  0.00  0.00    +0.000 A 
ATOM     15  C   UNL     1       7.799  16.152  18.611  0.00  0.00    +0.000 A 
ATOM     16  C   UNL     1       6.619  16.724  19.089  0.00  0.00    +0.000 A 
ATOM     17  C   UNL     1       5.394  16.112  18.829  0.00  0.00    +0.000 A 
ATOM     18  C   UNL     1       5.351  14.930  18.090  0.00  0.00    +0.000 A 
ATOM     19  C   UNL     1       6.534  14.336  17.642  0.00  0.00    +0.000 A 
ENDBRANCH  13  14
ENDBRANCH  11  13
ENDBRANCH   6   7
ENDBRANCH   2   5
BRANCH   3  20
ATOM     20  C   UNL     1       6.156   6.241  16.668  0.00  0.00    +0.000 C 
BRANCH  20  21
ATOM     21  C   UNL     1       5.024   6.293  17.659  0.00  0.00    +0.000 A 
ATOM     22  C   UNL     1       4.005   7.242  17.500  0.00  0.00    +0.000 A 
ATOM     23  C   UNL     1       2.953   7.305  18.412  0.00  0.00    +0.000 A 
ATOM     24  C   UNL     1       2.893   6.419  19.497  0.00  0.00    +0.000 A 
ATOM     25  C   UNL     1       3.916   5.477  19.662  0.00  0.00    +0.000 A 
ATOM     26  C   UNL     1       4.972   5.413  18.746  0.00  0.00    +0.000 A 
BRANCH  24  27
ATOM     27  C   UNL     1       1.733   6.549  20.428  0.00  0.00    +0.000 C 
ATOM     28  O   UNL     1       1.031   5.571  20.663  0.00  0.00    +0.000 OA
ATOM     29  N   UNL     1       1.509   7.782  21.005  0.00  0.00    +0.000 N 
ATOM     30  H   UNL     1       2.188   8.519  20.909  0.00  0.00    +0.000 HD
BRANCH  29  31
ATOM     31  C   UNL     1       0.450   7.966  21.989  0.00  0.00    +0.000 C 
BRANCH  31  32
ATOM     32  C   UNL     1      -0.744   8.715  21.398  0.00  0.00    +0.000 C 
BRANCH  32  33
ATOM     33  C   UNL     1      -0.377  10.058  20.820  0.00  0.00    +0.000 A 
ATOM     34  C   UNL     1      -0.068  11.137  21.657  0.00  0.00    +0.000 A 
ATOM     35  C   UNL     1       0.283  12.376  21.117  0.00  0.00    +0.000 A 
ATOM     36  C   UNL     1       0.321  12.549  19.732  0.00  0.00    +0.000 A 
ATOM     37  C   UNL     1       0.007  11.485  18.892  0.00  0.00    +0.000 A 
ATOM     38  C   UNL     1      -0.343  10.244  19.430  0.00  0.00    +0.000 A 
ENDBRANCH  32  33
ENDBRANCH  31  32
ENDBRANCH  29  31
ENDBRANCH  24  27
ENDBRANCH  20  21
ENDBRANCH   3  20
TORSDOF 10
ENDMDL
MODEL 9
REMARK VINA RESULT:      -8.4      2.488      4.321
REMARK  Name = 
REMARK  10 active torsions:
REMARK  status: ('A' for Active; 'I' for Inactive)
REMARK    1  A    between atoms: C_2  and  C_3
REMARK    2  A    between atoms: C_4  and  C_5
REMARK    3  A    between atoms: C_9  and  O_10
REMARK    4  A    between atoms: O_10  and  C_11
REMARK    5  A    between atoms: N_18  and  C_19
REMARK    6  A    between atoms: C_19  and  C_20
REMARK    7  A    between atoms: C_23  and  C_24
REMARK    8  A    between atoms: N_26  and  C_27
REMARK    9  A    between atoms: C_27  and  C_28
REMARK   10  A    between atoms: C_28  and  C_29
REMARK                            x       y       z     vdW  Elec       q    Type
REMARK                         _______ _______ _______ _____ _____    ______ ____
ROOT
ATOM      1  O   UNL     1       2.121  10.773  17.698  0.00  0.00    +0.000 OA
ATOM      2  C   UNL     1       1.636  10.091  18.590  0.00  0.00    +0.000 C 
ATOM      3  N   UNL     1       1.081  10.587  19.743  0.00  0.00    +0.000 N 
ATOM      4  H   UNL     1       0.689   9.965  20.434  0.00  0.00    +0.000 HD
ENDROOT
BRANCH   2   5
ATOM      5  C   UNL     1       1.559   8.613  18.521  0.00  0.00    +0.000 C 
ATOM      6  C   UNL     1       2.014   7.857  19.533  0.00  0.00    +0.000 C 
BRANCH   6   7
ATOM      7  C   UNL     1       2.091   6.390  19.484  0.00  0.00    +0.000 A 
ATOM      8  C   UNL     1       1.759   5.633  20.614  0.00  0.00    +0.000 A 
ATOM      9  C   UNL     1       1.948   4.247  20.625  0.00  0.00    +0.000 A 
ATOM     10  C   UNL     1       2.526   3.611  19.526  0.00  0.00    +0.000 A 
ATOM     11  C   UNL     1       2.901   4.360  18.413  0.00  0.00    +0.000 A 
ATOM     12  C   UNL     1       2.621   5.730  18.369  0.00  0.00    +0.000 A 
BRANCH  11  13
ATOM     13  O   UNL     1       3.536   3.688  17.390  0.00  0.00    +0.000 OA
BRANCH  13  14
ATOM     14  C   UNL     1       4.819   4.065  17.042  0.00  0.00    +0.000 A 
ATOM     15  C   UNL     1       5.840   4.322  17.965  0.00  0.00    +0.000 A 
ATOM     16  C   UNL     1       7.088   4.766  17.527  0.00  0.00    +0.000 A 
ATOM     17  C   UNL     1       7.343   4.892  16.163  0.00  0.00    +0.000 A 
ATOM     18  C   UNL     1       6.350   4.569  15.238  0.00  0.00    +0.000 A 
ATOM     19  C   UNL     1       5.088   4.158  15.675  0.00  0.00    +0.000 A 
ENDBRANCH  13  14
ENDBRANCH  11  13
ENDBRANCH   6   7
ENDBRANCH   2   5
BRANCH   3  20
ATOM     20  C   UNL     1       0.982  12.002  19.986  0.00  0.00    +0.000 C 
BRANCH  20  21
ATOM     21  C   UNL     1      -0.385  12.339  20.517  0.00  0.00    +0.000 A 
ATOM     22  C   UNL     1      -1.248  13.139  19.757  0.00  0.00    +0.000 A 
ATOM     23  C   UNL     1      -2.516  13.464  20.237  0.00  0.00    +0.000 A 
ATOM     24  C   UNL     1      -2.950  12.990  21.484  0.00  0.00    +0.000 A 
ATOM     25  C   UNL     1      -2.085  12.198  22.249  0.00  0.00    +0.000 A 
ATOM     26  C   UNL     1      -0.813  11.872  21.766  0.00  0.00    +0.000 A 
BRANCH  24  27
ATOM     27  C   UNL     1      -4.322  13.379  21.928  0.00  0.00    +0.000 C 
ATOM     28  O   UNL     1      -4.670  14.554  21.862  0.00  0.00    +0.000 OA
ATOM     29  N   UNL     1      -5.155  12.380  22.386  0.00  0.00    +0.000 N 
ATOM     30  H   UNL     1      -4.893  11.414  22.286  0.00  0.00    +0.000 HD
BRANCH  29  31
ATOM     31  C   UNL     1      -6.535  12.668  22.755  0.00  0.00    +0.000 C 
BRANCH  31  32
ATOM     32  C   UNL     1      -7.522  11.822  21.950  0.00  0.00    +0.000 C 
BRANCH  32  33
ATOM     33  C   UNL     1      -7.337  11.949  20.459  0.00  0.00    +0.000 A 
ATOM     34  C   UNL     1      -7.622  13.153  19.804  0.00  0.00    +0.000 A 
ATOM     35  C   UNL     1      -7.438  13.270  18.424  0.00  0.00    +0.000 A 
ATOM     36  C   UNL     1      -6.974  12.180  17.686  0.00  0.00    +0.000 A 
ATOM     37  C   UNL     1      -6.696  10.977  18.328  0.00  0.00    +0.000 A 
ATOM     38  C   UNL     1      -6.877  10.858  19.708  0.00  0.00    +0.000 A 
ENDBRANCH  32  33
ENDBRANCH  31  32
ENDBRANCH  29  31
ENDBRANCH  24  27
ENDBRANCH  20  21
ENDBRANCH   3  20
TORSDOF 10
ENDMDL
