MODEL 1
REMARK VINA RESULT:      -7.8      0.000      0.000
REMARK  Name = 
REMARK  5 active torsions:
REMARK  status: ('A' for Active; 'I' for Inactive)
REMARK    1  A    between atoms: N_1  and  N_2
REMARK    2  A    between atoms: C_3  and  S_4
REMARK    3  A    between atoms: S_4  and  C_5
REMARK    4  A    between atoms: C_5  and  C_6
REMARK    5  A    between atoms: C_18  and  C_19
REMARK                            x       y       z     vdW  Elec       q    Type
REMARK                         _______ _______ _______ _____ _____    ______ ____
ROOT
ATOM      1  N   UNL     1       6.427   3.949  15.288  0.00  0.00    +0.000 N 
ATOM      2  C   UNL     1       7.210   4.848  15.975  0.00  0.00    +0.000 A 
ATOM      3  N   UNL     1       7.755   5.695  15.140  0.00  0.00    +0.000 NA
ATOM      4  N   UNL     1       7.334   5.350  13.870  0.00  0.00    +0.000 NA
ATOM      5  C   UNL     1       6.524   4.306  13.953  0.00  0.00    +0.000 A 
ENDROOT
BRANCH   5   6
ATOM      6  C   UNL     1       5.921   3.588  12.835  0.00  0.00    +0.000 A 
ATOM      7  C   UNL     1       4.646   3.884  12.340  0.00  0.00    +0.000 A 
ATOM      8  C   UNL     1       4.081   3.098  11.338  0.00  0.00    +0.000 A 
ATOM      9  C   UNL     1       4.823   2.045  10.834  0.00  0.00    +0.000 A 
ATOM     10  N   UNL     1       6.072   1.748  11.252  0.00  0.00    +0.000 NA
ATOM     11  C   UNL     1       6.594   2.529  12.230  0.00  0.00    +0.000 A 
ENDBRANCH   5   6
BRANCH   1  12
ATOM     12  N   UNL     1       5.726   2.809  15.840  0.00  0.00    +0.000 N 
ATOM     13  H   UNL     1       5.974   2.695  16.824  0.00  0.00    +0.000 HD
ATOM     14  H   UNL     1       6.023   1.946  15.386  0.00  0.00    +0.000 HD
ENDBRANCH   1  12
BRANCH   2  15
ATOM     15  S   UNL     1       7.484   4.721  17.678  0.00  0.00    +0.000 S 
BRANCH  15  16
ATOM     16  C   UNL     1       6.141   5.749  18.339  0.00  0.00    +0.000 C 
BRANCH  16  17
ATOM     17  C   UNL     1       4.863   4.991  18.474  0.00  0.00    +0.000 A 
ATOM     18  N   UNL     1       4.896   3.636  18.753  0.00  0.00    +0.000 NA
ATOM     19  C   UNL     1       3.637   3.253  18.831  0.00  0.00    +0.000 A 
ATOM     20  C   UNL     1       3.055   1.976  19.089  0.00  0.00    +0.000 A 
ATOM     21  C   UNL     1       1.716   1.842  19.111  0.00  0.00    +0.000 A 
ATOM     22  C   UNL     1       0.834   2.978  18.879  0.00  0.00    +0.000 A 
ATOM     23  C   UNL     1       1.375   4.184  18.638  0.00  0.00    +0.000 A 
ATOM     24  N   UNL     1       2.764   4.316  18.615  0.00  0.00    +0.000 N 
ATOM     25  C   UNL     1       3.554   5.421  18.403  0.00  0.00    +0.000 A 
ATOM     26 BR   UNL     1       2.967   7.165  18.083  0.00  0.00    +0.000 Br
ENDBRANCH  16  17
ENDBRANCH  15  16
ENDBRANCH   2  15
TORSDOF 5
ENDMDL
MODEL 2
REMARK VINA RESULT:      -6.7      7.165     11.120
REMARK  Name = 
REMARK  5 active torsions:
REMARK  status: ('A' for Active; 'I' for Inactive)
REMARK    1  A    between atoms: N_1  and  N_2
REMARK    2  A    between atoms: C_3  and  S_4
REMARK    3  A    between atoms: S_4  and  C_5
REMARK    4  A    between atoms: C_5  and  C_6
REMARK    5  A    between atoms: C_18  and  C_19
REMARK                            x       y       z     vdW  Elec       q    Type
REMARK                         _______ _______ _______ _____ _____    ______ ____
ROOT
ATOM      1  N   UNL     1      -0.460  10.820  21.396  0.00  0.00    +0.000 N 
ATOM      2  C   UNL     1       0.423   9.768  21.479  0.00  0.00    +0.000 A 
ATOM      3  N   UNL     1       0.627   9.453  22.733  0.00  0.00    +0.000 NA
ATOM      4  N   UNL     1      -0.129  10.319  23.502  0.00  0.00    +0.000 NA
ATOM      5  C   UNL     1      -0.795  11.137  22.702  0.00  0.00    +0.000 A 
ENDROOT
BRANCH   5   6
ATOM      6  C   UNL     1      -1.650  12.246  23.115  0.00  0.00    +0.000 A 
ATOM      7  C   UNL     1      -1.189  13.563  23.220  0.00  0.00    +0.000 A 
ATOM      8  C   UNL     1      -2.024  14.562  23.718  0.00  0.00    +0.000 A 
ATOM      9  C   UNL     1      -3.317  14.219  24.073  0.00  0.00    +0.000 A 
ATOM     10  N   UNL     1      -3.815  12.970  23.950  0.00  0.00    +0.000 NA
ATOM     11  C   UNL     1      -2.979  12.019  23.466  0.00  0.00    +0.000 A 
ENDBRANCH   5   6
BRANCH   1  12
ATOM     12  N   UNL     1      -0.873  11.512  20.194  0.00  0.00    +0.000 N 
ATOM     13  H   UNL     1      -0.748  12.518  20.314  0.00  0.00    +0.000 HD
ATOM     14  H   UNL     1      -1.870  11.384  20.025  0.00  0.00    +0.000 HD
ENDBRANCH   1  12
BRANCH   2  15
ATOM     15  S   UNL     1       1.204   9.105  20.086  0.00  0.00    +0.000 S 
BRANCH  15  16
ATOM     16  C   UNL     1       1.593   7.424  20.654  0.00  0.00    +0.000 C 
BRANCH  16  17
ATOM     17  C   UNL     1       2.343   6.640  19.629  0.00  0.00    +0.000 A 
ATOM     18  N   UNL     1       3.128   7.302  18.700  0.00  0.00    +0.000 NA
ATOM     19  C   UNL     1       3.671   6.362  17.954  0.00  0.00    +0.000 A 
ATOM     20  C   UNL     1       4.562   6.440  16.842  0.00  0.00    +0.000 A 
ATOM     21  C   UNL     1       4.976   5.312  16.234  0.00  0.00    +0.000 A 
ATOM     22  C   UNL     1       4.538   3.999  16.687  0.00  0.00    +0.000 A 
ATOM     23  C   UNL     1       3.700   3.918  17.735  0.00  0.00    +0.000 A 
ATOM     24  N   UNL     1       3.273   5.090  18.359  0.00  0.00    +0.000 N 
ATOM     25  C   UNL     1       2.439   5.278  19.436  0.00  0.00    +0.000 A 
ATOM     26 BR   UNL     1       1.602   3.946  20.441  0.00  0.00    +0.000 Br
ENDBRANCH  16  17
ENDBRANCH  15  16
ENDBRANCH   2  15
TORSDOF 5
ENDMDL
MODEL 3
REMARK VINA RESULT:      -6.7      6.056      8.205
REMARK  Name = 
REMARK  5 active torsions:
REMARK  status: ('A' for Active; 'I' for Inactive)
REMARK    1  A    between atoms: N_1  and  N_2
REMARK    2  A    between atoms: C_3  and  S_4
REMARK    3  A    between atoms: S_4  and  C_5
REMARK    4  A    between atoms: C_5  and  C_6
REMARK    5  A    between atoms: C_18  and  C_19
REMARK                            x       y       z     vdW  Elec       q    Type
REMARK                         _______ _______ _______ _____ _____    ______ ____
ROOT
ATOM      1  N   UNL     1       2.016   7.197  19.762  0.00  0.00    +0.000 N 
ATOM      2  C   UNL     1       1.642   8.496  19.507  0.00  0.00    +0.000 A 
ATOM      3  N   UNL     1       2.151   8.892  18.368  0.00  0.00    +0.000 NA
ATOM      4  N   UNL     1       2.886   7.838  17.858  0.00  0.00    +0.000 NA
ATOM      5  C   UNL     1       2.799   6.810  18.687  0.00  0.00    +0.000 A 
ENDROOT
BRANCH   5   6
ATOM      6  C   UNL     1       3.487   5.529  18.553  0.00  0.00    +0.000 A 
ATOM      7  C   UNL     1       2.970   4.464  17.808  0.00  0.00    +0.000 A 
ATOM      8  C   UNL     1       3.622   3.231  17.800  0.00  0.00    +0.000 A 
ATOM      9  C   UNL     1       4.796   3.106  18.520  0.00  0.00    +0.000 A 
ATOM     10  N   UNL     1       5.352   4.119  19.219  0.00  0.00    +0.000 NA
ATOM     11  C   UNL     1       4.694   5.305  19.210  0.00  0.00    +0.000 A 
ENDBRANCH   5   6
BRANCH   1  12
ATOM     12  N   UNL     1       1.729   6.430  20.956  0.00  0.00    +0.000 N 
ATOM     13  H   UNL     1       1.213   5.585  20.707  0.00  0.00    +0.000 HD
ATOM     14  H   UNL     1       1.113   6.947  21.581  0.00  0.00    +0.000 HD
ENDBRANCH   1  12
BRANCH   2  15
ATOM     15  S   UNL     1       0.741   9.438  20.643  0.00  0.00    +0.000 S 
BRANCH  15  16
ATOM     16  C   UNL     1       0.554  11.006  19.746  0.00  0.00    +0.000 C 
BRANCH  16  17
ATOM     17  C   UNL     1      -0.715  11.062  18.963  0.00  0.00    +0.000 A 
ATOM     18  N   UNL     1      -0.799  10.407  17.746  0.00  0.00    +0.000 NA
ATOM     19  C   UNL     1      -2.024  10.617  17.309  0.00  0.00    +0.000 A 
ATOM     20  C   UNL     1      -2.682  10.195  16.115  0.00  0.00    +0.000 A 
ATOM     21  C   UNL     1      -3.962  10.552  15.893  0.00  0.00    +0.000 A 
ATOM     22  C   UNL     1      -4.702  11.363  16.850  0.00  0.00    +0.000 A 
ATOM     23  C   UNL     1      -4.089  11.762  17.978  0.00  0.00    +0.000 A 
ATOM     24  N   UNL     1      -2.762  11.391  18.201  0.00  0.00    +0.000 N 
ATOM     25  C   UNL     1      -1.924  11.657  19.257  0.00  0.00    +0.000 A 
ATOM     26 BR   UNL     1      -2.344  12.632  20.794  0.00  0.00    +0.000 Br
ENDBRANCH  16  17
ENDBRANCH  15  16
ENDBRANCH   2  15
TORSDOF 5
ENDMDL
MODEL 4
REMARK VINA RESULT:      -6.6      6.680      8.670
REMARK  Name = 
REMARK  5 active torsions:
REMARK  status: ('A' for Active; 'I' for Inactive)
REMARK    1  A    between atoms: N_1  and  N_2
REMARK    2  A    between atoms: C_3  and  S_4
REMARK    3  A    between atoms: S_4  and  C_5
REMARK    4  A    between atoms: C_5  and  C_6
REMARK    5  A    between atoms: C_18  and  C_19
REMARK                            x       y       z     vdW  Elec       q    Type
REMARK                         _______ _______ _______ _____ _____    ______ ____
ROOT
ATOM      1  N   UNL     1       1.867   7.901  19.528  0.00  0.00    +0.000 N 
ATOM      2  C   UNL     1       1.427   9.187  19.316  0.00  0.00    +0.000 A 
ATOM      3  N   UNL     1       1.699   9.556  18.089  0.00  0.00    +0.000 NA
ATOM      4  N   UNL     1       2.341   8.497  17.475  0.00  0.00    +0.000 NA
ATOM      5  C   UNL     1       2.434   7.493  18.333  0.00  0.00    +0.000 A 
ENDROOT
BRANCH   5   6
ATOM      6  C   UNL     1       3.106   6.217  18.102  0.00  0.00    +0.000 A 
ATOM      7  C   UNL     1       2.415   5.033  17.823  0.00  0.00    +0.000 A 
ATOM      8  C   UNL     1       3.105   3.827  17.713  0.00  0.00    +0.000 A 
ATOM      9  C   UNL     1       4.480   3.842  17.859  0.00  0.00    +0.000 A 
ATOM     10  N   UNL     1       5.191   4.967  18.088  0.00  0.00    +0.000 NA
ATOM     11  C   UNL     1       4.493   6.124  18.193  0.00  0.00    +0.000 A 
ENDBRANCH   5   6
BRANCH   1  12
ATOM     12  N   UNL     1       1.830   7.167  20.775  0.00  0.00    +0.000 N 
ATOM     13  H   UNL     1       1.127   7.573  21.394  0.00  0.00    +0.000 HD
ATOM     14  H   UNL     1       2.713   7.256  21.276  0.00  0.00    +0.000 HD
ENDBRANCH   1  12
BRANCH   2  15
ATOM     15  S   UNL     1       0.746  10.151  20.579  0.00  0.00    +0.000 S 
BRANCH  15  16
ATOM     16  C   UNL     1       0.365  11.692  19.694  0.00  0.00    +0.000 C 
BRANCH  16  17
ATOM     17  C   UNL     1      -1.058  11.748  19.247  0.00  0.00    +0.000 A 
ATOM     18  N   UNL     1      -1.389  11.354  17.962  0.00  0.00    +0.000 NA
ATOM     19  C   UNL     1      -2.695  11.495  17.867  0.00  0.00    +0.000 A 
ATOM     20  C   UNL     1      -3.592  11.249  16.785  0.00  0.00    +0.000 A 
ATOM     21  C   UNL     1      -4.910  11.482  16.941  0.00  0.00    +0.000 A 
ATOM     22  C   UNL     1      -5.450  11.980  18.198  0.00  0.00    +0.000 A 
ATOM     23  C   UNL     1      -4.611  12.211  19.222  0.00  0.00    +0.000 A 
ATOM     24  N   UNL     1      -3.248  11.970  19.054  0.00  0.00    +0.000 N 
ATOM     25  C   UNL     1      -2.198  12.115  19.930  0.00  0.00    +0.000 A 
ATOM     26 BR   UNL     1      -2.301  12.692  21.703  0.00  0.00    +0.000 Br
ENDBRANCH  16  17
ENDBRANCH  15  16
ENDBRANCH   2  15
TORSDOF 5
ENDMDL
MODEL 5
REMARK VINA RESULT:      -6.5      2.025      6.938
REMARK  Name = 
REMARK  5 active torsions:
REMARK  status: ('A' for Active; 'I' for Inactive)
REMARK    1  A    between atoms: N_1  and  N_2
REMARK    2  A    between atoms: C_3  and  S_4
REMARK    3  A    between atoms: S_4  and  C_5
REMARK    4  A    between atoms: C_5  and  C_6
REMARK    5  A    between atoms: C_18  and  C_19
REMARK                            x       y       z     vdW  Elec       q    Type
REMARK                         _______ _______ _______ _____ _____    ______ ____
ROOT
ATOM      1  N   UNL     1       4.720   5.608  18.902  0.00  0.00    +0.000 N 
ATOM      2  C   UNL     1       4.914   6.640  18.013  0.00  0.00    +0.000 A 
ATOM      3  N   UNL     1       3.759   7.078  17.579  0.00  0.00    +0.000 NA
ATOM      4  N   UNL     1       2.777   6.318  18.184  0.00  0.00    +0.000 NA
ATOM      5  C   UNL     1       3.349   5.438  18.992  0.00  0.00    +0.000 A 
ENDROOT
BRANCH   5   6
ATOM      6  C   UNL     1       2.669   4.401  19.763  0.00  0.00    +0.000 A 
ATOM      7  C   UNL     1       1.901   3.394  19.170  0.00  0.00    +0.000 A 
ATOM      8  C   UNL     1       1.192   2.492  19.962  0.00  0.00    +0.000 A 
ATOM      9  C   UNL     1       1.294   2.607  21.337  0.00  0.00    +0.000 A 
ATOM     10  N   UNL     1       2.056   3.537  21.952  0.00  0.00    +0.000 NA
ATOM     11  C   UNL     1       2.732   4.401  21.155  0.00  0.00    +0.000 A 
ENDBRANCH   5   6
BRANCH   1  12
ATOM     12  N   UNL     1       5.745   4.805  19.535  0.00  0.00    +0.000 N 
ATOM     13  H   UNL     1       5.415   3.845  19.641  0.00  0.00    +0.000 HD
ATOM     14  H   UNL     1       5.928   5.132  20.483  0.00  0.00    +0.000 HD
ENDBRANCH   1  12
BRANCH   2  15
ATOM     15  S   UNL     1       6.489   7.133  17.498  0.00  0.00    +0.000 S 
BRANCH  15  16
ATOM     16  C   UNL     1       7.277   5.531  17.160  0.00  0.00    +0.000 C 
BRANCH  16  17
ATOM     17  C   UNL     1       6.969   5.028  15.789  0.00  0.00    +0.000 A 
ATOM     18  N   UNL     1       7.753   5.425  14.720  0.00  0.00    +0.000 NA
ATOM     19  C   UNL     1       7.257   4.814  13.663  0.00  0.00    +0.000 A 
ATOM     20  C   UNL     1       7.647   4.842  12.291  0.00  0.00    +0.000 A 
ATOM     21  C   UNL     1       6.962   4.118  11.385  0.00  0.00    +0.000 A 
ATOM     22  C   UNL     1       5.824   3.295  11.772  0.00  0.00    +0.000 A 
ATOM     23  C   UNL     1       5.453   3.263  13.064  0.00  0.00    +0.000 A 
ATOM     24  N   UNL     1       6.166   4.016  13.997  0.00  0.00    +0.000 N 
ATOM     25  C   UNL     1       5.999   4.149  15.355  0.00  0.00    +0.000 A 
ATOM     26 BR   UNL     1       4.710   3.299  16.407  0.00  0.00    +0.000 Br
ENDBRANCH  16  17
ENDBRANCH  15  16
ENDBRANCH   2  15
TORSDOF 5
ENDMDL
MODEL 6
REMARK VINA RESULT:      -6.5      2.004      6.812
REMARK  Name = 
REMARK  5 active torsions:
REMARK  status: ('A' for Active; 'I' for Inactive)
REMARK    1  A    between atoms: N_1  and  N_2
REMARK    2  A    between atoms: C_3  and  S_4
REMARK    3  A    between atoms: S_4  and  C_5
REMARK    4  A    between atoms: C_5  and  C_6
REMARK    5  A    between atoms: C_18  and  C_19
REMARK                            x       y       z     vdW  Elec       q    Type
REMARK                         _______ _______ _______ _____ _____    ______ ____
ROOT
ATOM      1  N   UNL     1       4.792   5.576  18.868  0.00  0.00    +0.000 N 
ATOM      2  C   UNL     1       5.157   6.562  17.981  0.00  0.00    +0.000 A 
ATOM      3  N   UNL     1       4.090   7.106  17.453  0.00  0.00    +0.000 NA
ATOM      4  N   UNL     1       2.992   6.463  17.993  0.00  0.00    +0.000 NA
ATOM      5  C   UNL     1       3.408   5.548  18.855  0.00  0.00    +0.000 A 
ENDROOT
BRANCH   5   6
ATOM      6  C   UNL     1       2.570   4.604  19.587  0.00  0.00    +0.000 A 
ATOM      7  C   UNL     1       2.533   4.544  20.984  0.00  0.00    +0.000 A 
ATOM      8  C   UNL     1       1.792   3.553  21.626  0.00  0.00    +0.000 A 
ATOM      9  C   UNL     1       1.077   2.661  20.847  0.00  0.00    +0.000 A 
ATOM     10  N   UNL     1       1.050   2.707  19.498  0.00  0.00    +0.000 NA
ATOM     11  C   UNL     1       1.784   3.680  18.902  0.00  0.00    +0.000 A 
ENDBRANCH   5   6
BRANCH   1  12
ATOM     12  N   UNL     1       5.679   4.687  19.590  0.00  0.00    +0.000 N 
ATOM     13  H   UNL     1       6.192   5.213  20.299  0.00  0.00    +0.000 HD
ATOM     14  H   UNL     1       6.391   4.303  18.971  0.00  0.00    +0.000 HD
ENDBRANCH   1  12
BRANCH   2  15
ATOM     15  S   UNL     1       6.809   6.880  17.582  0.00  0.00    +0.000 S 
BRANCH  15  16
ATOM     16  C   UNL     1       7.411   5.216  17.172  0.00  0.00    +0.000 C 
BRANCH  16  17
ATOM     17  C   UNL     1       7.019   4.797  15.794  0.00  0.00    +0.000 A 
ATOM     18  N   UNL     1       7.776   5.209  14.711  0.00  0.00    +0.000 NA
ATOM     19  C   UNL     1       7.205   4.675  13.650  0.00  0.00    +0.000 A 
ATOM     20  C   UNL     1       7.537   4.752  12.264  0.00  0.00    +0.000 A 
ATOM     21  C   UNL     1       6.778   4.109  11.357  0.00  0.00    +0.000 A 
ATOM     22  C   UNL     1       5.618   3.324  11.755  0.00  0.00    +0.000 A 
ATOM     23  C   UNL     1       5.301   3.244  13.059  0.00  0.00    +0.000 A 
ATOM     24  N   UNL     1       6.090   3.915  13.994  0.00  0.00    +0.000 N 
ATOM     25  C   UNL     1       5.988   3.988  15.363  0.00  0.00    +0.000 A 
ATOM     26 BR   UNL     1       4.705   3.150  16.430  0.00  0.00    +0.000 Br
ENDBRANCH  16  17
ENDBRANCH  15  16
ENDBRANCH   2  15
TORSDOF 5
ENDMDL
MODEL 7
REMARK VINA RESULT:      -6.5      5.785      8.800
REMARK  Name = 
REMARK  5 active torsions:
REMARK  status: ('A' for Active; 'I' for Inactive)
REMARK    1  A    between atoms: N_1  and  N_2
REMARK    2  A    between atoms: C_3  and  S_4
REMARK    3  A    between atoms: S_4  and  C_5
REMARK    4  A    between atoms: C_5  and  C_6
REMARK    5  A    between atoms: C_18  and  C_19
REMARK                            x       y       z     vdW  Elec       q    Type
REMARK                         _______ _______ _______ _____ _____    ______ ____
ROOT
ATOM      1  N   UNL     1       6.300   6.619  17.757  0.00  0.00    +0.000 N 
ATOM      2  C   UNL     1       7.519   7.135  18.133  0.00  0.00    +0.000 A 
ATOM      3  N   UNL     1       8.105   6.325  18.978  0.00  0.00    +0.000 NA
ATOM      4  N   UNL     1       7.256   5.252  19.175  0.00  0.00    +0.000 NA
ATOM      5  C   UNL     1       6.173   5.417  18.433  0.00  0.00    +0.000 A 
ENDROOT
BRANCH   5   6
ATOM      6  C   UNL     1       5.001   4.546  18.406  0.00  0.00    +0.000 A 
ATOM      7  C   UNL     1       4.664   3.761  17.298  0.00  0.00    +0.000 A 
ATOM      8  C   UNL     1       3.478   3.028  17.293  0.00  0.00    +0.000 A 
ATOM      9  C   UNL     1       2.670   3.078  18.415  0.00  0.00    +0.000 A 
ATOM     10  N   UNL     1       2.977   3.789  19.520  0.00  0.00    +0.000 NA
ATOM     11  C   UNL     1       4.135   4.495  19.496  0.00  0.00    +0.000 A 
ENDBRANCH   5   6
BRANCH   1  12
ATOM     12  N   UNL     1       5.316   7.252  16.904  0.00  0.00    +0.000 N 
ATOM     13  H   UNL     1       5.340   6.829  15.976  0.00  0.00    +0.000 HD
ATOM     14  H   UNL     1       5.540   8.235  16.758  0.00  0.00    +0.000 HD
ENDBRANCH   1  12
BRANCH   2  15
ATOM     15  S   UNL     1       8.060   8.695  17.620  0.00  0.00    +0.000 S 
BRANCH  15  16
ATOM     16  C   UNL     1       8.907   9.293  19.111  0.00  0.00    +0.000 C 
BRANCH  16  17
ATOM     17  C   UNL     1       9.475  10.661  18.928  0.00  0.00    +0.000 A 
ATOM     18  N   UNL     1      10.012  11.022  17.704  0.00  0.00    +0.000 NA
ATOM     19  C   UNL     1      10.409  12.271  17.840  0.00  0.00    +0.000 A 
ATOM     20  C   UNL     1      11.037  13.164  16.921  0.00  0.00    +0.000 A 
ATOM     21  C   UNL     1      11.355  14.413  17.312  0.00  0.00    +0.000 A 
ATOM     22  C   UNL     1      11.069  14.884  18.660  0.00  0.00    +0.000 A 
ATOM     23  C   UNL     1      10.476  14.049  19.530  0.00  0.00    +0.000 A 
ATOM     24  N   UNL     1      10.151  12.756  19.120  0.00  0.00    +0.000 N 
ATOM     25  C   UNL     1       9.543  11.727  19.800  0.00  0.00    +0.000 A 
ATOM     26 BR   UNL     1       8.927  11.769  21.563  0.00  0.00    +0.000 Br
ENDBRANCH  16  17
ENDBRANCH  15  16
ENDBRANCH   2  15
TORSDOF 5
ENDMDL
MODEL 8
REMARK VINA RESULT:      -6.4      7.176     11.012
REMARK  Name = 
REMARK  5 active torsions:
REMARK  status: ('A' for Active; 'I' for Inactive)
REMARK    1  A    between atoms: N_1  and  N_2
REMARK    2  A    between atoms: C_3  and  S_4
REMARK    3  A    between atoms: S_4  and  C_5
REMARK    4  A    between atoms: C_5  and  C_6
REMARK    5  A    between atoms: C_18  and  C_19
REMARK                            x       y       z     vdW  Elec       q    Type
REMARK                         _______ _______ _______ _____ _____    ______ ____
ROOT
ATOM      1  N   UNL     1      -0.666  10.858  21.336  0.00  0.00    +0.000 N 
ATOM      2  C   UNL     1       0.218   9.809  21.437  0.00  0.00    +0.000 A 
ATOM      3  N   UNL     1       0.486   9.570  22.696  0.00  0.00    +0.000 NA
ATOM      4  N   UNL     1      -0.228  10.484  23.449  0.00  0.00    +0.000 NA
ATOM      5  C   UNL     1      -0.933  11.255  22.635  0.00  0.00    +0.000 A 
ENDROOT
BRANCH   5   6
ATOM      6  C   UNL     1      -1.764  12.390  23.024  0.00  0.00    +0.000 A 
ATOM      7  C   UNL     1      -1.239  13.656  23.305  0.00  0.00    +0.000 A 
ATOM      8  C   UNL     1      -2.070  14.675  23.770  0.00  0.00    +0.000 A 
ATOM      9  C   UNL     1      -3.419  14.405  23.915  0.00  0.00    +0.000 A 
ATOM     10  N   UNL     1      -3.975  13.211  23.617  0.00  0.00    +0.000 NA
ATOM     11  C   UNL     1      -3.142  12.240  23.170  0.00  0.00    +0.000 A 
ENDBRANCH   5   6
BRANCH   1  12
ATOM     12  N   UNL     1      -1.141  11.478  20.117  0.00  0.00    +0.000 N 
ATOM     13  H   UNL     1      -1.510  10.763  19.488  0.00  0.00    +0.000 HD
ATOM     14  H   UNL     1      -0.373  11.913  19.608  0.00  0.00    +0.000 HD
ENDBRANCH   1  12
BRANCH   2  15
ATOM     15  S   UNL     1       0.925   9.059  20.049  0.00  0.00    +0.000 S 
BRANCH  15  16
ATOM     16  C   UNL     1       2.044   7.853  20.819  0.00  0.00    +0.000 C 
BRANCH  16  17
ATOM     17  C   UNL     1       2.025   6.536  20.118  0.00  0.00    +0.000 A 
ATOM     18  N   UNL     1       1.365   5.463  20.692  0.00  0.00    +0.000 NA
ATOM     19  C   UNL     1       1.503   4.462  19.846  0.00  0.00    +0.000 A 
ATOM     20  C   UNL     1       1.041   3.113  19.902  0.00  0.00    +0.000 A 
ATOM     21  C   UNL     1       1.323   2.266  18.894  0.00  0.00    +0.000 A 
ATOM     22  C   UNL     1       2.092   2.695  17.733  0.00  0.00    +0.000 A 
ATOM     23  C   UNL     1       2.527   3.964  17.673  0.00  0.00    +0.000 A 
ATOM     24  N   UNL     1       2.233   4.836  18.722  0.00  0.00    +0.000 N 
ATOM     25  C   UNL     1       2.549   6.163  18.898  0.00  0.00    +0.000 A 
ATOM     26 BR   UNL     1       3.501   7.248  17.712  0.00  0.00    +0.000 Br
ENDBRANCH  16  17
ENDBRANCH  15  16
ENDBRANCH   2  15
TORSDOF 5
ENDMDL
MODEL 9
REMARK VINA RESULT:      -6.4      6.728      9.013
REMARK  Name = 
REMARK  5 active torsions:
REMARK  status: ('A' for Active; 'I' for Inactive)
REMARK    1  A    between atoms: N_1  and  N_2
REMARK    2  A    between atoms: C_3  and  S_4
REMARK    3  A    between atoms: S_4  and  C_5
REMARK    4  A    between atoms: C_5  and  C_6
REMARK    5  A    between atoms: C_18  and  C_19
REMARK                            x       y       z     vdW  Elec       q    Type
REMARK                         _______ _______ _______ _____ _____    ______ ____
ROOT
ATOM      1  N   UNL     1       2.113   8.165  18.953  0.00  0.00    +0.000 N 
ATOM      2  C   UNL     1       1.363   8.942  19.806  0.00  0.00    +0.000 A 
ATOM      3  N   UNL     1       1.062   8.261  20.883  0.00  0.00    +0.000 NA
ATOM      4  N   UNL     1       1.616   7.003  20.741  0.00  0.00    +0.000 NA
ATOM      5  C   UNL     1       2.261   6.943  19.586  0.00  0.00    +0.000 A 
ENDROOT
BRANCH   5   6
ATOM      6  C   UNL     1       2.922   5.769  19.024  0.00  0.00    +0.000 A 
ATOM      7  C   UNL     1       2.325   4.947  18.062  0.00  0.00    +0.000 A 
ATOM      8  C   UNL     1       2.964   3.783  17.638  0.00  0.00    +0.000 A 
ATOM      9  C   UNL     1       4.205   3.485  18.171  0.00  0.00    +0.000 A 
ATOM     10  N   UNL     1       4.837   4.270  19.070  0.00  0.00    +0.000 NA
ATOM     11  C   UNL     1       4.189   5.394  19.465  0.00  0.00    +0.000 A 
ENDBRANCH   5   6
BRANCH   1  12
ATOM     12  N   UNL     1       2.568   8.525  17.627  0.00  0.00    +0.000 N 
ATOM     13  H   UNL     1       3.526   8.876  17.674  0.00  0.00    +0.000 HD
ATOM     14  H   UNL     1       2.018   9.295  17.250  0.00  0.00    +0.000 HD
ENDBRANCH   1  12
BRANCH   2  15
ATOM     15  S   UNL     1       0.827  10.529  19.380  0.00  0.00    +0.000 S 
BRANCH  15  16
ATOM     16  C   UNL     1      -0.313  10.172  18.011  0.00  0.00    +0.000 C 
BRANCH  16  17
ATOM     17  C   UNL     1      -1.653  10.796  18.214  0.00  0.00    +0.000 A 
ATOM     18  N   UNL     1      -1.911  11.503  19.375  0.00  0.00    +0.000 NA
ATOM     19  C   UNL     1      -3.148  11.944  19.261  0.00  0.00    +0.000 A 
ATOM     20  C   UNL     1      -3.954  12.723  20.143  0.00  0.00    +0.000 A 
ATOM     21  C   UNL     1      -5.214  13.044  19.791  0.00  0.00    +0.000 A 
ATOM     22  C   UNL     1      -5.781  12.617  18.519  0.00  0.00    +0.000 A 
ATOM     23  C   UNL     1      -5.026  11.885  17.683  0.00  0.00    +0.000 A 
ATOM     24  N   UNL     1      -3.722  11.554  18.054  0.00  0.00    +0.000 N 
ATOM     25  C   UNL     1      -2.757  10.835  17.388  0.00  0.00    +0.000 A 
ATOM     26 BR   UNL     1      -2.913  10.066  15.694  0.00  0.00    +0.000 Br
ENDBRANCH  16  17
ENDBRANCH  15  16
ENDBRANCH   2  15
TORSDOF 5
ENDMDL
