MODEL 1
REMARK VINA RESULT:      -8.6      0.000      0.000
REMARK  Name = 
REMARK  6 active torsions:
REMARK  status: ('A' for Active; 'I' for Inactive)
REMARK    1  A    between atoms: N_11  and  C_12
REMARK    2  A    between atoms: C_12  and  C_13
REMARK    3  A    between atoms: C_16  and  C_17
REMARK    4  A    between atoms: C_17  and  N_18
REMARK    5  A    between atoms: N_18  and  C_19
REMARK    6  A    between atoms: C_19  and  C_20
REMARK                            x       y       z     vdW  Elec       q    Type
REMARK                         _______ _______ _______ _____ _____    ______ ____
ROOT
ATOM      1  C   UNL     1       2.341   6.213  19.719  0.00  0.00    +0.000 A 
ATOM      2  C   UNL     1       2.495   7.128  18.670  0.00  0.00    +0.000 A 
ATOM      3  C   UNL     1       1.994   8.429  18.787  0.00  0.00    +0.000 A 
ATOM      4  C   UNL     1       1.331   8.842  19.952  0.00  0.00    +0.000 A 
ATOM      5  C   UNL     1       1.236   7.945  21.024  0.00  0.00    +0.000 A 
ATOM      6  C   UNL     1       1.743   6.645  20.911  0.00  0.00    +0.000 A 
ENDROOT
BRANCH   1   7
ATOM      7  C   UNL     1       2.768   4.776  19.547  0.00  0.00    +0.000 C 
BRANCH   7  18
ATOM      8  O   UNL     1       5.649   5.465  19.625  0.00  0.00    +0.000 OA
ATOM      9  C   UNL     1       5.083   4.976  18.666  0.00  0.00    +0.000 C 
ATOM     10  C   UNL     1       5.725   4.719  17.377  0.00  0.00    +0.000 A 
ATOM     11  C   UNL     1       7.023   4.936  16.958  0.00  0.00    +0.000 A 
ATOM     12  C   UNL     1       7.336   4.596  15.637  0.00  0.00    +0.000 A 
ATOM     13  C   UNL     1       6.354   4.059  14.775  0.00  0.00    +0.000 A 
ATOM     14  C   UNL     1       5.044   3.860  15.220  0.00  0.00    +0.000 A 
ATOM     15  C   UNL     1       4.763   4.199  16.529  0.00  0.00    +0.000 A 
ATOM     16  C   UNL     1       3.506   4.137  17.270  0.00  0.00    +0.000 C 
ATOM     17  O   UNL     1       2.449   3.775  16.791  0.00  0.00    +0.000 OA
ATOM     18  N   UNL     1       3.776   4.596  18.530  0.00  0.00    +0.000 N 
ENDBRANCH   7  18
ENDBRANCH   1   7
BRANCH   4  19
ATOM     19  C   UNL     1       0.710  10.221  20.025  0.00  0.00    +0.000 C 
BRANCH  19  20
ATOM     20  N   UNL     1      -0.067  10.498  18.816  0.00  0.00    +0.000 NA
ATOM     21  H   UNL     1      -0.055   9.666  18.224  0.00  0.00    +0.000 HD
BRANCH  20  22
ATOM     22  C   UNL     1      -1.453  10.844  19.122  0.00  0.00    +0.000 C 
BRANCH  22  23
ATOM     23  C   UNL     1      -2.335  10.724  17.903  0.00  0.00    +0.000 A 
ATOM     24  C   UNL     1      -1.936   9.951  16.801  0.00  0.00    +0.000 A 
ATOM     25  C   UNL     1      -2.728   9.881  15.651  0.00  0.00    +0.000 A 
ATOM     26  C   UNL     1      -3.933  10.581  15.587  0.00  0.00    +0.000 A 
ATOM     27  C   UNL     1      -4.345  11.346  16.677  0.00  0.00    +0.000 A 
ATOM     28  C   UNL     1      -3.549  11.414  17.818  0.00  0.00    +0.000 A 
ATOM     29  F   UNL     1      -3.967  12.165  18.847  0.00  0.00    +0.000 F 
ENDBRANCH  22  23
ENDBRANCH  20  22
ENDBRANCH  19  20
ENDBRANCH   4  19
TORSDOF 6
ENDMDL
MODEL 2
REMARK VINA RESULT:      -8.6      5.854      8.609
REMARK  Name = 
REMARK  6 active torsions:
REMARK  status: ('A' for Active; 'I' for Inactive)
REMARK    1  A    between atoms: N_11  and  C_12
REMARK    2  A    between atoms: C_12  and  C_13
REMARK    3  A    between atoms: C_16  and  C_17
REMARK    4  A    between atoms: C_17  and  N_18
REMARK    5  A    between atoms: N_18  and  C_19
REMARK    6  A    between atoms: C_19  and  C_20
REMARK                            x       y       z     vdW  Elec       q    Type
REMARK                         _______ _______ _______ _____ _____    ______ ____
ROOT
ATOM      1  C   UNL     1       6.083   5.100  17.142  0.00  0.00    +0.000 A 
ATOM      2  C   UNL     1       5.496   6.244  16.587  0.00  0.00    +0.000 A 
ATOM      3  C   UNL     1       6.077   7.501  16.777  0.00  0.00    +0.000 A 
ATOM      4  C   UNL     1       7.255   7.644  17.524  0.00  0.00    +0.000 A 
ATOM      5  C   UNL     1       7.876   6.491  18.023  0.00  0.00    +0.000 A 
ATOM      6  C   UNL     1       7.300   5.231  17.828  0.00  0.00    +0.000 A 
ENDROOT
BRANCH   1   7
ATOM      7  C   UNL     1       5.393   3.762  17.044  0.00  0.00    +0.000 C 
BRANCH   7  18
ATOM      8  O   UNL     1       5.497   3.364  19.979  0.00  0.00    +0.000 OA
ATOM      9  C   UNL     1       4.473   3.405  19.325  0.00  0.00    +0.000 C 
ATOM     10  C   UNL     1       3.136   3.191  19.878  0.00  0.00    +0.000 A 
ATOM     11  C   UNL     1       2.728   2.922  21.171  0.00  0.00    +0.000 A 
ATOM     12  C   UNL     1       1.356   2.749  21.388  0.00  0.00    +0.000 A 
ATOM     13  C   UNL     1       0.437   2.841  20.320  0.00  0.00    +0.000 A 
ATOM     14  C   UNL     1       0.875   3.102  19.019  0.00  0.00    +0.000 A 
ATOM     15  C   UNL     1       2.233   3.274  18.833  0.00  0.00    +0.000 A 
ATOM     16  C   UNL     1       2.993   3.527  17.611  0.00  0.00    +0.000 C 
ATOM     17  O   UNL     1       2.499   3.599  16.503  0.00  0.00    +0.000 OA
ATOM     18  N   UNL     1       4.307   3.609  17.982  0.00  0.00    +0.000 N 
ENDBRANCH   7  18
ENDBRANCH   1   7
BRANCH   4  19
ATOM     19  C   UNL     1       7.818   9.022  17.803  0.00  0.00    +0.000 C 
BRANCH  19  20
ATOM     20  N   UNL     1       8.887   8.945  18.800  0.00  0.00    +0.000 NA
ATOM     21  H   UNL     1       9.767   8.757  18.319  0.00  0.00    +0.000 HD
BRANCH  20  22
ATOM     22  C   UNL     1       9.016  10.186  19.561  0.00  0.00    +0.000 C 
BRANCH  22  23
ATOM     23  C   UNL     1       9.952  11.156  18.881  0.00  0.00    +0.000 A 
ATOM     24  C   UNL     1      11.310  11.212  19.235  0.00  0.00    +0.000 A 
ATOM     25  C   UNL     1      12.166  12.144  18.642  0.00  0.00    +0.000 A 
ATOM     26  C   UNL     1      11.678  13.033  17.684  0.00  0.00    +0.000 A 
ATOM     27  C   UNL     1      10.334  12.984  17.317  0.00  0.00    +0.000 A 
ATOM     28  C   UNL     1       9.486  12.054  17.914  0.00  0.00    +0.000 A 
ATOM     29  F   UNL     1       8.196  12.036  17.549  0.00  0.00    +0.000 F 
ENDBRANCH  22  23
ENDBRANCH  20  22
ENDBRANCH  19  20
ENDBRANCH   4  19
TORSDOF 6
ENDMDL
MODEL 3
REMARK VINA RESULT:      -8.4      0.711      1.187
REMARK  Name = 
REMARK  6 active torsions:
REMARK  status: ('A' for Active; 'I' for Inactive)
REMARK    1  A    between atoms: N_11  and  C_12
REMARK    2  A    between atoms: C_12  and  C_13
REMARK    3  A    between atoms: C_16  and  C_17
REMARK    4  A    between atoms: C_17  and  N_18
REMARK    5  A    between atoms: N_18  and  C_19
REMARK    6  A    between atoms: C_19  and  C_20
REMARK                            x       y       z     vdW  Elec       q    Type
REMARK                         _______ _______ _______ _____ _____    ______ ____
ROOT
ATOM      1  C   UNL     1       2.448   5.626  19.833  0.00  0.00    +0.000 A 
ATOM      2  C   UNL     1       1.626   5.856  20.942  0.00  0.00    +0.000 A 
ATOM      3  C   UNL     1       1.108   7.132  21.187  0.00  0.00    +0.000 A 
ATOM      4  C   UNL     1       1.399   8.203  20.330  0.00  0.00    +0.000 A 
ATOM      5  C   UNL     1       2.169   7.956  19.185  0.00  0.00    +0.000 A 
ATOM      6  C   UNL     1       2.682   6.678  18.935  0.00  0.00    +0.000 A 
ENDROOT
BRANCH   1   7
ATOM      7  C   UNL     1       3.109   4.284  19.637  0.00  0.00    +0.000 C 
BRANCH   7  18
ATOM      8  O   UNL     1       5.972   5.048  19.597  0.00  0.00    +0.000 OA
ATOM      9  C   UNL     1       5.348   4.662  18.627  0.00  0.00    +0.000 C 
ATOM     10  C   UNL     1       5.899   4.585  17.274  0.00  0.00    +0.000 A 
ATOM     11  C   UNL     1       7.158   4.893  16.795  0.00  0.00    +0.000 A 
ATOM     12  C   UNL     1       7.380   4.727  15.423  0.00  0.00    +0.000 A 
ATOM     13  C   UNL     1       6.350   4.270  14.572  0.00  0.00    +0.000 A 
ATOM     14  C   UNL     1       5.081   3.977  15.080  0.00  0.00    +0.000 A 
ATOM     15  C   UNL     1       4.889   4.144  16.438  0.00  0.00    +0.000 A 
ATOM     16  C   UNL     1       3.692   3.952  17.252  0.00  0.00    +0.000 C 
ATOM     17  O   UNL     1       2.610   3.620  16.807  0.00  0.00    +0.000 OA
ATOM     18  N   UNL     1       4.043   4.261  18.537  0.00  0.00    +0.000 N 
ENDBRANCH   7  18
ENDBRANCH   1   7
BRANCH   4  19
ATOM     19  C   UNL     1       0.911   9.597  20.661  0.00  0.00    +0.000 C 
BRANCH  19  20
ATOM     20  N   UNL     1      -0.405   9.833  20.064  0.00  0.00    +0.000 NA
ATOM     21  H   UNL     1      -0.983  10.336  20.738  0.00  0.00    +0.000 HD
BRANCH  20  22
ATOM     22  C   UNL     1      -0.315  10.618  18.834  0.00  0.00    +0.000 C 
BRANCH  22  23
ATOM     23  C   UNL     1      -1.637  10.655  18.106  0.00  0.00    +0.000 A 
ATOM     24  C   UNL     1      -1.847   9.875  16.957  0.00  0.00    +0.000 A 
ATOM     25  C   UNL     1      -3.052   9.948  16.253  0.00  0.00    +0.000 A 
ATOM     26  C   UNL     1      -4.068  10.798  16.688  0.00  0.00    +0.000 A 
ATOM     27  C   UNL     1      -3.877  11.573  17.832  0.00  0.00    +0.000 A 
ATOM     28  C   UNL     1      -2.672  11.498  18.527  0.00  0.00    +0.000 A 
ATOM     29  F   UNL     1      -2.513  12.260  19.618  0.00  0.00    +0.000 F 
ENDBRANCH  22  23
ENDBRANCH  20  22
ENDBRANCH  19  20
ENDBRANCH   4  19
TORSDOF 6
ENDMDL
MODEL 4
REMARK VINA RESULT:      -8.3      1.695      2.516
REMARK  Name = 
REMARK  6 active torsions:
REMARK  status: ('A' for Active; 'I' for Inactive)
REMARK    1  A    between atoms: N_11  and  C_12
REMARK    2  A    between atoms: C_12  and  C_13
REMARK    3  A    between atoms: C_16  and  C_17
REMARK    4  A    between atoms: C_17  and  N_18
REMARK    5  A    between atoms: N_18  and  C_19
REMARK    6  A    between atoms: C_19  and  C_20
REMARK                            x       y       z     vdW  Elec       q    Type
REMARK                         _______ _______ _______ _____ _____    ______ ____
ROOT
ATOM      1  C   UNL     1       4.448   6.089  18.294  0.00  0.00    +0.000 A 
ATOM      2  C   UNL     1       3.539   5.836  19.328  0.00  0.00    +0.000 A 
ATOM      3  C   UNL     1       2.466   6.703  19.556  0.00  0.00    +0.000 A 
ATOM      4  C   UNL     1       2.277   7.840  18.756  0.00  0.00    +0.000 A 
ATOM      5  C   UNL     1       3.150   8.055  17.681  0.00  0.00    +0.000 A 
ATOM      6  C   UNL     1       4.220   7.184  17.447  0.00  0.00    +0.000 A 
ENDROOT
BRANCH   1   7
ATOM      7  C   UNL     1       5.674   5.227  18.125  0.00  0.00    +0.000 C 
BRANCH   7  18
ATOM      8  O   UNL     1       7.797   6.314  16.368  0.00  0.00    +0.000 OA
ATOM      9  C   UNL     1       6.966   5.497  16.020  0.00  0.00    +0.000 C 
ATOM     10  C   UNL     1       6.844   4.979  14.658  0.00  0.00    +0.000 A 
ATOM     11  C   UNL     1       7.580   5.252  13.520  0.00  0.00    +0.000 A 
ATOM     12  C   UNL     1       7.203   4.598  12.341  0.00  0.00    +0.000 A 
ATOM     13  C   UNL     1       6.111   3.704  12.325  0.00  0.00    +0.000 A 
ATOM     14  C   UNL     1       5.374   3.454  13.487  0.00  0.00    +0.000 A 
ATOM     15  C   UNL     1       5.769   4.108  14.638  0.00  0.00    +0.000 A 
ATOM     16  C   UNL     1       5.198   4.079  15.982  0.00  0.00    +0.000 C 
ATOM     17  O   UNL     1       4.204   3.449  16.287  0.00  0.00    +0.000 OA
ATOM     18  N   UNL     1       5.967   4.911  16.748  0.00  0.00    +0.000 N 
ENDBRANCH   7  18
ENDBRANCH   1   7
BRANCH   4  19
ATOM     19  C   UNL     1       1.168   8.819  19.075  0.00  0.00    +0.000 C 
BRANCH  19  20
ATOM     20  N   UNL     1       0.950   9.729  17.949  0.00  0.00    +0.000 NA
ATOM     21  H   UNL     1       0.404   9.242  17.238  0.00  0.00    +0.000 HD
BRANCH  20  22
ATOM     22  C   UNL     1       0.235  10.938  18.353  0.00  0.00    +0.000 C 
BRANCH  22  23
ATOM     23  C   UNL     1      -1.245  10.822  18.078  0.00  0.00    +0.000 A 
ATOM     24  C   UNL     1      -1.732   9.887  17.150  0.00  0.00    +0.000 A 
ATOM     25  C   UNL     1      -3.097   9.814  16.858  0.00  0.00    +0.000 A 
ATOM     26  C   UNL     1      -3.996  10.672  17.490  0.00  0.00    +0.000 A 
ATOM     27  C   UNL     1      -3.527  11.600  18.419  0.00  0.00    +0.000 A 
ATOM     28  C   UNL     1      -2.166  11.670  18.704  0.00  0.00    +0.000 A 
ATOM     29  F   UNL     1      -1.742  12.578  19.595  0.00  0.00    +0.000 F 
ENDBRANCH  22  23
ENDBRANCH  20  22
ENDBRANCH  19  20
ENDBRANCH   4  19
TORSDOF 6
ENDMDL
MODEL 5
REMARK VINA RESULT:      -8.3      1.066      1.420
REMARK  Name = 
REMARK  6 active torsions:
REMARK  status: ('A' for Active; 'I' for Inactive)
REMARK    1  A    between atoms: N_11  and  C_12
REMARK    2  A    between atoms: C_12  and  C_13
REMARK    3  A    between atoms: C_16  and  C_17
REMARK    4  A    between atoms: C_17  and  N_18
REMARK    5  A    between atoms: N_18  and  C_19
REMARK    6  A    between atoms: C_19  and  C_20
REMARK                            x       y       z     vdW  Elec       q    Type
REMARK                         _______ _______ _______ _____ _____    ______ ____
ROOT
ATOM      1  C   UNL     1       2.470   6.621  19.742  0.00  0.00    +0.000 A 
ATOM      2  C   UNL     1       2.618   7.379  18.575  0.00  0.00    +0.000 A 
ATOM      3  C   UNL     1       2.020   8.639  18.468  0.00  0.00    +0.000 A 
ATOM      4  C   UNL     1       1.263   9.167  19.523  0.00  0.00    +0.000 A 
ATOM      5  C   UNL     1       1.170   8.434  20.715  0.00  0.00    +0.000 A 
ATOM      6  C   UNL     1       1.774   7.177  20.826  0.00  0.00    +0.000 A 
ENDROOT
BRANCH   1   7
ATOM      7  C   UNL     1       3.008   5.213  19.813  0.00  0.00    +0.000 C 
BRANCH   7  18
ATOM      8  O   UNL     1       5.938   5.632  19.676  0.00  0.00    +0.000 OA
ATOM      9  C   UNL     1       5.267   5.158  18.779  0.00  0.00    +0.000 C 
ATOM     10  C   UNL     1       5.795   4.787  17.466  0.00  0.00    +0.000 A 
ATOM     11  C   UNL     1       7.077   4.865  16.956  0.00  0.00    +0.000 A 
ATOM     12  C   UNL     1       7.268   4.440  15.636  0.00  0.00    +0.000 A 
ATOM     13  C   UNL     1       6.186   3.962  14.865  0.00  0.00    +0.000 A 
ATOM     14  C   UNL     1       4.896   3.905  15.400  0.00  0.00    +0.000 A 
ATOM     15  C   UNL     1       4.735   4.324  16.707  0.00  0.00    +0.000 A 
ATOM     16  C   UNL     1       3.531   4.411  17.528  0.00  0.00    +0.000 C 
ATOM     17  O   UNL     1       2.415   4.130  17.134  0.00  0.00    +0.000 OA
ATOM     18  N   UNL     1       3.924   4.896  18.744  0.00  0.00    +0.000 N 
ENDBRANCH   7  18
ENDBRANCH   1   7
BRANCH   4  19
ATOM     19  C   UNL     1       0.542  10.488  19.356  0.00  0.00    +0.000 C 
BRANCH  19  20
ATOM     20  N   UNL     1       0.087  10.650  17.975  0.00  0.00    +0.000 NA
ATOM     21  H   UNL     1       0.875  10.482  17.350  0.00  0.00    +0.000 HD
BRANCH  20  22
ATOM     22  C   UNL     1      -0.992   9.722  17.641  0.00  0.00    +0.000 C 
BRANCH  22  23
ATOM     23  C   UNL     1      -2.294  10.449  17.409  0.00  0.00    +0.000 A 
ATOM     24  C   UNL     1      -2.857  11.254  18.413  0.00  0.00    +0.000 A 
ATOM     25  C   UNL     1      -4.088  11.886  18.217  0.00  0.00    +0.000 A 
ATOM     26  C   UNL     1      -4.774  11.727  17.013  0.00  0.00    +0.000 A 
ATOM     27  C   UNL     1      -4.223  10.938  16.004  0.00  0.00    +0.000 A 
ATOM     28  C   UNL     1      -2.998  10.308  16.207  0.00  0.00    +0.000 A 
ATOM     29  F   UNL     1      -2.497   9.548  15.223  0.00  0.00    +0.000 F 
ENDBRANCH  22  23
ENDBRANCH  20  22
ENDBRANCH  19  20
ENDBRANCH   4  19
TORSDOF 6
ENDMDL
MODEL 6
REMARK VINA RESULT:      -8.3      3.398      9.296
REMARK  Name = 
REMARK  6 active torsions:
REMARK  status: ('A' for Active; 'I' for Inactive)
REMARK    1  A    between atoms: N_11  and  C_12
REMARK    2  A    between atoms: C_12  and  C_13
REMARK    3  A    between atoms: C_16  and  C_17
REMARK    4  A    between atoms: C_17  and  N_18
REMARK    5  A    between atoms: N_18  and  C_19
REMARK    6  A    between atoms: C_19  and  C_20
REMARK                            x       y       z     vdW  Elec       q    Type
REMARK                         _______ _______ _______ _____ _____    ______ ____
ROOT
ATOM      1  C   UNL     1       1.601   8.809  18.904  0.00  0.00    +0.000 A 
ATOM      2  C   UNL     1       2.159   7.860  18.039  0.00  0.00    +0.000 A 
ATOM      3  C   UNL     1       2.499   6.588  18.508  0.00  0.00    +0.000 A 
ATOM      4  C   UNL     1       2.291   6.236  19.850  0.00  0.00    +0.000 A 
ATOM      5  C   UNL     1       1.673   7.165  20.698  0.00  0.00    +0.000 A 
ATOM      6  C   UNL     1       1.325   8.436  20.228  0.00  0.00    +0.000 A 
ENDROOT
BRANCH   1   7
ATOM      7  C   UNL     1       1.350  10.220  18.432  0.00  0.00    +0.000 C 
BRANCH   7  18
ATOM      8  O   UNL     1      -1.306   9.817  17.180  0.00  0.00    +0.000 OA
ATOM      9  C   UNL     1      -1.104  10.505  18.162  0.00  0.00    +0.000 C 
ATOM     10  C   UNL     1      -2.133  11.297  18.835  0.00  0.00    +0.000 A 
ATOM     11  C   UNL     1      -3.479  11.447  18.558  0.00  0.00    +0.000 A 
ATOM     12  C   UNL     1      -4.212  12.303  19.389  0.00  0.00    +0.000 A 
ATOM     13  C   UNL     1      -3.590  12.985  20.457  0.00  0.00    +0.000 A 
ATOM     14  C   UNL     1      -2.225  12.825  20.709  0.00  0.00    +0.000 A 
ATOM     15  C   UNL     1      -1.525  11.971  19.879  0.00  0.00    +0.000 A 
ATOM     16  C   UNL     1      -0.107  11.621  19.865  0.00  0.00    +0.000 C 
ATOM     17  O   UNL     1       0.719  12.089  20.624  0.00  0.00    +0.000 OA
ATOM     18  N   UNL     1       0.064  10.737  18.835  0.00  0.00    +0.000 N 
ENDBRANCH   7  18
ENDBRANCH   1   7
BRANCH   4  19
ATOM     19  C   UNL     1       2.753   4.890  20.365  0.00  0.00    +0.000 C 
BRANCH  19  20
ATOM     20  N   UNL     1       3.051   3.990  19.248  0.00  0.00    +0.000 NA
ATOM     21  H   UNL     1       2.847   4.476  18.375  0.00  0.00    +0.000 HD
BRANCH  20  22
ATOM     22  C   UNL     1       4.451   3.570  19.243  0.00  0.00    +0.000 C 
BRANCH  22  23
ATOM     23  C   UNL     1       5.230   4.260  18.150  0.00  0.00    +0.000 A 
ATOM     24  C   UNL     1       4.945   4.013  16.797  0.00  0.00    +0.000 A 
ATOM     25  C   UNL     1       5.699   4.613  15.785  0.00  0.00    +0.000 A 
ATOM     26  C   UNL     1       6.749   5.472  16.110  0.00  0.00    +0.000 A 
ATOM     27  C   UNL     1       7.039   5.733  17.448  0.00  0.00    +0.000 A 
ATOM     28  C   UNL     1       6.285   5.129  18.452  0.00  0.00    +0.000 A 
ATOM     29  F   UNL     1       6.592   5.392  19.730  0.00  0.00    +0.000 F 
ENDBRANCH  22  23
ENDBRANCH  20  22
ENDBRANCH  19  20
ENDBRANCH   4  19
TORSDOF 6
ENDMDL
MODEL 7
REMARK VINA RESULT:      -8.2      3.971      9.429
REMARK  Name = 
REMARK  6 active torsions:
REMARK  status: ('A' for Active; 'I' for Inactive)
REMARK    1  A    between atoms: N_11  and  C_12
REMARK    2  A    between atoms: C_12  and  C_13
REMARK    3  A    between atoms: C_16  and  C_17
REMARK    4  A    between atoms: C_17  and  N_18
REMARK    5  A    between atoms: N_18  and  C_19
REMARK    6  A    between atoms: C_19  and  C_20
REMARK                            x       y       z     vdW  Elec       q    Type
REMARK                         _______ _______ _______ _____ _____    ______ ____
ROOT
ATOM      1  C   UNL     1       1.015  10.297  18.951  0.00  0.00    +0.000 A 
ATOM      2  C   UNL     1       0.855   9.695  20.204  0.00  0.00    +0.000 A 
ATOM      3  C   UNL     1       1.388   8.426  20.453  0.00  0.00    +0.000 A 
ATOM      4  C   UNL     1       2.092   7.734  19.458  0.00  0.00    +0.000 A 
ATOM      5  C   UNL     1       2.307   8.366  18.226  0.00  0.00    +0.000 A 
ATOM      6  C   UNL     1       1.781   9.639  17.977  0.00  0.00    +0.000 A 
ENDROOT
BRANCH   1   7
ATOM      7  C   UNL     1       0.336  11.608  18.640  0.00  0.00    +0.000 C 
BRANCH   7  18
ATOM      8  O   UNL     1      -1.554  10.066  16.958  0.00  0.00    +0.000 OA
ATOM      9  C   UNL     1      -1.884  10.806  17.864  0.00  0.00    +0.000 C 
ATOM     10  C   UNL     1      -3.273  11.103  18.217  0.00  0.00    +0.000 A 
ATOM     11  C   UNL     1      -4.458  10.653  17.667  0.00  0.00    +0.000 A 
ATOM     12  C   UNL     1      -5.647  11.140  18.222  0.00  0.00    +0.000 A 
ATOM     13  C   UNL     1      -5.624  12.058  19.295  0.00  0.00    +0.000 A 
ATOM     14  C   UNL     1      -4.411  12.506  19.826  0.00  0.00    +0.000 A 
ATOM     15  C   UNL     1      -3.252  12.008  19.264  0.00  0.00    +0.000 A 
ATOM     16  C   UNL     1      -1.854  12.297  19.571  0.00  0.00    +0.000 C 
ATOM     17  O   UNL     1      -1.492  13.099  20.410  0.00  0.00    +0.000 OA
ATOM     18  N   UNL     1      -1.103  11.539  18.716  0.00  0.00    +0.000 N 
ENDBRANCH   7  18
ENDBRANCH   1   7
BRANCH   4  19
ATOM     19  C   UNL     1       2.579   6.323  19.711  0.00  0.00    +0.000 C 
BRANCH  19  20
ATOM     20  N   UNL     1       1.873   5.735  20.851  0.00  0.00    +0.000 NA
ATOM     21  H   UNL     1       1.228   6.430  21.228  0.00  0.00    +0.000 HD
BRANCH  20  22
ATOM     22  C   UNL     1       1.117   4.543  20.471  0.00  0.00    +0.000 C 
BRANCH  22  23
ATOM     23  C   UNL     1       1.939   3.623  19.601  0.00  0.00    +0.000 A 
ATOM     24  C   UNL     1       1.740   3.581  18.212  0.00  0.00    +0.000 A 
ATOM     25  C   UNL     1       2.465   2.693  17.412  0.00  0.00    +0.000 A 
ATOM     26  C   UNL     1       3.401   1.835  17.988  0.00  0.00    +0.000 A 
ATOM     27  C   UNL     1       3.615   1.871  19.365  0.00  0.00    +0.000 A 
ATOM     28  C   UNL     1       2.887   2.757  20.157  0.00  0.00    +0.000 A 
ATOM     29  F   UNL     1       3.107   2.764  21.480  0.00  0.00    +0.000 F 
ENDBRANCH  22  23
ENDBRANCH  20  22
ENDBRANCH  19  20
ENDBRANCH   4  19
TORSDOF 6
ENDMDL
MODEL 8
REMARK VINA RESULT:      -8.2      3.389      9.383
REMARK  Name = 
REMARK  6 active torsions:
REMARK  status: ('A' for Active; 'I' for Inactive)
REMARK    1  A    between atoms: N_11  and  C_12
REMARK    2  A    between atoms: C_12  and  C_13
REMARK    3  A    between atoms: C_16  and  C_17
REMARK    4  A    between atoms: C_17  and  N_18
REMARK    5  A    between atoms: N_18  and  C_19
REMARK    6  A    between atoms: C_19  and  C_20
REMARK                            x       y       z     vdW  Elec       q    Type
REMARK                         _______ _______ _______ _____ _____    ______ ____
ROOT
ATOM      1  C   UNL     1       1.259   9.977  18.978  0.00  0.00    +0.000 A 
ATOM      2  C   UNL     1       0.983   9.476  20.256  0.00  0.00    +0.000 A 
ATOM      3  C   UNL     1       1.355   8.173  20.601  0.00  0.00    +0.000 A 
ATOM      4  C   UNL     1       2.010   7.344  19.679  0.00  0.00    +0.000 A 
ATOM      5  C   UNL     1       2.342   7.869  18.423  0.00  0.00    +0.000 A 
ATOM      6  C   UNL     1       1.977   9.175  18.079  0.00  0.00    +0.000 A 
ENDROOT
BRANCH   1   7
ATOM      7  C   UNL     1       0.748  11.334  18.563  0.00  0.00    +0.000 C 
BRANCH   7  18
ATOM      8  O   UNL     1      -1.009  13.052  20.219  0.00  0.00    +0.000 OA
ATOM      9  C   UNL     1      -1.407  12.248  19.397  0.00  0.00    +0.000 C 
ATOM     10  C   UNL     1      -2.819  11.954  19.152  0.00  0.00    +0.000 A 
ATOM     11  C   UNL     1      -3.961  12.475  19.731  0.00  0.00    +0.000 A 
ATOM     12  C   UNL     1      -5.190  11.972  19.288  0.00  0.00    +0.000 A 
ATOM     13  C   UNL     1      -5.247  10.969  18.296  0.00  0.00    +0.000 A 
ATOM     14  C   UNL     1      -4.077  10.451  17.734  0.00  0.00    +0.000 A 
ATOM     15  C   UNL     1      -2.877  10.967  18.184  0.00  0.00    +0.000 A 
ATOM     16  C   UNL     1      -1.506  10.621  17.821  0.00  0.00    +0.000 C 
ATOM     17  O   UNL     1      -1.209   9.746  17.033  0.00  0.00    +0.000 OA
ATOM     18  N   UNL     1      -0.692  11.430  18.566  0.00  0.00    +0.000 N 
ENDBRANCH   7  18
ENDBRANCH   1   7
BRANCH   4  19
ATOM     19  C   UNL     1       2.320   5.905  20.035  0.00  0.00    +0.000 C 
BRANCH  19  20
ATOM     20  N   UNL     1       3.747   5.631  19.860  0.00  0.00    +0.000 NA
ATOM     21  H   UNL     1       4.204   5.690  20.771  0.00  0.00    +0.000 HD
BRANCH  20  22
ATOM     22  C   UNL     1       3.985   4.305  19.293  0.00  0.00    +0.000 C 
BRANCH  22  23
ATOM     23  C   UNL     1       4.988   4.359  18.166  0.00  0.00    +0.000 A 
ATOM     24  C   UNL     1       6.308   4.777  18.398  0.00  0.00    +0.000 A 
ATOM     25  C   UNL     1       7.223   4.876  17.347  0.00  0.00    +0.000 A 
ATOM     26  C   UNL     1       6.833   4.554  16.047  0.00  0.00    +0.000 A 
ATOM     27  C   UNL     1       5.528   4.129  15.803  0.00  0.00    +0.000 A 
ATOM     28  C   UNL     1       4.620   4.036  16.855  0.00  0.00    +0.000 A 
ATOM     29  F   UNL     1       3.370   3.633  16.589  0.00  0.00    +0.000 F 
ENDBRANCH  22  23
ENDBRANCH  20  22
ENDBRANCH  19  20
ENDBRANCH   4  19
TORSDOF 6
ENDMDL
MODEL 9
REMARK VINA RESULT:      -8.2      0.571      1.951
REMARK  Name = 
REMARK  6 active torsions:
REMARK  status: ('A' for Active; 'I' for Inactive)
REMARK    1  A    between atoms: N_11  and  C_12
REMARK    2  A    between atoms: C_12  and  C_13
REMARK    3  A    between atoms: C_16  and  C_17
REMARK    4  A    between atoms: C_17  and  N_18
REMARK    5  A    between atoms: N_18  and  C_19
REMARK    6  A    between atoms: C_19  and  C_20
REMARK                            x       y       z     vdW  Elec       q    Type
REMARK                         _______ _______ _______ _____ _____    ______ ____
ROOT
ATOM      1  C   UNL     1       2.684   6.274  19.599  0.00  0.00    +0.000 A 
ATOM      2  C   UNL     1       1.937   6.532  20.754  0.00  0.00    +0.000 A 
ATOM      3  C   UNL     1       1.255   7.744  20.901  0.00  0.00    +0.000 A 
ATOM      4  C   UNL     1       1.304   8.723  19.898  0.00  0.00    +0.000 A 
ATOM      5  C   UNL     1       1.999   8.436  18.715  0.00  0.00    +0.000 A 
ATOM      6  C   UNL     1       2.676   7.221  18.564  0.00  0.00    +0.000 A 
ENDROOT
BRANCH   1   7
ATOM      7  C   UNL     1       3.520   5.023  19.492  0.00  0.00    +0.000 C 
BRANCH   7  18
ATOM      8  O   UNL     1       2.792   3.674  16.957  0.00  0.00    +0.000 OA
ATOM      9  C   UNL     1       3.840   4.260  17.149  0.00  0.00    +0.000 C 
ATOM     10  C   UNL     1       4.933   4.328  16.179  0.00  0.00    +0.000 A 
ATOM     11  C   UNL     1       5.043   3.800  14.907  0.00  0.00    +0.000 A 
ATOM     12  C   UNL     1       6.242   4.025  14.221  0.00  0.00    +0.000 A 
ATOM     13  C   UNL     1       7.291   4.758  14.817  0.00  0.00    +0.000 A 
ATOM     14  C   UNL     1       7.159   5.273  16.110  0.00  0.00    +0.000 A 
ATOM     15  C   UNL     1       5.965   5.040  16.764  0.00  0.00    +0.000 A 
ATOM     16  C   UNL     1       5.537   5.416  18.109  0.00  0.00    +0.000 C 
ATOM     17  O   UNL     1       6.238   6.006  18.907  0.00  0.00    +0.000 OA
ATOM     18  N   UNL     1       4.266   4.936  18.260  0.00  0.00    +0.000 N 
ENDBRANCH   7  18
ENDBRANCH   1   7
BRANCH   4  19
ATOM     19  C   UNL     1       0.642  10.067  20.113  0.00  0.00    +0.000 C 
BRANCH  19  20
ATOM     20  N   UNL     1      -0.798   9.972  19.866  0.00  0.00    +0.000 NA
ATOM     21  H   UNL     1      -1.266   9.753  20.746  0.00  0.00    +0.000 HD
BRANCH  20  22
ATOM     22  C   UNL     1      -1.346  11.218  19.333  0.00  0.00    +0.000 C 
BRANCH  22  23
ATOM     23  C   UNL     1      -2.252  10.963  18.153  0.00  0.00    +0.000 A 
ATOM     24  C   UNL     1      -1.844  10.127  17.101  0.00  0.00    +0.000 A 
ATOM     25  C   UNL     1      -2.661   9.931  15.984  0.00  0.00    +0.000 A 
ATOM     26  C   UNL     1      -3.900  10.565  15.903  0.00  0.00    +0.000 A 
ATOM     27  C   UNL     1      -4.322  11.392  16.943  0.00  0.00    +0.000 A 
ATOM     28  C   UNL     1      -3.501  11.586  18.052  0.00  0.00    +0.000 A 
ATOM     29  F   UNL     1      -3.929  12.393  19.033  0.00  0.00    +0.000 F 
ENDBRANCH  22  23
ENDBRANCH  20  22
ENDBRANCH  19  20
ENDBRANCH   4  19
TORSDOF 6
ENDMDL
