MODEL 1
REMARK VINA RESULT:      -8.4      0.000      0.000
REMARK  Name = 
REMARK  10 active torsions:
REMARK  status: ('A' for Active; 'I' for Inactive)
REMARK    1  A    between atoms: C_1  and  C_2
REMARK    2  A    between atoms: C_5  and  C_6
REMARK    3  A    between atoms: C_7  and  C_8
REMARK    4  A    between atoms: C_8  and  N_9
REMARK    5  A    between atoms: N_9  and  C_10
REMARK    6  A    between atoms: N_9  and  C_17
REMARK    7  A    between atoms: C_10  and  C_11
REMARK    8  A    between atoms: C_17  and  C_18
REMARK    9  A    between atoms: C_18  and  O_19
REMARK   10  A    between atoms: C_18  and  C_20
REMARK                            x       y       z     vdW  Elec       q    Type
REMARK                         _______ _______ _______ _____ _____    ______ ____
ROOT
ATOM      1  N   UNL     1       4.116   4.550  18.118  0.00  0.00    +0.000 NA
ENDROOT
BRANCH   1   2
ATOM      2  C   UNL     1       5.574   4.299  18.198  0.00  0.00    +0.000 C 
BRANCH   2   9
ATOM      3  C   UNL     1       6.003   3.696  15.024  0.00  0.00    +0.000 C 
ATOM      4  C   UNL     1       6.535   4.827  15.822  0.00  0.00    +0.000 A 
ATOM      5  N   UNL     1       7.360   5.713  15.251  0.00  0.00    +0.000 NA
ATOM      6  O   UNL     1       7.836   6.497  16.283  0.00  0.00    +0.000 OA
ATOM      7  C   UNL     1       7.295   6.080  17.457  0.00  0.00    +0.000 A 
ATOM      8  C   UNL     1       7.850   6.682  18.682  0.00  0.00    +0.000 C 
ATOM      9  C   UNL     1       6.375   5.081  17.217  0.00  0.00    +0.000 A 
ENDBRANCH   2   9
ENDBRANCH   1   2
BRANCH   1  10
ATOM     10  C   UNL     1       3.818   5.815  17.390  0.00  0.00    +0.000 C 
BRANCH  10  11
ATOM     11  C   UNL     1       3.076   6.838  18.242  0.00  0.00    +0.000 A 
ATOM     12  C   UNL     1       2.727   6.542  19.568  0.00  0.00    +0.000 A 
ATOM     13  C   UNL     1       1.913   7.410  20.297  0.00  0.00    +0.000 A 
ATOM     14  C   UNL     1       1.451   8.591  19.717  0.00  0.00    +0.000 A 
ATOM     15  C   UNL     1       1.836   8.922  18.419  0.00  0.00    +0.000 A 
ATOM     16  C   UNL     1       2.651   8.057  17.686  0.00  0.00    +0.000 A 
ENDBRANCH  10  11
ENDBRANCH   1  10
BRANCH   1  17
ATOM     17  C   UNL     1       3.453   3.403  17.420  0.00  0.00    +0.000 C 
BRANCH  17  18
ATOM     18  C   UNL     1       2.039   2.972  17.905  0.00  0.00    +0.000 C 
BRANCH  18  19
ATOM     19  C   UNL     1       1.972   2.997  19.399  0.00  0.00    +0.000 A 
ATOM     20  C   UNL     1       1.063   3.482  20.312  0.00  0.00    +0.000 A 
ATOM     21  C   UNL     1       1.588   3.187  21.591  0.00  0.00    +0.000 A 
ATOM     22  C   UNL     1       2.791   2.556  21.383  0.00  0.00    +0.000 A 
ATOM     23  O   UNL     1       3.039   2.445  20.055  0.00  0.00    +0.000 OA
ENDBRANCH  18  19
BRANCH  18  24
ATOM     24  O   UNL     1       1.022   3.872  17.463  0.00  0.00    +0.000 OA
ATOM     25  H   UNL     1       1.484   4.608  17.023  0.00  0.00    +0.000 HD
ENDBRANCH  18  24
ENDBRANCH  17  18
ENDBRANCH   1  17
TORSDOF 8
ENDMDL
MODEL 2
REMARK VINA RESULT:      -8.4      0.233      1.012
REMARK  Name = 
REMARK  10 active torsions:
REMARK  status: ('A' for Active; 'I' for Inactive)
REMARK    1  A    between atoms: C_1  and  C_2
REMARK    2  A    between atoms: C_5  and  C_6
REMARK    3  A    between atoms: C_7  and  C_8
REMARK    4  A    between atoms: C_8  and  N_9
REMARK    5  A    between atoms: N_9  and  C_10
REMARK    6  A    between atoms: N_9  and  C_17
REMARK    7  A    between atoms: C_10  and  C_11
REMARK    8  A    between atoms: C_17  and  C_18
REMARK    9  A    between atoms: C_18  and  O_19
REMARK   10  A    between atoms: C_18  and  C_20
REMARK                            x       y       z     vdW  Elec       q    Type
REMARK                         _______ _______ _______ _____ _____    ______ ____
ROOT
ATOM      1  N   UNL     1       4.065   4.802  18.067  0.00  0.00    +0.000 NA
ENDROOT
BRANCH   1   2
ATOM      2  C   UNL     1       5.508   4.477  18.157  0.00  0.00    +0.000 C 
BRANCH   2   9
ATOM      3  C   UNL     1       5.968   3.674  15.033  0.00  0.00    +0.000 C 
ATOM      4  C   UNL     1       6.521   4.834  15.771  0.00  0.00    +0.000 A 
ATOM      5  N   UNL     1       7.382   5.660  15.164  0.00  0.00    +0.000 NA
ATOM      6  O   UNL     1       7.865   6.490  16.155  0.00  0.00    +0.000 OA
ATOM      7  C   UNL     1       7.292   6.160  17.342  0.00  0.00    +0.000 A 
ATOM      8  C   UNL     1       7.846   6.817  18.539  0.00  0.00    +0.000 C 
ATOM      9  C   UNL     1       6.347   5.175  17.145  0.00  0.00    +0.000 A 
ENDBRANCH   2   9
ENDBRANCH   1   2
BRANCH   1  10
ATOM     10  C   UNL     1       3.841   6.126  17.424  0.00  0.00    +0.000 C 
BRANCH  10  11
ATOM     11  C   UNL     1       2.890   7.023  18.207  0.00  0.00    +0.000 A 
ATOM     12  C   UNL     1       2.377   8.194  17.630  0.00  0.00    +0.000 A 
ATOM     13  C   UNL     1       1.636   9.096  18.395  0.00  0.00    +0.000 A 
ATOM     14  C   UNL     1       1.384   8.832  19.740  0.00  0.00    +0.000 A 
ATOM     15  C   UNL     1       1.841   7.645  20.311  0.00  0.00    +0.000 A 
ATOM     16  C   UNL     1       2.582   6.740  19.548  0.00  0.00    +0.000 A 
ENDBRANCH  10  11
ENDBRANCH   1  10
BRANCH   1  17
ATOM     17  C   UNL     1       3.365   3.739  17.277  0.00  0.00    +0.000 C 
BRANCH  17  18
ATOM     18  C   UNL     1       1.972   3.257  17.775  0.00  0.00    +0.000 C 
BRANCH  18  19
ATOM     19  C   UNL     1       1.943   3.202  19.269  0.00  0.00    +0.000 A 
ATOM     20  C   UNL     1       1.108   3.717  20.234  0.00  0.00    +0.000 A 
ATOM     21  C   UNL     1       1.633   3.300  21.478  0.00  0.00    +0.000 A 
ATOM     22  C   UNL     1       2.764   2.571  21.200  0.00  0.00    +0.000 A 
ATOM     23  O   UNL     1       2.968   2.514  19.861  0.00  0.00    +0.000 OA
ENDBRANCH  18  19
BRANCH  18  24
ATOM     24  O   UNL     1       0.929   4.162  17.408  0.00  0.00    +0.000 OA
ATOM     25  H   UNL     1       1.074   4.374  16.468  0.00  0.00    +0.000 HD
ENDBRANCH  18  24
ENDBRANCH  17  18
ENDBRANCH   1  17
TORSDOF 8
ENDMDL
MODEL 3
REMARK VINA RESULT:      -7.9      1.396      2.339
REMARK  Name = 
REMARK  10 active torsions:
REMARK  status: ('A' for Active; 'I' for Inactive)
REMARK    1  A    between atoms: C_1  and  C_2
REMARK    2  A    between atoms: C_5  and  C_6
REMARK    3  A    between atoms: C_7  and  C_8
REMARK    4  A    between atoms: C_8  and  N_9
REMARK    5  A    between atoms: N_9  and  C_10
REMARK    6  A    between atoms: N_9  and  C_17
REMARK    7  A    between atoms: C_10  and  C_11
REMARK    8  A    between atoms: C_17  and  C_18
REMARK    9  A    between atoms: C_18  and  O_19
REMARK   10  A    between atoms: C_18  and  C_20
REMARK                            x       y       z     vdW  Elec       q    Type
REMARK                         _______ _______ _______ _____ _____    ______ ____
ROOT
ATOM      1  N   UNL     1       4.092   5.790  18.362  0.00  0.00    +0.000 NA
ENDROOT
BRANCH   1   2
ATOM      2  C   UNL     1       5.146   6.421  17.534  0.00  0.00    +0.000 C 
BRANCH   2   9
ATOM      3  C   UNL     1       7.765   5.715  19.340  0.00  0.00    +0.000 C 
ATOM      4  C   UNL     1       7.403   5.183  18.005  0.00  0.00    +0.000 A 
ATOM      5  N   UNL     1       8.243   4.359  17.367  0.00  0.00    +0.000 NA
ATOM      6  O   UNL     1       7.730   4.216  16.093  0.00  0.00    +0.000 OA
ATOM      7  C   UNL     1       6.592   4.949  15.978  0.00  0.00    +0.000 A 
ATOM      8  C   UNL     1       6.026   5.065  14.622  0.00  0.00    +0.000 C 
ATOM      9  C   UNL     1       6.273   5.510  17.197  0.00  0.00    +0.000 A 
ENDBRANCH   2   9
ENDBRANCH   1   2
BRANCH   1  10
ATOM     10  C   UNL     1       2.730   6.192  17.915  0.00  0.00    +0.000 C 
BRANCH  10  11
ATOM     11  C   UNL     1       2.207   7.437  18.622  0.00  0.00    +0.000 A 
ATOM     12  C   UNL     1       1.978   7.425  20.006  0.00  0.00    +0.000 A 
ATOM     13  C   UNL     1       1.352   8.507  20.630  0.00  0.00    +0.000 A 
ATOM     14  C   UNL     1       0.963   9.617  19.882  0.00  0.00    +0.000 A 
ATOM     15  C   UNL     1       1.235   9.663  18.516  0.00  0.00    +0.000 A 
ATOM     16  C   UNL     1       1.862   8.584  17.888  0.00  0.00    +0.000 A 
ENDBRANCH  10  11
ENDBRANCH   1  10
BRANCH   1  17
ATOM     17  C   UNL     1       4.224   4.300  18.283  0.00  0.00    +0.000 C 
BRANCH  17  18
ATOM     18  C   UNL     1       4.397   3.510  19.612  0.00  0.00    +0.000 C 
BRANCH  18  19
ATOM     19  C   UNL     1       3.062   3.205  20.214  0.00  0.00    +0.000 A 
ATOM     20  C   UNL     1       2.506   3.381  21.460  0.00  0.00    +0.000 A 
ATOM     21  C   UNL     1       1.188   2.878  21.384  0.00  0.00    +0.000 A 
ATOM     22  C   UNL     1       1.023   2.411  20.102  0.00  0.00    +0.000 A 
ATOM     23  O   UNL     1       2.159   2.595  19.385  0.00  0.00    +0.000 OA
ENDBRANCH  18  19
BRANCH  18  24
ATOM     24  O   UNL     1       5.020   2.241  19.406  0.00  0.00    +0.000 OA
ATOM     25  H   UNL     1       4.306   1.580  19.447  0.00  0.00    +0.000 HD
ENDBRANCH  18  24
ENDBRANCH  17  18
ENDBRANCH   1  17
TORSDOF 8
ENDMDL
MODEL 4
REMARK VINA RESULT:      -7.9      1.470      1.760
REMARK  Name = 
REMARK  10 active torsions:
REMARK  status: ('A' for Active; 'I' for Inactive)
REMARK    1  A    between atoms: C_1  and  C_2
REMARK    2  A    between atoms: C_5  and  C_6
REMARK    3  A    between atoms: C_7  and  C_8
REMARK    4  A    between atoms: C_8  and  N_9
REMARK    5  A    between atoms: N_9  and  C_10
REMARK    6  A    between atoms: N_9  and  C_17
REMARK    7  A    between atoms: C_10  and  C_11
REMARK    8  A    between atoms: C_17  and  C_18
REMARK    9  A    between atoms: C_18  and  O_19
REMARK   10  A    between atoms: C_18  and  C_20
REMARK                            x       y       z     vdW  Elec       q    Type
REMARK                         _______ _______ _______ _____ _____    ______ ____
ROOT
ATOM      1  N   UNL     1       4.227   6.203  18.218  0.00  0.00    +0.000 NA
ENDROOT
BRANCH   1   2
ATOM      2  C   UNL     1       5.294   6.788  17.373  0.00  0.00    +0.000 C 
BRANCH   2   9
ATOM      3  C   UNL     1       5.670   4.860  14.773  0.00  0.00    +0.000 C 
ATOM      4  C   UNL     1       6.584   5.030  15.927  0.00  0.00    +0.000 A 
ATOM      5  N   UNL     1       7.689   4.279  16.016  0.00  0.00    +0.000 NA
ATOM      6  O   UNL     1       8.202   4.518  17.276  0.00  0.00    +0.000 OA
ATOM      7  C   UNL     1       7.407   5.406  17.927  0.00  0.00    +0.000 A 
ATOM      8  C   UNL     1       7.701   5.619  19.355  0.00  0.00    +0.000 C 
ATOM      9  C   UNL     1       6.413   5.850  17.081  0.00  0.00    +0.000 A 
ENDBRANCH   2   9
ENDBRANCH   1   2
BRANCH   1  10
ATOM     10  C   UNL     1       2.876   6.659  17.787  0.00  0.00    +0.000 C 
BRANCH  10  11
ATOM     11  C   UNL     1       2.250   7.669  18.740  0.00  0.00    +0.000 A 
ATOM     12  C   UNL     1       2.040   7.341  20.088  0.00  0.00    +0.000 A 
ATOM     13  C   UNL     1       1.325   8.201  20.924  0.00  0.00    +0.000 A 
ATOM     14  C   UNL     1       0.826   9.404  20.429  0.00  0.00    +0.000 A 
ATOM     15  C   UNL     1       1.075   9.766  19.106  0.00  0.00    +0.000 A 
ATOM     16  C   UNL     1       1.791   8.910  18.267  0.00  0.00    +0.000 A 
ENDBRANCH  10  11
ENDBRANCH   1  10
BRANCH   1  17
ATOM     17  C   UNL     1       4.297   4.708  18.143  0.00  0.00    +0.000 C 
BRANCH  17  18
ATOM     18  C   UNL     1       4.375   3.913  19.477  0.00  0.00    +0.000 C 
BRANCH  18  19
ATOM     19  C   UNL     1       3.001   3.590  19.971  0.00  0.00    +0.000 A 
ATOM     20  C   UNL     1       1.740   3.660  19.423  0.00  0.00    +0.000 A 
ATOM     21  C   UNL     1       0.847   3.203  20.417  0.00  0.00    +0.000 A 
ATOM     22  C   UNL     1       1.612   2.896  21.517  0.00  0.00    +0.000 A 
ATOM     23  O   UNL     1       2.921   3.137  21.261  0.00  0.00    +0.000 OA
ENDBRANCH  18  19
BRANCH  18  24
ATOM     24  O   UNL     1       5.026   2.651  19.313  0.00  0.00    +0.000 OA
ATOM     25  H   UNL     1       4.378   1.976  19.584  0.00  0.00    +0.000 HD
ENDBRANCH  18  24
ENDBRANCH  17  18
ENDBRANCH   1  17
TORSDOF 8
ENDMDL
MODEL 5
REMARK VINA RESULT:      -7.8      1.402      2.097
REMARK  Name = 
REMARK  10 active torsions:
REMARK  status: ('A' for Active; 'I' for Inactive)
REMARK    1  A    between atoms: C_1  and  C_2
REMARK    2  A    between atoms: C_5  and  C_6
REMARK    3  A    between atoms: C_7  and  C_8
REMARK    4  A    between atoms: C_8  and  N_9
REMARK    5  A    between atoms: N_9  and  C_10
REMARK    6  A    between atoms: N_9  and  C_17
REMARK    7  A    between atoms: C_10  and  C_11
REMARK    8  A    between atoms: C_17  and  C_18
REMARK    9  A    between atoms: C_18  and  O_19
REMARK   10  A    between atoms: C_18  and  C_20
REMARK                            x       y       z     vdW  Elec       q    Type
REMARK                         _______ _______ _______ _____ _____    ______ ____
ROOT
ATOM      1  N   UNL     1       3.844   5.094  18.087  0.00  0.00    +0.000 NA
ENDROOT
BRANCH   1   2
ATOM      2  C   UNL     1       4.928   5.901  17.481  0.00  0.00    +0.000 C 
BRANCH   2   9
ATOM      3  C   UNL     1       7.402   5.605  19.582  0.00  0.00    +0.000 C 
ATOM      4  C   UNL     1       7.269   5.007  18.233  0.00  0.00    +0.000 A 
ATOM      5  N   UNL     1       8.283   4.301  17.716  0.00  0.00    +0.000 NA
ATOM      6  O   UNL     1       7.941   4.066  16.399  0.00  0.00    +0.000 OA
ATOM      7  C   UNL     1       6.732   4.627  16.138  0.00  0.00    +0.000 A 
ATOM      8  C   UNL     1       6.311   4.640  14.726  0.00  0.00    +0.000 C 
ATOM      9  C   UNL     1       6.203   5.155  17.297  0.00  0.00    +0.000 A 
ENDBRANCH   2   9
ENDBRANCH   1   2
BRANCH   1  10
ATOM     10  C   UNL     1       2.502   5.670  17.791  0.00  0.00    +0.000 C 
BRANCH  10  11
ATOM     11  C   UNL     1       2.181   6.905  18.624  0.00  0.00    +0.000 A 
ATOM     12  C   UNL     1       2.021   6.805  20.014  0.00  0.00    +0.000 A 
ATOM     13  C   UNL     1       1.572   7.899  20.756  0.00  0.00    +0.000 A 
ATOM     14  C   UNL     1       1.295   9.109  20.122  0.00  0.00    +0.000 A 
ATOM     15  C   UNL     1       1.504   9.237  18.750  0.00  0.00    +0.000 A 
ATOM     16  C   UNL     1       1.953   8.145  18.004  0.00  0.00    +0.000 A 
ENDBRANCH  10  11
ENDBRANCH   1  10
BRANCH   1  17
ATOM     17  C   UNL     1       3.913   3.694  17.559  0.00  0.00    +0.000 C 
BRANCH  17  18
ATOM     18  C   UNL     1       3.841   2.524  18.582  0.00  0.00    +0.000 C 
BRANCH  18  19
ATOM     19  C   UNL     1       2.782   2.790  19.604  0.00  0.00    +0.000 A 
ATOM     20  C   UNL     1       1.406   2.777  19.589  0.00  0.00    +0.000 A 
ATOM     21  C   UNL     1       0.990   3.122  20.894  0.00  0.00    +0.000 A 
ATOM     22  C   UNL     1       2.134   3.342  21.623  0.00  0.00    +0.000 A 
ATOM     23  O   UNL     1       3.229   3.153  20.847  0.00  0.00    +0.000 OA
ENDBRANCH  18  19
BRANCH  18  24
ATOM     24  O   UNL     1       3.470   1.291  17.963  0.00  0.00    +0.000 OA
ATOM     25  H   UNL     1       4.292   0.779  17.865  0.00  0.00    +0.000 HD
ENDBRANCH  18  24
ENDBRANCH  17  18
ENDBRANCH   1  17
TORSDOF 8
ENDMDL
MODEL 6
REMARK VINA RESULT:      -7.7      0.750      1.757
REMARK  Name = 
REMARK  10 active torsions:
REMARK  status: ('A' for Active; 'I' for Inactive)
REMARK    1  A    between atoms: C_1  and  C_2
REMARK    2  A    between atoms: C_5  and  C_6
REMARK    3  A    between atoms: C_7  and  C_8
REMARK    4  A    between atoms: C_8  and  N_9
REMARK    5  A    between atoms: N_9  and  C_10
REMARK    6  A    between atoms: N_9  and  C_17
REMARK    7  A    between atoms: C_10  and  C_11
REMARK    8  A    between atoms: C_17  and  C_18
REMARK    9  A    between atoms: C_18  and  O_19
REMARK   10  A    between atoms: C_18  and  C_20
REMARK                            x       y       z     vdW  Elec       q    Type
REMARK                         _______ _______ _______ _____ _____    ______ ____
ROOT
ATOM      1  N   UNL     1       4.077   4.762  18.094  0.00  0.00    +0.000 NA
ENDROOT
BRANCH   1   2
ATOM      2  C   UNL     1       5.447   4.206  18.001  0.00  0.00    +0.000 C 
BRANCH   2   9
ATOM      3  C   UNL     1       7.502   6.664  18.594  0.00  0.00    +0.000 C 
ATOM      4  C   UNL     1       7.242   5.978  17.307  0.00  0.00    +0.000 A 
ATOM      5  N   UNL     1       7.837   6.414  16.189  0.00  0.00    +0.000 NA
ATOM      6  O   UNL     1       7.240   5.721  15.155  0.00  0.00    +0.000 OA
ATOM      7  C   UNL     1       6.300   4.879  15.656  0.00  0.00    +0.000 A 
ATOM      8  C   UNL     1       5.431   4.210  14.671  0.00  0.00    +0.000 C 
ATOM      9  C   UNL     1       6.323   4.921  17.035  0.00  0.00    +0.000 A 
ENDBRANCH   2   9
ENDBRANCH   1   2
BRANCH   1  10
ATOM     10  C   UNL     1       3.987   6.105  17.456  0.00  0.00    +0.000 C 
BRANCH  10  11
ATOM     11  C   UNL     1       3.130   7.089  18.244  0.00  0.00    +0.000 A 
ATOM     12  C   UNL     1       2.717   6.786  19.550  0.00  0.00    +0.000 A 
ATOM     13  C   UNL     1       1.805   7.609  20.214  0.00  0.00    +0.000 A 
ATOM     14  C   UNL     1       1.308   8.751  19.588  0.00  0.00    +0.000 A 
ATOM     15  C   UNL     1       1.753   9.092  18.312  0.00  0.00    +0.000 A 
ATOM     16  C   UNL     1       2.666   8.272  17.645  0.00  0.00    +0.000 A 
ENDBRANCH  10  11
ENDBRANCH   1  10
BRANCH   1  17
ATOM     17  C   UNL     1       3.115   3.827  17.426  0.00  0.00    +0.000 C 
BRANCH  17  18
ATOM     18  C   UNL     1       2.858   2.446  18.093  0.00  0.00    +0.000 C 
BRANCH  18  19
ATOM     19  C   UNL     1       2.318   2.627  19.476  0.00  0.00    +0.000 A 
ATOM     20  C   UNL     1       1.076   2.912  19.993  0.00  0.00    +0.000 A 
ATOM     21  C   UNL     1       1.227   2.949  21.397  0.00  0.00    +0.000 A 
ATOM     22  C   UNL     1       2.555   2.702  21.652  0.00  0.00    +0.000 A 
ATOM     23  O   UNL     1       3.229   2.515  20.492  0.00  0.00    +0.000 OA
ENDBRANCH  18  19
BRANCH  18  24
ATOM     24  O   UNL     1       1.868   1.688  17.395  0.00  0.00    +0.000 OA
ATOM     25  H   UNL     1       2.181   0.766  17.398  0.00  0.00    +0.000 HD
ENDBRANCH  18  24
ENDBRANCH  17  18
ENDBRANCH   1  17
TORSDOF 8
ENDMDL
MODEL 7
REMARK VINA RESULT:      -7.7      1.366      1.462
REMARK  Name = 
REMARK  10 active torsions:
REMARK  status: ('A' for Active; 'I' for Inactive)
REMARK    1  A    between atoms: C_1  and  C_2
REMARK    2  A    between atoms: C_5  and  C_6
REMARK    3  A    between atoms: C_7  and  C_8
REMARK    4  A    between atoms: C_8  and  N_9
REMARK    5  A    between atoms: N_9  and  C_10
REMARK    6  A    between atoms: N_9  and  C_17
REMARK    7  A    between atoms: C_10  and  C_11
REMARK    8  A    between atoms: C_17  and  C_18
REMARK    9  A    between atoms: C_18  and  O_19
REMARK   10  A    between atoms: C_18  and  C_20
REMARK                            x       y       z     vdW  Elec       q    Type
REMARK                         _______ _______ _______ _____ _____    ______ ____
ROOT
ATOM      1  N   UNL     1       3.613   4.936  17.771  0.00  0.00    +0.000 NA
ENDROOT
BRANCH   1   2
ATOM      2  C   UNL     1       4.507   5.617  16.805  0.00  0.00    +0.000 C 
BRANCH   2   9
ATOM      3  C   UNL     1       6.222   3.982  14.568  0.00  0.00    +0.000 C 
ATOM      4  C   UNL     1       6.678   4.483  15.887  0.00  0.00    +0.000 A 
ATOM      5  N   UNL     1       7.918   4.205  16.310  0.00  0.00    +0.000 NA
ATOM      6  O   UNL     1       7.962   4.617  17.628  0.00  0.00    +0.000 OA
ATOM      7  C   UNL     1       6.758   5.137  17.981  0.00  0.00    +0.000 A 
ATOM      8  C   UNL     1       6.573   5.441  19.411  0.00  0.00    +0.000 C 
ATOM      9  C   UNL     1       5.925   5.174  16.882  0.00  0.00    +0.000 A 
ENDBRANCH   2   9
ENDBRANCH   1   2
BRANCH   1  10
ATOM     10  C   UNL     1       2.237   5.505  17.738  0.00  0.00    +0.000 C 
BRANCH  10  11
ATOM     11  C   UNL     1       2.060   6.705  18.661  0.00  0.00    +0.000 A 
ATOM     12  C   UNL     1       1.955   6.526  20.049  0.00  0.00    +0.000 A 
ATOM     13  C   UNL     1       1.635   7.601  20.880  0.00  0.00    +0.000 A 
ATOM     14  C   UNL     1       1.433   8.869  20.338  0.00  0.00    +0.000 A 
ATOM     15  C   UNL     1       1.588   9.070  18.967  0.00  0.00    +0.000 A 
ATOM     16  C   UNL     1       1.909   7.997  18.133  0.00  0.00    +0.000 A 
ENDBRANCH  10  11
ENDBRANCH   1  10
BRANCH   1  17
ATOM     17  C   UNL     1       3.556   3.474  17.448  0.00  0.00    +0.000 C 
BRANCH  17  18
ATOM     18  C   UNL     1       3.841   2.462  18.595  0.00  0.00    +0.000 C 
BRANCH  18  19
ATOM     19  C   UNL     1       2.834   2.618  19.689  0.00  0.00    +0.000 A 
ATOM     20  C   UNL     1       1.462   2.533  19.752  0.00  0.00    +0.000 A 
ATOM     21  C   UNL     1       1.108   2.786  21.096  0.00  0.00    +0.000 A 
ATOM     22  C   UNL     1       2.281   3.027  21.769  0.00  0.00    +0.000 A 
ATOM     23  O   UNL     1       3.336   2.938  20.923  0.00  0.00    +0.000 OA
ENDBRANCH  18  19
BRANCH  18  24
ATOM     24  O   UNL     1       3.721   1.107  18.157  0.00  0.00    +0.000 OA
ATOM     25  H   UNL     1       4.389   0.602  18.655  0.00  0.00    +0.000 HD
ENDBRANCH  18  24
ENDBRANCH  17  18
ENDBRANCH   1  17
TORSDOF 8
ENDMDL
MODEL 8
REMARK VINA RESULT:      -7.6      0.850      2.141
REMARK  Name = 
REMARK  10 active torsions:
REMARK  status: ('A' for Active; 'I' for Inactive)
REMARK    1  A    between atoms: C_1  and  C_2
REMARK    2  A    between atoms: C_5  and  C_6
REMARK    3  A    between atoms: C_7  and  C_8
REMARK    4  A    between atoms: C_8  and  N_9
REMARK    5  A    between atoms: N_9  and  C_10
REMARK    6  A    between atoms: N_9  and  C_17
REMARK    7  A    between atoms: C_10  and  C_11
REMARK    8  A    between atoms: C_17  and  C_18
REMARK    9  A    between atoms: C_18  and  O_19
REMARK   10  A    between atoms: C_18  and  C_20
REMARK                            x       y       z     vdW  Elec       q    Type
REMARK                         _______ _______ _______ _____ _____    ______ ____
ROOT
ATOM      1  N   UNL     1       4.271   4.688  18.059  0.00  0.00    +0.000 NA
ENDROOT
BRANCH   1   2
ATOM      2  C   UNL     1       5.689   4.263  18.015  0.00  0.00    +0.000 C 
BRANCH   2   9
ATOM      3  C   UNL     1       7.544   6.915  18.395  0.00  0.00    +0.000 C 
ATOM      4  C   UNL     1       7.331   6.115  17.166  0.00  0.00    +0.000 A 
ATOM      5  N   UNL     1       7.881   6.511  16.011  0.00  0.00    +0.000 NA
ATOM      6  O   UNL     1       7.334   5.696  15.039  0.00  0.00    +0.000 OA
ATOM      7  C   UNL     1       6.468   4.822  15.615  0.00  0.00    +0.000 A 
ATOM      8  C   UNL     1       5.650   4.013  14.695  0.00  0.00    +0.000 C 
ATOM      9  C   UNL     1       6.499   4.970  16.986  0.00  0.00    +0.000 A 
ENDBRANCH   2   9
ENDBRANCH   1   2
BRANCH   1  10
ATOM     10  C   UNL     1       4.081   6.029  17.439  0.00  0.00    +0.000 C 
BRANCH  10  11
ATOM     11  C   UNL     1       3.082   6.902  18.187  0.00  0.00    +0.000 A 
ATOM     12  C   UNL     1       2.625   8.103  17.624  0.00  0.00    +0.000 A 
ATOM     13  C   UNL     1       1.836   8.981  18.369  0.00  0.00    +0.000 A 
ATOM     14  C   UNL     1       1.481   8.662  19.679  0.00  0.00    +0.000 A 
ATOM     15  C   UNL     1       1.883   7.447  20.231  0.00  0.00    +0.000 A 
ATOM     16  C   UNL     1       2.671   6.566  19.488  0.00  0.00    +0.000 A 
ENDBRANCH  10  11
ENDBRANCH   1  10
BRANCH   1  17
ATOM     17  C   UNL     1       3.428   3.681  17.339  0.00  0.00    +0.000 C 
BRANCH  17  18
ATOM     18  C   UNL     1       3.024   2.387  18.102  0.00  0.00    +0.000 C 
BRANCH  18  19
ATOM     19  C   UNL     1       2.567   2.721  19.487  0.00  0.00    +0.000 A 
ATOM     20  C   UNL     1       3.125   2.599  20.739  0.00  0.00    +0.000 A 
ATOM     21  C   UNL     1       2.173   3.105  21.651  0.00  0.00    +0.000 A 
ATOM     22  C   UNL     1       1.085   3.490  20.905  0.00  0.00    +0.000 A 
ATOM     23  O   UNL     1       1.309   3.252  19.589  0.00  0.00    +0.000 OA
ENDBRANCH  18  19
BRANCH  18  24
ATOM     24  O   UNL     1       1.918   1.724  17.487  0.00  0.00    +0.000 OA
ATOM     25  H   UNL     1       2.275   1.279  16.697  0.00  0.00    +0.000 HD
ENDBRANCH  18  24
ENDBRANCH  17  18
ENDBRANCH   1  17
TORSDOF 8
ENDMDL
MODEL 9
REMARK VINA RESULT:      -7.6      1.259      2.011
REMARK  Name = 
REMARK  10 active torsions:
REMARK  status: ('A' for Active; 'I' for Inactive)
REMARK    1  A    between atoms: C_1  and  C_2
REMARK    2  A    between atoms: C_5  and  C_6
REMARK    3  A    between atoms: C_7  and  C_8
REMARK    4  A    between atoms: C_8  and  N_9
REMARK    5  A    between atoms: N_9  and  C_10
REMARK    6  A    between atoms: N_9  and  C_17
REMARK    7  A    between atoms: C_10  and  C_11
REMARK    8  A    between atoms: C_17  and  C_18
REMARK    9  A    between atoms: C_18  and  O_19
REMARK   10  A    between atoms: C_18  and  C_20
REMARK                            x       y       z     vdW  Elec       q    Type
REMARK                         _______ _______ _______ _____ _____    ______ ____
ROOT
ATOM      1  N   UNL     1       4.189   5.827  18.351  0.00  0.00    +0.000 NA
ENDROOT
BRANCH   1   2
ATOM      2  C   UNL     1       5.157   6.544  17.489  0.00  0.00    +0.000 C 
BRANCH   2   9
ATOM      3  C   UNL     1       5.525   4.718  14.815  0.00  0.00    +0.000 C 
ATOM      4  C   UNL     1       6.499   4.949  15.908  0.00  0.00    +0.000 A 
ATOM      5  N   UNL     1       7.672   4.303  15.900  0.00  0.00    +0.000 NA
ATOM      6  O   UNL     1       8.249   4.562  17.127  0.00  0.00    +0.000 OA
ATOM      7  C   UNL     1       7.423   5.357  17.857  0.00  0.00    +0.000 A 
ATOM      8  C   UNL     1       7.797   5.565  19.267  0.00  0.00    +0.000 C 
ATOM      9  C   UNL     1       6.334   5.723  17.094  0.00  0.00    +0.000 A 
ENDBRANCH   2   9
ENDBRANCH   1   2
BRANCH   1  10
ATOM     10  C   UNL     1       2.784   6.082  17.927  0.00  0.00    +0.000 C 
BRANCH  10  11
ATOM     11  C   UNL     1       2.110   7.197  18.716  0.00  0.00    +0.000 A 
ATOM     12  C   UNL     1       1.783   8.412  18.095  0.00  0.00    +0.000 A 
ATOM     13  C   UNL     1       1.312   9.489  18.849  0.00  0.00    +0.000 A 
ATOM     14  C   UNL     1       1.147   9.361  20.227  0.00  0.00    +0.000 A 
ATOM     15  C   UNL     1       1.416   8.141  20.847  0.00  0.00    +0.000 A 
ATOM     16  C   UNL     1       1.886   7.061  20.097  0.00  0.00    +0.000 A 
ENDBRANCH  10  11
ENDBRANCH   1  10
BRANCH   1  17
ATOM     17  C   UNL     1       4.468   4.356  18.296  0.00  0.00    +0.000 C 
BRANCH  17  18
ATOM     18  C   UNL     1       4.464   3.561  19.632  0.00  0.00    +0.000 C 
BRANCH  18  19
ATOM     19  C   UNL     1       3.061   3.294  20.075  0.00  0.00    +0.000 A 
ATOM     20  C   UNL     1       2.371   3.480  21.251  0.00  0.00    +0.000 A 
ATOM     21  C   UNL     1       1.057   3.018  21.020  0.00  0.00    +0.000 A 
ATOM     22  C   UNL     1       1.026   2.562  19.724  0.00  0.00    +0.000 A 
ATOM     23  O   UNL     1       2.240   2.715  19.143  0.00  0.00    +0.000 OA
ENDBRANCH  18  19
BRANCH  18  24
ATOM     24  O   UNL     1       5.070   2.275  19.494  0.00  0.00    +0.000 OA
ATOM     25  H   UNL     1       5.192   2.135  18.538  0.00  0.00    +0.000 HD
ENDBRANCH  18  24
ENDBRANCH  17  18
ENDBRANCH   1  17
TORSDOF 8
ENDMDL
