MODEL 1
REMARK VINA RESULT:      -6.3      0.000      0.000
REMARK  Name = 
REMARK  9 active torsions:
REMARK  status: ('A' for Active; 'I' for Inactive)
REMARK    1  A    between atoms: C_1  and  C_2
REMARK    2  A    between atoms: C_2  and  O_3
REMARK    3  A    between atoms: O_3  and  C_4
REMARK    4  A    between atoms: C_4  and  C_6
REMARK    5  A    between atoms: C_6  and  S_7
REMARK    6  A    between atoms: S_7  and  C_8
REMARK    7  A    between atoms: C_10  and  C_11
REMARK    8  A    between atoms: C_14  and  O_15
REMARK    9  A    between atoms: O_15  and  C_16
REMARK                            x       y       z     vdW  Elec       q    Type
REMARK                         _______ _______ _______ _____ _____    ______ ____
ROOT
ATOM      1  C   UNL     1       4.550   4.476  17.043  0.00  0.00    +0.000 A 
ATOM      2  N   UNL     1       4.054   5.681  17.204  0.00  0.00    +0.000 NA
ATOM      3  C   UNL     1       3.168   5.661  18.290  0.00  0.00    +0.000 A 
ATOM      4  N   UNL     1       2.982   4.501  18.936  0.00  0.00    +0.000 NA
ATOM      5  S   UNL     1       3.908   3.351  18.162  0.00  0.00    +0.000 S 
ENDROOT
BRANCH   3   6
ATOM      6  C   UNL     1       2.503   6.897  18.717  0.00  0.00    +0.000 A 
ATOM      7  C   UNL     1       2.269   7.939  17.809  0.00  0.00    +0.000 A 
ATOM      8  C   UNL     1       1.653   9.122  18.233  0.00  0.00    +0.000 A 
ATOM      9  C   UNL     1       1.250   9.280  19.559  0.00  0.00    +0.000 A 
ATOM     10  C   UNL     1       1.483   8.255  20.474  0.00  0.00    +0.000 A 
ATOM     11  C   UNL     1       2.100   7.070  20.051  0.00  0.00    +0.000 A 
BRANCH   9  12
ATOM     12  O   UNL     1       0.687  10.493  19.856  0.00  0.00    +0.000 OA
ATOM     13  C   UNL     1      -0.635  10.704  19.367  0.00  0.00    +0.000 C 
ENDBRANCH   9  12
ENDBRANCH   3   6
BRANCH   1  14
ATOM     14  S   UNL     1       5.743   4.097  15.826  0.00  0.00    +0.000 S 
BRANCH  14  15
ATOM     15  C   UNL     1       7.011   5.363  16.187  0.00  0.00    +0.000 C 
BRANCH  15  16
ATOM     16  C   UNL     1       7.490   5.274  17.616  0.00  0.00    +0.000 C 
ATOM     17  O   UNL     1       7.988   4.273  18.126  0.00  0.00    +0.000 OA
BRANCH  16  18
ATOM     18  O   UNL     1       7.264   6.448  18.275  0.00  0.00    +0.000 OA
BRANCH  18  20
ATOM     19  C   UNL     1       8.163   8.693  17.900  0.00  0.00    +0.000 C 
ATOM     20  C   UNL     1       7.226   7.603  17.425  0.00  0.00    +0.000 C 
ENDBRANCH  18  20
ENDBRANCH  16  18
ENDBRANCH  15  16
ENDBRANCH  14  15
ENDBRANCH   1  14
TORSDOF 7
ENDMDL
MODEL 2
REMARK VINA RESULT:      -6.2      2.247      3.072
REMARK  Name = 
REMARK  9 active torsions:
REMARK  status: ('A' for Active; 'I' for Inactive)
REMARK    1  A    between atoms: C_1  and  C_2
REMARK    2  A    between atoms: C_2  and  O_3
REMARK    3  A    between atoms: O_3  and  C_4
REMARK    4  A    between atoms: C_4  and  C_6
REMARK    5  A    between atoms: C_6  and  S_7
REMARK    6  A    between atoms: S_7  and  C_8
REMARK    7  A    between atoms: C_10  and  C_11
REMARK    8  A    between atoms: C_14  and  O_15
REMARK    9  A    between atoms: O_15  and  C_16
REMARK                            x       y       z     vdW  Elec       q    Type
REMARK                         _______ _______ _______ _____ _____    ______ ____
ROOT
ATOM      1  C   UNL     1       4.870   5.021  18.095  0.00  0.00    +0.000 A 
ATOM      2  N   UNL     1       4.262   6.176  17.952  0.00  0.00    +0.000 NA
ATOM      3  C   UNL     1       3.212   6.248  18.878  0.00  0.00    +0.000 A 
ATOM      4  N   UNL     1       3.012   5.203  19.694  0.00  0.00    +0.000 NA
ATOM      5  S   UNL     1       4.141   4.043  19.294  0.00  0.00    +0.000 S 
ENDROOT
BRANCH   3   6
ATOM      6  C   UNL     1       2.391   7.461  18.964  0.00  0.00    +0.000 A 
ATOM      7  C   UNL     1       2.200   8.281  17.844  0.00  0.00    +0.000 A 
ATOM      8  C   UNL     1       1.432   9.447  17.942  0.00  0.00    +0.000 A 
ATOM      9  C   UNL     1       0.834   9.806  19.151  0.00  0.00    +0.000 A 
ATOM     10  C   UNL     1       1.022   9.003  20.274  0.00  0.00    +0.000 A 
ATOM     11  C   UNL     1       1.791   7.835  20.177  0.00  0.00    +0.000 A 
BRANCH   9  12
ATOM     12  O   UNL     1       0.133  10.983  19.127  0.00  0.00    +0.000 OA
ATOM     13  C   UNL     1      -1.179  10.918  18.574  0.00  0.00    +0.000 C 
ENDBRANCH   9  12
ENDBRANCH   3   6
BRANCH   1  14
ATOM     14  S   UNL     1       6.275   4.570  17.161  0.00  0.00    +0.000 S 
BRANCH  14  15
ATOM     15  C   UNL     1       5.851   5.291  15.537  0.00  0.00    +0.000 C 
BRANCH  15  16
ATOM     16  C   UNL     1       6.805   4.831  14.461  0.00  0.00    +0.000 C 
ATOM     17  O   UNL     1       7.837   5.417  14.143  0.00  0.00    +0.000 OA
BRANCH  16  18
ATOM     18  O   UNL     1       6.347   3.691  13.866  0.00  0.00    +0.000 OA
BRANCH  18  20
ATOM     19  C   UNL     1       5.097   3.081  11.852  0.00  0.00    +0.000 C 
ATOM     20  C   UNL     1       6.331   3.740  12.433  0.00  0.00    +0.000 C 
ENDBRANCH  18  20
ENDBRANCH  16  18
ENDBRANCH  15  16
ENDBRANCH  14  15
ENDBRANCH   1  14
TORSDOF 7
ENDMDL
MODEL 3
REMARK VINA RESULT:      -6.2      0.764      1.340
REMARK  Name = 
REMARK  9 active torsions:
REMARK  status: ('A' for Active; 'I' for Inactive)
REMARK    1  A    between atoms: C_1  and  C_2
REMARK    2  A    between atoms: C_2  and  O_3
REMARK    3  A    between atoms: O_3  and  C_4
REMARK    4  A    between atoms: C_4  and  C_6
REMARK    5  A    between atoms: C_6  and  S_7
REMARK    6  A    between atoms: S_7  and  C_8
REMARK    7  A    between atoms: C_10  and  C_11
REMARK    8  A    between atoms: C_14  and  O_15
REMARK    9  A    between atoms: O_15  and  C_16
REMARK                            x       y       z     vdW  Elec       q    Type
REMARK                         _______ _______ _______ _____ _____    ______ ____
ROOT
ATOM      1  C   UNL     1       4.655   4.919  17.344  0.00  0.00    +0.000 A 
ATOM      2  N   UNL     1       4.028   6.073  17.360  0.00  0.00    +0.000 NA
ATOM      3  C   UNL     1       3.239   6.138  18.517  0.00  0.00    +0.000 A 
ATOM      4  N   UNL     1       3.248   5.090  19.352  0.00  0.00    +0.000 NA
ATOM      5  S   UNL     1       4.245   3.934  18.682  0.00  0.00    +0.000 S 
ENDROOT
BRANCH   3   6
ATOM      6  C   UNL     1       2.462   7.349  18.807  0.00  0.00    +0.000 A 
ATOM      7  C   UNL     1       1.962   7.591  20.094  0.00  0.00    +0.000 A 
ATOM      8  C   UNL     1       1.204   8.738  20.355  0.00  0.00    +0.000 A 
ATOM      9  C   UNL     1       0.945   9.666  19.345  0.00  0.00    +0.000 A 
ATOM     10  C   UNL     1       1.431   9.434  18.060  0.00  0.00    +0.000 A 
ATOM     11  C   UNL     1       2.190   8.285  17.797  0.00  0.00    +0.000 A 
BRANCH   9  12
ATOM     12  O   UNL     1       0.168  10.731  19.717  0.00  0.00    +0.000 OA
ATOM     13  C   UNL     1      -0.577  11.356  18.676  0.00  0.00    +0.000 C 
ENDBRANCH   9  12
ENDBRANCH   3   6
BRANCH   1  14
ATOM     14  S   UNL     1       5.787   4.475  16.091  0.00  0.00    +0.000 S 
BRANCH  14  15
ATOM     15  C   UNL     1       7.353   4.473  17.033  0.00  0.00    +0.000 C 
BRANCH  15  16
ATOM     16  C   UNL     1       7.539   5.761  17.798  0.00  0.00    +0.000 C 
ATOM     17  O   UNL     1       7.520   5.857  19.023  0.00  0.00    +0.000 OA
BRANCH  16  18
ATOM     18  O   UNL     1       7.700   6.811  16.942  0.00  0.00    +0.000 OA
BRANCH  18  20
ATOM     19  C   UNL     1       8.288   8.938  18.001  0.00  0.00    +0.000 C 
ATOM     20  C   UNL     1       7.192   8.059  17.437  0.00  0.00    +0.000 C 
ENDBRANCH  18  20
ENDBRANCH  16  18
ENDBRANCH  15  16
ENDBRANCH  14  15
ENDBRANCH   1  14
TORSDOF 7
ENDMDL
MODEL 4
REMARK VINA RESULT:      -6.2      1.385      1.917
REMARK  Name = 
REMARK  9 active torsions:
REMARK  status: ('A' for Active; 'I' for Inactive)
REMARK    1  A    between atoms: C_1  and  C_2
REMARK    2  A    between atoms: C_2  and  O_3
REMARK    3  A    between atoms: O_3  and  C_4
REMARK    4  A    between atoms: C_4  and  C_6
REMARK    5  A    between atoms: C_6  and  S_7
REMARK    6  A    between atoms: S_7  and  C_8
REMARK    7  A    between atoms: C_10  and  C_11
REMARK    8  A    between atoms: C_14  and  O_15
REMARK    9  A    between atoms: O_15  and  C_16
REMARK                            x       y       z     vdW  Elec       q    Type
REMARK                         _______ _______ _______ _____ _____    ______ ____
ROOT
ATOM      1  C   UNL     1       4.884   5.059  18.279  0.00  0.00    +0.000 A 
ATOM      2  N   UNL     1       4.341   6.254  18.217  0.00  0.00    +0.000 NA
ATOM      3  C   UNL     1       3.126   6.231  18.916  0.00  0.00    +0.000 A 
ATOM      4  N   UNL     1       2.743   5.080  19.486  0.00  0.00    +0.000 NA
ATOM      5  S   UNL     1       3.905   3.940  19.126  0.00  0.00    +0.000 S 
ENDROOT
BRANCH   3   6
ATOM      6  C   UNL     1       2.329   7.457  19.042  0.00  0.00    +0.000 A 
ATOM      7  C   UNL     1       1.780   7.834  20.275  0.00  0.00    +0.000 A 
ATOM      8  C   UNL     1       1.004   8.993  20.380  0.00  0.00    +0.000 A 
ATOM      9  C   UNL     1       0.774   9.800  19.264  0.00  0.00    +0.000 A 
ATOM     10  C   UNL     1       1.309   9.433  18.031  0.00  0.00    +0.000 A 
ATOM     11  C   UNL     1       2.086   8.272  17.925  0.00  0.00    +0.000 A 
BRANCH   9  12
ATOM     12  O   UNL     1      -0.024  10.890  19.488  0.00  0.00    +0.000 OA
ATOM     13  C   UNL     1      -0.982  11.182  18.475  0.00  0.00    +0.000 C 
ENDBRANCH   9  12
ENDBRANCH   3   6
BRANCH   1  14
ATOM     14  S   UNL     1       6.440   4.690  17.579  0.00  0.00    +0.000 S 
BRANCH  14  15
ATOM     15  C   UNL     1       7.519   5.809  18.539  0.00  0.00    +0.000 C 
BRANCH  15  16
ATOM     16  C   UNL     1       7.707   7.133  17.837  0.00  0.00    +0.000 C 
ATOM     17  O   UNL     1       7.258   7.406  16.727  0.00  0.00    +0.000 OA
BRANCH  16  18
ATOM     18  O   UNL     1       8.474   7.973  18.591  0.00  0.00    +0.000 OA
BRANCH  18  20
ATOM     19  C   UNL     1       9.151  10.262  19.131  0.00  0.00    +0.000 C 
ATOM     20  C   UNL     1       8.456   9.339  18.153  0.00  0.00    +0.000 C 
ENDBRANCH  18  20
ENDBRANCH  16  18
ENDBRANCH  15  16
ENDBRANCH  14  15
ENDBRANCH   1  14
TORSDOF 7
ENDMDL
MODEL 5
REMARK VINA RESULT:      -6.2      2.267      3.259
REMARK  Name = 
REMARK  9 active torsions:
REMARK  status: ('A' for Active; 'I' for Inactive)
REMARK    1  A    between atoms: C_1  and  C_2
REMARK    2  A    between atoms: C_2  and  O_3
REMARK    3  A    between atoms: O_3  and  C_4
REMARK    4  A    between atoms: C_4  and  C_6
REMARK    5  A    between atoms: C_6  and  S_7
REMARK    6  A    between atoms: S_7  and  C_8
REMARK    7  A    between atoms: C_10  and  C_11
REMARK    8  A    between atoms: C_14  and  O_15
REMARK    9  A    between atoms: O_15  and  C_16
REMARK                            x       y       z     vdW  Elec       q    Type
REMARK                         _______ _______ _______ _____ _____    ______ ____
ROOT
ATOM      1  C   UNL     1       4.433   4.736  17.469  0.00  0.00    +0.000 A 
ATOM      2  N   UNL     1       3.646   5.786  17.391  0.00  0.00    +0.000 NA
ATOM      3  C   UNL     1       3.344   6.216  18.691  0.00  0.00    +0.000 A 
ATOM      4  N   UNL     1       3.865   5.537  19.722  0.00  0.00    +0.000 NA
ATOM      5  S   UNL     1       4.746   4.273  19.086  0.00  0.00    +0.000 S 
ENDROOT
BRANCH   3   6
ATOM      6  C   UNL     1       2.512   7.408  18.894  0.00  0.00    +0.000 A 
ATOM      7  C   UNL     1       1.914   7.664  20.135  0.00  0.00    +0.000 A 
ATOM      8  C   UNL     1       1.105   8.792  20.312  0.00  0.00    +0.000 A 
ATOM      9  C   UNL     1       0.889   9.686  19.262  0.00  0.00    +0.000 A 
ATOM     10  C   UNL     1       1.472   9.439  18.020  0.00  0.00    +0.000 A 
ATOM     11  C   UNL     1       2.283   8.309  17.843  0.00  0.00    +0.000 A 
BRANCH   9  12
ATOM     12  O   UNL     1       0.056  10.734  19.550  0.00  0.00    +0.000 OA
ATOM     13  C   UNL     1       0.103  11.219  20.890  0.00  0.00    +0.000 C 
ENDBRANCH   9  12
ENDBRANCH   3   6
BRANCH   1  14
ATOM     14  S   UNL     1       5.084   3.936  16.060  0.00  0.00    +0.000 S 
BRANCH  14  15
ATOM     15  C   UNL     1       6.546   4.979  15.722  0.00  0.00    +0.000 C 
BRANCH  15  16
ATOM     16  C   UNL     1       7.060   4.772  14.317  0.00  0.00    +0.000 C 
ATOM     17  O   UNL     1       7.811   5.543  13.726  0.00  0.00    +0.000 OA
BRANCH  16  18
ATOM     18  O   UNL     1       6.547   3.627  13.780  0.00  0.00    +0.000 OA
BRANCH  18  20
ATOM     19  C   UNL     1       4.943   3.384  11.947  0.00  0.00    +0.000 C 
ATOM     20  C   UNL     1       6.373   3.670  12.357  0.00  0.00    +0.000 C 
ENDBRANCH  18  20
ENDBRANCH  16  18
ENDBRANCH  15  16
ENDBRANCH  14  15
ENDBRANCH   1  14
TORSDOF 7
ENDMDL
MODEL 6
REMARK VINA RESULT:      -6.2      0.827      1.382
REMARK  Name = 
REMARK  9 active torsions:
REMARK  status: ('A' for Active; 'I' for Inactive)
REMARK    1  A    between atoms: C_1  and  C_2
REMARK    2  A    between atoms: C_2  and  O_3
REMARK    3  A    between atoms: O_3  and  C_4
REMARK    4  A    between atoms: C_4  and  C_6
REMARK    5  A    between atoms: C_6  and  S_7
REMARK    6  A    between atoms: S_7  and  C_8
REMARK    7  A    between atoms: C_10  and  C_11
REMARK    8  A    between atoms: C_14  and  O_15
REMARK    9  A    between atoms: O_15  and  C_16
REMARK                            x       y       z     vdW  Elec       q    Type
REMARK                         _______ _______ _______ _____ _____    ______ ____
ROOT
ATOM      1  C   UNL     1       4.326   4.100  17.008  0.00  0.00    +0.000 A 
ATOM      2  N   UNL     1       3.861   5.320  17.151  0.00  0.00    +0.000 NA
ATOM      3  C   UNL     1       3.142   5.387  18.353  0.00  0.00    +0.000 A 
ATOM      4  N   UNL     1       3.050   4.279  19.101  0.00  0.00    +0.000 NA
ATOM      5  S   UNL     1       3.851   3.065  18.286  0.00  0.00    +0.000 S 
ENDROOT
BRANCH   3   6
ATOM      6  C   UNL     1       2.548   6.659  18.782  0.00  0.00    +0.000 A 
ATOM      7  C   UNL     1       2.163   6.859  20.114  0.00  0.00    +0.000 A 
ATOM      8  C   UNL     1       1.578   8.068  20.509  0.00  0.00    +0.000 A 
ATOM      9  C   UNL     1       1.381   9.097  19.587  0.00  0.00    +0.000 A 
ATOM     10  C   UNL     1       1.753   8.909  18.258  0.00  0.00    +0.000 A 
ATOM     11  C   UNL     1       2.339   7.698  17.862  0.00  0.00    +0.000 A 
BRANCH   9  12
ATOM     12  O   UNL     1       0.773  10.218  20.088  0.00  0.00    +0.000 OA
ATOM     13  C   UNL     1      -0.125  10.010  21.175  0.00  0.00    +0.000 C 
ENDBRANCH   9  12
ENDBRANCH   3   6
BRANCH   1  14
ATOM     14  S   UNL     1       5.330   3.622  15.661  0.00  0.00    +0.000 S 
BRANCH  14  15
ATOM     15  C   UNL     1       6.195   5.192  15.308  0.00  0.00    +0.000 C 
BRANCH  15  16
ATOM     16  C   UNL     1       7.387   5.384  16.215  0.00  0.00    +0.000 C 
ATOM     17  O   UNL     1       7.974   4.477  16.799  0.00  0.00    +0.000 OA
BRANCH  16  18
ATOM     18  O   UNL     1       7.701   6.707  16.324  0.00  0.00    +0.000 OA
BRANCH  18  20
ATOM     19  C   UNL     1       8.043   8.603  17.834  0.00  0.00    +0.000 C 
ATOM     20  C   UNL     1       7.310   7.305  17.568  0.00  0.00    +0.000 C 
ENDBRANCH  18  20
ENDBRANCH  16  18
ENDBRANCH  15  16
ENDBRANCH  14  15
ENDBRANCH   1  14
TORSDOF 7
ENDMDL
MODEL 7
REMARK VINA RESULT:      -6.1      2.461      3.267
REMARK  Name = 
REMARK  9 active torsions:
REMARK  status: ('A' for Active; 'I' for Inactive)
REMARK    1  A    between atoms: C_1  and  C_2
REMARK    2  A    between atoms: C_2  and  O_3
REMARK    3  A    between atoms: O_3  and  C_4
REMARK    4  A    between atoms: C_4  and  C_6
REMARK    5  A    between atoms: C_6  and  S_7
REMARK    6  A    between atoms: S_7  and  C_8
REMARK    7  A    between atoms: C_10  and  C_11
REMARK    8  A    between atoms: C_14  and  O_15
REMARK    9  A    between atoms: O_15  and  C_16
REMARK                            x       y       z     vdW  Elec       q    Type
REMARK                         _______ _______ _______ _____ _____    ______ ____
ROOT
ATOM      1  C   UNL     1       4.965   4.654  17.212  0.00  0.00    +0.000 A 
ATOM      2  N   UNL     1       4.494   5.852  17.473  0.00  0.00    +0.000 NA
ATOM      3  C   UNL     1       3.322   5.718  18.230  0.00  0.00    +0.000 A 
ATOM      4  N   UNL     1       2.901   4.482  18.536  0.00  0.00    +0.000 NA
ATOM      5  S   UNL     1       3.969   3.410  17.837  0.00  0.00    +0.000 S 
ENDROOT
BRANCH   3   6
ATOM      6  C   UNL     1       2.610   6.913  18.698  0.00  0.00    +0.000 A 
ATOM      7  C   UNL     1       2.380   7.996  17.839  0.00  0.00    +0.000 A 
ATOM      8  C   UNL     1       1.720   9.139  18.302  0.00  0.00    +0.000 A 
ATOM      9  C   UNL     1       1.267   9.216  19.620  0.00  0.00    +0.000 A 
ATOM     10  C   UNL     1       1.495   8.149  20.486  0.00  0.00    +0.000 A 
ATOM     11  C   UNL     1       2.157   7.003  20.023  0.00  0.00    +0.000 A 
BRANCH   9  12
ATOM     12  O   UNL     1       0.662  10.397  19.960  0.00  0.00    +0.000 OA
ATOM     13  C   UNL     1       0.661  11.410  18.958  0.00  0.00    +0.000 C 
ENDBRANCH   9  12
ENDBRANCH   3   6
BRANCH   1  14
ATOM     14  S   UNL     1       6.454   4.392  16.338  0.00  0.00    +0.000 S 
BRANCH  14  15
ATOM     15  C   UNL     1       5.849   4.439  14.614  0.00  0.00    +0.000 C 
BRANCH  15  16
ATOM     16  C   UNL     1       6.962   4.764  13.647  0.00  0.00    +0.000 C 
ATOM     17  O   UNL     1       7.910   5.504  13.894  0.00  0.00    +0.000 OA
BRANCH  16  18
ATOM     18  O   UNL     1       6.753   4.147  12.447  0.00  0.00    +0.000 OA
BRANCH  18  20
ATOM     19  C   UNL     1       4.677   3.285  11.478  0.00  0.00    +0.000 C 
ATOM     20  C   UNL     1       5.786   3.088  12.490  0.00  0.00    +0.000 C 
ENDBRANCH  18  20
ENDBRANCH  16  18
ENDBRANCH  15  16
ENDBRANCH  14  15
ENDBRANCH   1  14
TORSDOF 7
ENDMDL
MODEL 8
REMARK VINA RESULT:      -6.0      1.800      2.625
REMARK  Name = 
REMARK  9 active torsions:
REMARK  status: ('A' for Active; 'I' for Inactive)
REMARK    1  A    between atoms: C_1  and  C_2
REMARK    2  A    between atoms: C_2  and  O_3
REMARK    3  A    between atoms: O_3  and  C_4
REMARK    4  A    between atoms: C_4  and  C_6
REMARK    5  A    between atoms: C_6  and  S_7
REMARK    6  A    between atoms: S_7  and  C_8
REMARK    7  A    between atoms: C_10  and  C_11
REMARK    8  A    between atoms: C_14  and  O_15
REMARK    9  A    between atoms: O_15  and  C_16
REMARK                            x       y       z     vdW  Elec       q    Type
REMARK                         _______ _______ _______ _____ _____    ______ ____
ROOT
ATOM      1  C   UNL     1       3.956   4.981  19.401  0.00  0.00    +0.000 A 
ATOM      2  N   UNL     1       3.660   6.237  19.157  0.00  0.00    +0.000 NA
ATOM      3  C   UNL     1       2.413   6.523  19.730  0.00  0.00    +0.000 A 
ATOM      4  N   UNL     1       1.773   5.541  20.381  0.00  0.00    +0.000 NA
ATOM      5  S   UNL     1       2.718   4.173  20.262  0.00  0.00    +0.000 S 
ENDROOT
BRANCH   3   6
ATOM      6  C   UNL     1       1.860   7.880  19.644  0.00  0.00    +0.000 A 
ATOM      7  C   UNL     1       1.296   8.499  20.768  0.00  0.00    +0.000 A 
ATOM      8  C   UNL     1       0.751   9.784  20.670  0.00  0.00    +0.000 A 
ATOM      9  C   UNL     1       0.773  10.476  19.458  0.00  0.00    +0.000 A 
ATOM     10  C   UNL     1       1.325   9.870  18.332  0.00  0.00    +0.000 A 
ATOM     11  C   UNL     1       1.870   8.582  18.429  0.00  0.00    +0.000 A 
BRANCH   9  12
ATOM     12  O   UNL     1       0.184  11.713  19.483  0.00  0.00    +0.000 OA
ATOM     13  C   UNL     1      -0.833  11.940  18.511  0.00  0.00    +0.000 C 
ENDBRANCH   9  12
ENDBRANCH   3   6
BRANCH   1  14
ATOM     14  S   UNL     1       5.462   4.250  18.903  0.00  0.00    +0.000 S 
BRANCH  14  15
ATOM     15  C   UNL     1       6.095   5.524  17.755  0.00  0.00    +0.000 C 
BRANCH  15  16
ATOM     16  C   UNL     1       7.251   5.003  16.935  0.00  0.00    +0.000 C 
ATOM     17  O   UNL     1       8.105   4.221  17.345  0.00  0.00    +0.000 OA
BRANCH  16  18
ATOM     18  O   UNL     1       7.236   5.546  15.683  0.00  0.00    +0.000 OA
BRANCH  18  20
ATOM     19  C   UNL     1       6.201   3.931  14.163  0.00  0.00    +0.000 C 
ATOM     20  C   UNL     1       6.062   5.236  14.919  0.00  0.00    +0.000 C 
ENDBRANCH  18  20
ENDBRANCH  16  18
ENDBRANCH  15  16
ENDBRANCH  14  15
ENDBRANCH   1  14
TORSDOF 7
ENDMDL
MODEL 9
REMARK VINA RESULT:      -6.0      1.228      1.489
REMARK  Name = 
REMARK  9 active torsions:
REMARK  status: ('A' for Active; 'I' for Inactive)
REMARK    1  A    between atoms: C_1  and  C_2
REMARK    2  A    between atoms: C_2  and  O_3
REMARK    3  A    between atoms: O_3  and  C_4
REMARK    4  A    between atoms: C_4  and  C_6
REMARK    5  A    between atoms: C_6  and  S_7
REMARK    6  A    between atoms: S_7  and  C_8
REMARK    7  A    between atoms: C_10  and  C_11
REMARK    8  A    between atoms: C_14  and  O_15
REMARK    9  A    between atoms: O_15  and  C_16
REMARK                            x       y       z     vdW  Elec       q    Type
REMARK                         _______ _______ _______ _____ _____    ______ ____
ROOT
ATOM      1  C   UNL     1       4.157   4.202  17.461  0.00  0.00    +0.000 A 
ATOM      2  N   UNL     1       3.636   5.407  17.496  0.00  0.00    +0.000 NA
ATOM      3  C   UNL     1       3.034   5.600  18.747  0.00  0.00    +0.000 A 
ATOM      4  N   UNL     1       3.080   4.597  19.636  0.00  0.00    +0.000 NA
ATOM      5  S   UNL     1       3.870   3.324  18.902  0.00  0.00    +0.000 S 
ENDROOT
BRANCH   3   6
ATOM      6  C   UNL     1       2.410   6.888  19.071  0.00  0.00    +0.000 A 
ATOM      7  C   UNL     1       2.288   7.892  18.101  0.00  0.00    +0.000 A 
ATOM      8  C   UNL     1       1.711   9.125  18.425  0.00  0.00    +0.000 A 
ATOM      9  C   UNL     1       1.235   9.371  19.714  0.00  0.00    +0.000 A 
ATOM     10  C   UNL     1       1.356   8.383  20.690  0.00  0.00    +0.000 A 
ATOM     11  C   UNL     1       1.935   7.149  20.365  0.00  0.00    +0.000 A 
BRANCH   9  12
ATOM     12  O   UNL     1       0.720  10.624  19.915  0.00  0.00    +0.000 OA
ATOM     13  C   UNL     1       0.349  11.342  18.742  0.00  0.00    +0.000 C 
ENDBRANCH   9  12
ENDBRANCH   3   6
BRANCH   1  14
ATOM     14  S   UNL     1       5.052   3.597  16.090  0.00  0.00    +0.000 S 
BRANCH  14  15
ATOM     15  C   UNL     1       5.618   5.162  15.336  0.00  0.00    +0.000 C 
BRANCH  15  16
ATOM     16  C   UNL     1       7.123   5.278  15.367  0.00  0.00    +0.000 C 
ATOM     17  O   UNL     1       7.831   5.477  14.383  0.00  0.00    +0.000 OA
BRANCH  16  18
ATOM     18  O   UNL     1       7.594   5.100  16.636  0.00  0.00    +0.000 OA
BRANCH  18  20
ATOM     19  C   UNL     1       7.703   5.880  18.953  0.00  0.00    +0.000 C 
ATOM     20  C   UNL     1       7.348   6.204  17.517  0.00  0.00    +0.000 C 
ENDBRANCH  18  20
ENDBRANCH  16  18
ENDBRANCH  15  16
ENDBRANCH  14  15
ENDBRANCH   1  14
TORSDOF 7
ENDMDL
