MODEL 1
REMARK VINA RESULT:      -8.5      0.000      0.000
REMARK  Name = 
REMARK  8 active torsions:
REMARK  status: ('A' for Active; 'I' for Inactive)
REMARK    1  A    between atoms: C_2  and  O_24
REMARK    2  A    between atoms: N_3  and  C_4
REMARK    3  A    between atoms: C_4  and  C_5
REMARK    4  A    between atoms: C_4  and  C_12
REMARK    5  A    between atoms: C_5  and  C_6
REMARK    6  A    between atoms: N_14  and  C_15
REMARK    7  A    between atoms: O_24  and  C_25
REMARK    8  A    between atoms: C_25  and  C_26
REMARK                            x       y       z     vdW  Elec       q    Type
REMARK                         _______ _______ _______ _____ _____    ______ ____
ROOT
ATOM      1  C   UNL     1       3.034   6.803  18.117  0.00  0.00    +0.000 C 
ENDROOT
BRANCH   1   4
ATOM      2  O   UNL     1       6.415   6.542  17.203  0.00  0.00    +0.000 OA
ATOM      3  C   UNL     1       5.226   6.401  16.936  0.00  0.00    +0.000 C 
ATOM      4  N   UNL     1       4.300   7.206  17.515  0.00  0.00    +0.000 N 
ATOM      5  H   UNL     1       4.741   7.978  18.006  0.00  0.00    +0.000 HD
BRANCH   3   6
ATOM      6  O   UNL     1       4.733   5.584  15.979  0.00  0.00    +0.000 OA
BRANCH   6   7
ATOM      7  C   UNL     1       5.534   4.402  15.799  0.00  0.00    +0.000 C 
BRANCH   7   8
ATOM      8  C   UNL     1       6.131   4.359  14.420  0.00  0.00    +0.000 A 
ATOM      9  C   UNL     1       7.262   5.126  14.115  0.00  0.00    +0.000 A 
ATOM     10  C   UNL     1       7.808   5.097  12.832  0.00  0.00    +0.000 A 
ATOM     11  C   UNL     1       7.226   4.302  11.845  0.00  0.00    +0.000 A 
ATOM     12  C   UNL     1       6.110   3.523  12.142  0.00  0.00    +0.000 A 
ATOM     13  C   UNL     1       5.562   3.550  13.427  0.00  0.00    +0.000 A 
ENDBRANCH   7   8
ENDBRANCH   6   7
ENDBRANCH   3   6
ENDBRANCH   1   4
BRANCH   1  14
ATOM     14  C   UNL     1       2.349   8.113  18.592  0.00  0.00    +0.000 C 
ATOM     15  O   UNL     1       2.076   9.028  17.814  0.00  0.00    +0.000 OA
ATOM     16  N   UNL     1       2.066   8.212  19.937  0.00  0.00    +0.000 N 
ATOM     17  H   UNL     1       2.175   7.379  20.505  0.00  0.00    +0.000 HD
BRANCH  16  18
ATOM     18  C   UNL     1       1.318   9.361  20.543  0.00  0.00    +0.000 C 
ATOM     19  C   UNL     1       1.142   9.352  22.076  0.00  0.00    +0.000 C 
ATOM     20  O   UNL     1       1.873   9.516  23.019  0.00  0.00    +0.000 OA
ATOM     21  N   UNL     1      -0.228   9.372  21.999  0.00  0.00    +0.000 N 
ATOM     22  C   UNL     1      -0.947  10.440  22.668  0.00  0.00    +0.000 C 
ATOM     23  C   UNL     1      -0.795  11.675  21.796  0.00  0.00    +0.000 C 
ATOM     24  S   UNL     1      -1.056  11.100  20.069  0.00  0.00    +0.000 S 
ATOM     25  O   UNL     1      -0.057  11.894  19.153  0.00  0.00    +0.000 OA
ATOM     26  C   UNL     1      -0.234   9.423  20.510  0.00  0.00    +0.000 C 
ENDBRANCH  16  18
ENDBRANCH   1  14
BRANCH   1  27
ATOM     27  C   UNL     1       3.240   5.801  19.273  0.00  0.00    +0.000 C 
BRANCH  27  28
ATOM     28  C   UNL     1       2.475   4.492  19.204  0.00  0.00    +0.000 A 
ATOM     29  C   UNL     1       1.448   4.210  20.116  0.00  0.00    +0.000 A 
ATOM     30  C   UNL     1       0.642   3.080  19.951  0.00  0.00    +0.000 A 
ATOM     31  C   UNL     1       0.870   2.203  18.894  0.00  0.00    +0.000 A 
ATOM     32  C   UNL     1       1.927   2.436  18.019  0.00  0.00    +0.000 A 
ATOM     33  C   UNL     1       2.721   3.574  18.170  0.00  0.00    +0.000 A 
ENDBRANCH  27  28
ENDBRANCH   1  27
TORSDOF 8
ENDMDL
MODEL 2
REMARK VINA RESULT:      -8.4      0.825      1.224
REMARK  Name = 
REMARK  8 active torsions:
REMARK  status: ('A' for Active; 'I' for Inactive)
REMARK    1  A    between atoms: C_2  and  O_24
REMARK    2  A    between atoms: N_3  and  C_4
REMARK    3  A    between atoms: C_4  and  C_5
REMARK    4  A    between atoms: C_4  and  C_12
REMARK    5  A    between atoms: C_5  and  C_6
REMARK    6  A    between atoms: N_14  and  C_15
REMARK    7  A    between atoms: O_24  and  C_25
REMARK    8  A    between atoms: C_25  and  C_26
REMARK                            x       y       z     vdW  Elec       q    Type
REMARK                         _______ _______ _______ _____ _____    ______ ____
ROOT
ATOM      1  C   UNL     1       2.848   7.111  18.014  0.00  0.00    +0.000 C 
ENDROOT
BRANCH   1   4
ATOM      2  O   UNL     1       6.254   6.647  17.291  0.00  0.00    +0.000 OA
ATOM      3  C   UNL     1       5.073   6.421  17.046  0.00  0.00    +0.000 C 
ATOM      4  N   UNL     1       4.128   7.345  17.353  0.00  0.00    +0.000 N 
ATOM      5  H   UNL     1       4.551   8.229  17.618  0.00  0.00    +0.000 HD
BRANCH   3   6
ATOM      6  O   UNL     1       4.610   5.362  16.347  0.00  0.00    +0.000 OA
BRANCH   6   7
ATOM      7  C   UNL     1       5.603   4.333  16.186  0.00  0.00    +0.000 C 
BRANCH   7   8
ATOM      8  C   UNL     1       6.106   4.285  14.770  0.00  0.00    +0.000 A 
ATOM      9  C   UNL     1       5.441   3.516  13.808  0.00  0.00    +0.000 A 
ATOM     10  C   UNL     1       5.916   3.461  12.498  0.00  0.00    +0.000 A 
ATOM     11  C   UNL     1       7.059   4.175  12.140  0.00  0.00    +0.000 A 
ATOM     12  C   UNL     1       7.720   4.956  13.086  0.00  0.00    +0.000 A 
ATOM     13  C   UNL     1       7.246   5.013  14.398  0.00  0.00    +0.000 A 
ENDBRANCH   7   8
ENDBRANCH   6   7
ENDBRANCH   3   6
ENDBRANCH   1   4
BRANCH   1  14
ATOM     14  C   UNL     1       2.242   8.515  18.285  0.00  0.00    +0.000 C 
ATOM     15  O   UNL     1       2.221   9.395  17.423  0.00  0.00    +0.000 OA
ATOM     16  N   UNL     1       1.735   8.739  19.546  0.00  0.00    +0.000 N 
ATOM     17  H   UNL     1       1.645   7.942  20.167  0.00  0.00    +0.000 HD
BRANCH  16  18
ATOM     18  C   UNL     1       1.027   9.999  19.942  0.00  0.00    +0.000 C 
ATOM     19  C   UNL     1       0.539  10.099  21.403  0.00  0.00    +0.000 C 
ATOM     20  O   UNL     1       1.075  10.234  22.473  0.00  0.00    +0.000 OA
ATOM     21  N   UNL     1      -0.773  10.270  21.037  0.00  0.00    +0.000 N 
ATOM     22  C   UNL     1      -1.476  11.451  21.503  0.00  0.00    +0.000 C 
ATOM     23  C   UNL     1      -0.997  12.607  20.643  0.00  0.00    +0.000 C 
ATOM     24  S   UNL     1      -0.965  11.966  18.919  0.00  0.00    +0.000 S 
ATOM     25  O   UNL     1       0.291  12.586  18.209  0.00  0.00    +0.000 OA
ATOM     26  C   UNL     1      -0.466  10.235  19.580  0.00  0.00    +0.000 C 
ENDBRANCH  16  18
ENDBRANCH   1  14
BRANCH   1  27
ATOM     27  C   UNL     1       3.012   6.288  19.310  0.00  0.00    +0.000 C 
BRANCH  27  28
ATOM     28  C   UNL     1       2.301   4.949  19.379  0.00  0.00    +0.000 A 
ATOM     29  C   UNL     1       1.947   4.385  20.612  0.00  0.00    +0.000 A 
ATOM     30  C   UNL     1       1.154   3.235  20.667  0.00  0.00    +0.000 A 
ATOM     31  C   UNL     1       0.729   2.619  19.493  0.00  0.00    +0.000 A 
ATOM     32  C   UNL     1       1.126   3.131  18.261  0.00  0.00    +0.000 A 
ATOM     33  C   UNL     1       1.903   4.290  18.204  0.00  0.00    +0.000 A 
ENDBRANCH  27  28
ENDBRANCH   1  27
TORSDOF 8
ENDMDL
MODEL 3
REMARK VINA RESULT:      -8.4      0.498      1.241
REMARK  Name = 
REMARK  8 active torsions:
REMARK  status: ('A' for Active; 'I' for Inactive)
REMARK    1  A    between atoms: C_2  and  O_24
REMARK    2  A    between atoms: N_3  and  C_4
REMARK    3  A    between atoms: C_4  and  C_5
REMARK    4  A    between atoms: C_4  and  C_12
REMARK    5  A    between atoms: C_5  and  C_6
REMARK    6  A    between atoms: N_14  and  C_15
REMARK    7  A    between atoms: O_24  and  C_25
REMARK    8  A    between atoms: C_25  and  C_26
REMARK                            x       y       z     vdW  Elec       q    Type
REMARK                         _______ _______ _______ _____ _____    ______ ____
ROOT
ATOM      1  C   UNL     1       2.842   6.909  17.975  0.00  0.00    +0.000 C 
ENDROOT
BRANCH   1   4
ATOM      2  O   UNL     1       6.182   7.058  16.901  0.00  0.00    +0.000 OA
ATOM      3  C   UNL     1       5.047   6.606  16.790  0.00  0.00    +0.000 C 
ATOM      4  N   UNL     1       3.980   7.350  17.176  0.00  0.00    +0.000 N 
ATOM      5  H   UNL     1       4.253   8.307  17.374  0.00  0.00    +0.000 HD
BRANCH   3   6
ATOM      6  O   UNL     1       4.725   5.451  16.167  0.00  0.00    +0.000 OA
BRANCH   6   7
ATOM      7  C   UNL     1       5.852   4.564  16.037  0.00  0.00    +0.000 C 
BRANCH   7   8
ATOM      8  C   UNL     1       6.263   4.421  14.599  0.00  0.00    +0.000 A 
ATOM      9  C   UNL     1       5.566   3.557  13.746  0.00  0.00    +0.000 A 
ATOM     10  C   UNL     1       5.956   3.414  12.415  0.00  0.00    +0.000 A 
ATOM     11  C   UNL     1       7.046   4.134  11.926  0.00  0.00    +0.000 A 
ATOM     12  C   UNL     1       7.737   5.009  12.762  0.00  0.00    +0.000 A 
ATOM     13  C   UNL     1       7.347   5.154  14.096  0.00  0.00    +0.000 A 
ENDBRANCH   7   8
ENDBRANCH   6   7
ENDBRANCH   3   6
ENDBRANCH   1   4
BRANCH   1  14
ATOM     14  C   UNL     1       2.194   8.200  18.546  0.00  0.00    +0.000 C 
ATOM     15  O   UNL     1       1.880   9.148  17.825  0.00  0.00    +0.000 OA
ATOM     16  N   UNL     1       1.993   8.242  19.909  0.00  0.00    +0.000 N 
ATOM     17  H   UNL     1       2.132   7.386  20.434  0.00  0.00    +0.000 HD
BRANCH  16  18
ATOM     18  C   UNL     1       1.290   9.367  20.607  0.00  0.00    +0.000 C 
ATOM     19  C   UNL     1       1.184   9.279  22.144  0.00  0.00    +0.000 C 
ATOM     20  O   UNL     1       1.959   9.386  23.059  0.00  0.00    +0.000 OA
ATOM     21  N   UNL     1      -0.189   9.319  22.132  0.00  0.00    +0.000 N 
ATOM     22  C   UNL     1      -0.861  10.359  22.887  0.00  0.00    +0.000 C 
ATOM     23  C   UNL     1      -0.731  11.636  22.074  0.00  0.00    +0.000 C 
ATOM     24  S   UNL     1      -1.079  11.155  20.333  0.00  0.00    +0.000 S 
ATOM     25  O   UNL     1      -0.111  11.984  19.415  0.00  0.00    +0.000 OA
ATOM     26  C   UNL     1      -0.261   9.448  20.649  0.00  0.00    +0.000 C 
ENDBRANCH  16  18
ENDBRANCH   1  14
BRANCH   1  27
ATOM     27  C   UNL     1       3.267   5.929  19.090  0.00  0.00    +0.000 C 
BRANCH  27  28
ATOM     28  C   UNL     1       2.729   4.512  19.013  0.00  0.00    +0.000 A 
ATOM     29  C   UNL     1       3.588   3.427  18.790  0.00  0.00    +0.000 A 
ATOM     30  C   UNL     1       3.115   2.115  18.879  0.00  0.00    +0.000 A 
ATOM     31  C   UNL     1       1.773   1.870  19.161  0.00  0.00    +0.000 A 
ATOM     32  C   UNL     1       0.895   2.939  19.321  0.00  0.00    +0.000 A 
ATOM     33  C   UNL     1       1.370   4.249  19.251  0.00  0.00    +0.000 A 
ENDBRANCH  27  28
ENDBRANCH   1  27
TORSDOF 8
ENDMDL
MODEL 4
REMARK VINA RESULT:      -8.4      1.529      2.044
REMARK  Name = 
REMARK  8 active torsions:
REMARK  status: ('A' for Active; 'I' for Inactive)
REMARK    1  A    between atoms: C_2  and  O_24
REMARK    2  A    between atoms: N_3  and  C_4
REMARK    3  A    between atoms: C_4  and  C_5
REMARK    4  A    between atoms: C_4  and  C_12
REMARK    5  A    between atoms: C_5  and  C_6
REMARK    6  A    between atoms: N_14  and  C_15
REMARK    7  A    between atoms: O_24  and  C_25
REMARK    8  A    between atoms: C_25  and  C_26
REMARK                            x       y       z     vdW  Elec       q    Type
REMARK                         _______ _______ _______ _____ _____    ______ ____
ROOT
ATOM      1  C   UNL     1       2.834   7.226  17.878  0.00  0.00    +0.000 C 
ENDROOT
BRANCH   1   4
ATOM      2  O   UNL     1       6.292   7.082  17.286  0.00  0.00    +0.000 OA
ATOM      3  C   UNL     1       5.148   6.747  16.997  0.00  0.00    +0.000 C 
ATOM      4  N   UNL     1       4.110   7.579  17.266  0.00  0.00    +0.000 N 
ATOM      5  H   UNL     1       4.439   8.498  17.544  0.00  0.00    +0.000 HD
BRANCH   3   6
ATOM      6  O   UNL     1       4.812   5.650  16.283  0.00  0.00    +0.000 OA
BRANCH   6   7
ATOM      7  C   UNL     1       5.903   4.720  16.160  0.00  0.00    +0.000 C 
BRANCH   7   8
ATOM      8  C   UNL     1       6.277   4.515  14.719  0.00  0.00    +0.000 A 
ATOM      9  C   UNL     1       7.371   5.193  14.168  0.00  0.00    +0.000 A 
ATOM     10  C   UNL     1       7.710   5.014  12.827  0.00  0.00    +0.000 A 
ATOM     11  C   UNL     1       6.957   4.155  12.027  0.00  0.00    +0.000 A 
ATOM     12  C   UNL     1       5.876   3.463  12.569  0.00  0.00    +0.000 A 
ATOM     13  C   UNL     1       5.536   3.640  13.912  0.00  0.00    +0.000 A 
ENDBRANCH   7   8
ENDBRANCH   6   7
ENDBRANCH   3   6
ENDBRANCH   1   4
BRANCH   1  14
ATOM     14  C   UNL     1       2.079   8.566  18.097  0.00  0.00    +0.000 C 
ATOM     15  O   UNL     1       2.137   9.490  17.284  0.00  0.00    +0.000 OA
ATOM     16  N   UNL     1       1.343   8.680  19.257  0.00  0.00    +0.000 N 
ATOM     17  H   UNL     1       1.210   7.845  19.816  0.00  0.00    +0.000 HD
BRANCH  16  18
ATOM     18  C   UNL     1       0.477   9.862  19.574  0.00  0.00    +0.000 C 
ATOM     19  C   UNL     1      -0.409  10.407  18.434  0.00  0.00    +0.000 C 
ATOM     20  O   UNL     1      -1.395  10.019  17.861  0.00  0.00    +0.000 OA
ATOM     21  N   UNL     1       0.157  11.656  18.483  0.00  0.00    +0.000 N 
ATOM     22  C   UNL     1      -0.705  12.803  18.700  0.00  0.00    +0.000 C 
ATOM     23  C   UNL     1      -1.052  12.809  20.179  0.00  0.00    +0.000 C 
ATOM     24  S   UNL     1       0.520  12.445  21.061  0.00  0.00    +0.000 S 
ATOM     25  O   UNL     1       0.170  11.529  22.287  0.00  0.00    +0.000 OA
ATOM     26  C   UNL     1       1.058  11.303  19.615  0.00  0.00    +0.000 C 
ENDBRANCH  16  18
ENDBRANCH   1  14
BRANCH   1  27
ATOM     27  C   UNL     1       3.024   6.444  19.195  0.00  0.00    +0.000 C 
BRANCH  27  28
ATOM     28  C   UNL     1       2.334   5.097  19.310  0.00  0.00    +0.000 A 
ATOM     29  C   UNL     1       1.820   4.655  20.538  0.00  0.00    +0.000 A 
ATOM     30  C   UNL     1       1.047   3.492  20.607  0.00  0.00    +0.000 A 
ATOM     31  C   UNL     1       0.803   2.742  19.460  0.00  0.00    +0.000 A 
ATOM     32  C   UNL     1       1.361   3.134  18.246  0.00  0.00    +0.000 A 
ATOM     33  C   UNL     1       2.117   4.305  18.172  0.00  0.00    +0.000 A 
ENDBRANCH  27  28
ENDBRANCH   1  27
TORSDOF 8
ENDMDL
MODEL 5
REMARK VINA RESULT:      -8.3      2.277      3.553
REMARK  Name = 
REMARK  8 active torsions:
REMARK  status: ('A' for Active; 'I' for Inactive)
REMARK    1  A    between atoms: C_2  and  O_24
REMARK    2  A    between atoms: N_3  and  C_4
REMARK    3  A    between atoms: C_4  and  C_5
REMARK    4  A    between atoms: C_4  and  C_12
REMARK    5  A    between atoms: C_5  and  C_6
REMARK    6  A    between atoms: N_14  and  C_15
REMARK    7  A    between atoms: O_24  and  C_25
REMARK    8  A    between atoms: C_25  and  C_26
REMARK                            x       y       z     vdW  Elec       q    Type
REMARK                         _______ _______ _______ _____ _____    ______ ____
ROOT
ATOM      1  C   UNL     1       2.670   7.440  17.947  0.00  0.00    +0.000 C 
ENDROOT
BRANCH   1   4
ATOM      2  O   UNL     1       6.126   7.255  17.351  0.00  0.00    +0.000 OA
ATOM      3  C   UNL     1       4.977   6.939  17.060  0.00  0.00    +0.000 C 
ATOM      4  N   UNL     1       3.951   7.782  17.337  0.00  0.00    +0.000 N 
ATOM      5  H   UNL     1       4.292   8.694  17.623  0.00  0.00    +0.000 HD
BRANCH   3   6
ATOM      6  O   UNL     1       4.627   5.853  16.336  0.00  0.00    +0.000 OA
BRANCH   6   7
ATOM      7  C   UNL     1       5.540   4.755  16.515  0.00  0.00    +0.000 C 
BRANCH   7   8
ATOM      8  C   UNL     1       5.007   3.767  17.515  0.00  0.00    +0.000 A 
ATOM      9  C   UNL     1       5.282   3.922  18.879  0.00  0.00    +0.000 A 
ATOM     10  C   UNL     1       4.799   2.998  19.805  0.00  0.00    +0.000 A 
ATOM     11  C   UNL     1       4.037   1.912  19.374  0.00  0.00    +0.000 A 
ATOM     12  C   UNL     1       3.744   1.757  18.021  0.00  0.00    +0.000 A 
ATOM     13  C   UNL     1       4.227   2.682  17.092  0.00  0.00    +0.000 A 
ENDBRANCH   7   8
ENDBRANCH   6   7
ENDBRANCH   3   6
ENDBRANCH   1   4
BRANCH   1  14
ATOM     14  C   UNL     1       1.940   8.789  18.195  0.00  0.00    +0.000 C 
ATOM     15  O   UNL     1       2.085   9.757  17.448  0.00  0.00    +0.000 OA
ATOM     16  N   UNL     1       1.125   8.857  19.303  0.00  0.00    +0.000 N 
ATOM     17  H   UNL     1       0.926   7.995  19.798  0.00  0.00    +0.000 HD
BRANCH  16  18
ATOM     18  C   UNL     1       0.272  10.046  19.631  0.00  0.00    +0.000 C 
ATOM     19  C   UNL     1      -0.594  10.622  18.490  0.00  0.00    +0.000 C 
ATOM     20  O   UNL     1      -1.579  10.258  17.901  0.00  0.00    +0.000 OA
ATOM     21  N   UNL     1      -0.010  11.862  18.566  0.00  0.00    +0.000 N 
ATOM     22  C   UNL     1      -0.858  13.017  18.793  0.00  0.00    +0.000 C 
ATOM     23  C   UNL     1      -1.222  13.004  20.268  0.00  0.00    +0.000 C 
ATOM     24  S   UNL     1       0.336  12.603  21.161  0.00  0.00    +0.000 S 
ATOM     25  O   UNL     1      -0.041  11.672  22.368  0.00  0.00    +0.000 OA
ATOM     26  C   UNL     1       0.873  11.477  19.703  0.00  0.00    +0.000 C 
ENDBRANCH  16  18
ENDBRANCH   1  14
BRANCH   1  27
ATOM     27  C   UNL     1       2.851   6.628  19.248  0.00  0.00    +0.000 C 
BRANCH  27  28
ATOM     28  C   UNL     1       2.009   5.377  19.410  0.00  0.00    +0.000 A 
ATOM     29  C   UNL     1       1.503   4.700  18.291  0.00  0.00    +0.000 A 
ATOM     30  C   UNL     1       0.866   3.464  18.435  0.00  0.00    +0.000 A 
ATOM     31  C   UNL     1       0.699   2.904  19.698  0.00  0.00    +0.000 A 
ATOM     32  C   UNL     1       1.139   3.595  20.824  0.00  0.00    +0.000 A 
ATOM     33  C   UNL     1       1.792   4.819  20.680  0.00  0.00    +0.000 A 
ENDBRANCH  27  28
ENDBRANCH   1  27
TORSDOF 8
ENDMDL
MODEL 6
REMARK VINA RESULT:      -8.2      1.572      2.367
REMARK  Name = 
REMARK  8 active torsions:
REMARK  status: ('A' for Active; 'I' for Inactive)
REMARK    1  A    between atoms: C_2  and  O_24
REMARK    2  A    between atoms: N_3  and  C_4
REMARK    3  A    between atoms: C_4  and  C_5
REMARK    4  A    between atoms: C_4  and  C_12
REMARK    5  A    between atoms: C_5  and  C_6
REMARK    6  A    between atoms: N_14  and  C_15
REMARK    7  A    between atoms: O_24  and  C_25
REMARK    8  A    between atoms: C_25  and  C_26
REMARK                            x       y       z     vdW  Elec       q    Type
REMARK                         _______ _______ _______ _____ _____    ______ ____
ROOT
ATOM      1  C   UNL     1       2.774   7.144  18.065  0.00  0.00    +0.000 C 
ENDROOT
BRANCH   1   4
ATOM      2  O   UNL     1       6.213   6.705  17.507  0.00  0.00    +0.000 OA
ATOM      3  C   UNL     1       5.052   6.608  17.124  0.00  0.00    +0.000 C 
ATOM      4  N   UNL     1       4.112   7.472  17.584  0.00  0.00    +0.000 N 
ATOM      5  H   UNL     1       4.537   8.238  18.095  0.00  0.00    +0.000 HD
BRANCH   3   6
ATOM      6  O   UNL     1       4.619   5.783  16.146  0.00  0.00    +0.000 OA
BRANCH   6   7
ATOM      7  C   UNL     1       5.412   4.586  16.045  0.00  0.00    +0.000 C 
BRANCH   7   8
ATOM      8  C   UNL     1       6.007   4.446  14.672  0.00  0.00    +0.000 A 
ATOM      9  C   UNL     1       5.434   3.575  13.738  0.00  0.00    +0.000 A 
ATOM     10  C   UNL     1       5.995   3.435  12.468  0.00  0.00    +0.000 A 
ATOM     11  C   UNL     1       7.131   4.166  12.123  0.00  0.00    +0.000 A 
ATOM     12  C   UNL     1       7.699   5.048  13.039  0.00  0.00    +0.000 A 
ATOM     13  C   UNL     1       7.140   5.190  14.311  0.00  0.00    +0.000 A 
ENDBRANCH   7   8
ENDBRANCH   6   7
ENDBRANCH   3   6
ENDBRANCH   1   4
BRANCH   1  14
ATOM     14  C   UNL     1       2.017   8.496  18.179  0.00  0.00    +0.000 C 
ATOM     15  O   UNL     1       2.014   9.323  17.267  0.00  0.00    +0.000 OA
ATOM     16  N   UNL     1       1.352   8.735  19.362  0.00  0.00    +0.000 N 
ATOM     17  H   UNL     1       1.264   7.968  20.019  0.00  0.00    +0.000 HD
BRANCH  16  18
ATOM     18  C   UNL     1       0.493   9.940  19.599  0.00  0.00    +0.000 C 
ATOM     19  C   UNL     1      -0.368  10.430  18.415  0.00  0.00    +0.000 C 
ATOM     20  O   UNL     1      -1.347  10.021  17.846  0.00  0.00    +0.000 OA
ATOM     21  N   UNL     1       0.211  11.675  18.406  0.00  0.00    +0.000 N 
ATOM     22  C   UNL     1      -0.644  12.840  18.545  0.00  0.00    +0.000 C 
ATOM     23  C   UNL     1      -1.018  12.930  20.014  0.00  0.00    +0.000 C 
ATOM     24  S   UNL     1       0.535  12.600  20.944  0.00  0.00    +0.000 S 
ATOM     25  O   UNL     1       0.154  11.756  22.212  0.00  0.00    +0.000 OA
ATOM     26  C   UNL     1       1.087  11.376  19.573  0.00  0.00    +0.000 C 
ENDBRANCH  16  18
ENDBRANCH   1  14
BRANCH   1  27
ATOM     27  C   UNL     1       2.816   6.385  19.409  0.00  0.00    +0.000 C 
BRANCH  27  28
ATOM     28  C   UNL     1       2.136   5.029  19.463  0.00  0.00    +0.000 A 
ATOM     29  C   UNL     1       1.754   4.368  18.287  0.00  0.00    +0.000 A 
ATOM     30  C   UNL     1       1.276   3.056  18.332  0.00  0.00    +0.000 A 
ATOM     31  C   UNL     1       1.145   2.398  19.552  0.00  0.00    +0.000 A 
ATOM     32  C   UNL     1       1.460   3.064  20.733  0.00  0.00    +0.000 A 
ATOM     33  C   UNL     1       1.956   4.368  20.688  0.00  0.00    +0.000 A 
ENDBRANCH  27  28
ENDBRANCH   1  27
TORSDOF 8
ENDMDL
MODEL 7
REMARK VINA RESULT:      -8.1      1.217      1.944
REMARK  Name = 
REMARK  8 active torsions:
REMARK  status: ('A' for Active; 'I' for Inactive)
REMARK    1  A    between atoms: C_2  and  O_24
REMARK    2  A    between atoms: N_3  and  C_4
REMARK    3  A    between atoms: C_4  and  C_5
REMARK    4  A    between atoms: C_4  and  C_12
REMARK    5  A    between atoms: C_5  and  C_6
REMARK    6  A    between atoms: N_14  and  C_15
REMARK    7  A    between atoms: O_24  and  C_25
REMARK    8  A    between atoms: C_25  and  C_26
REMARK                            x       y       z     vdW  Elec       q    Type
REMARK                         _______ _______ _______ _____ _____    ______ ____
ROOT
ATOM      1  C   UNL     1       2.936   6.437  18.215  0.00  0.00    +0.000 C 
ENDROOT
BRANCH   1   4
ATOM      2  O   UNL     1       5.182   4.262  19.815  0.00  0.00    +0.000 OA
ATOM      3  C   UNL     1       4.969   5.256  19.128  0.00  0.00    +0.000 C 
ATOM      4  N   UNL     1       3.810   5.946  19.275  0.00  0.00    +0.000 N 
ATOM      5  H   UNL     1       3.299   5.634  20.094  0.00  0.00    +0.000 HD
BRANCH   3   6
ATOM      6  O   UNL     1       5.865   5.841  18.302  0.00  0.00    +0.000 OA
BRANCH   6   7
ATOM      7  C   UNL     1       6.826   4.904  17.783  0.00  0.00    +0.000 C 
BRANCH   7   8
ATOM      8  C   UNL     1       6.576   4.626  16.327  0.00  0.00    +0.000 A 
ATOM      9  C   UNL     1       5.468   3.865  15.932  0.00  0.00    +0.000 A 
ATOM     10  C   UNL     1       5.243   3.595  14.582  0.00  0.00    +0.000 A 
ATOM     11  C   UNL     1       6.124   4.083  13.618  0.00  0.00    +0.000 A 
ATOM     12  C   UNL     1       7.220   4.854  13.998  0.00  0.00    +0.000 A 
ATOM     13  C   UNL     1       7.447   5.126  15.349  0.00  0.00    +0.000 A 
ENDBRANCH   7   8
ENDBRANCH   6   7
ENDBRANCH   3   6
ENDBRANCH   1   4
BRANCH   1  14
ATOM     14  C   UNL     1       2.426   7.825  18.688  0.00  0.00    +0.000 C 
ATOM     15  O   UNL     1       2.439   8.812  17.952  0.00  0.00    +0.000 OA
ATOM     16  N   UNL     1       1.964   7.907  19.984  0.00  0.00    +0.000 N 
ATOM     17  H   UNL     1       1.839   7.041  20.497  0.00  0.00    +0.000 HD
BRANCH  16  18
ATOM     18  C   UNL     1       1.346   9.142  20.566  0.00  0.00    +0.000 C 
ATOM     19  C   UNL     1       1.199   9.196  22.101  0.00  0.00    +0.000 C 
ATOM     20  O   UNL     1       1.961   9.315  23.026  0.00  0.00    +0.000 OA
ATOM     21  N   UNL     1      -0.164   9.350  22.046  0.00  0.00    +0.000 N 
ATOM     22  C   UNL     1      -0.760  10.504  22.692  0.00  0.00    +0.000 C 
ATOM     23  C   UNL     1      -0.504  11.691  21.780  0.00  0.00    +0.000 C 
ATOM     24  S   UNL     1      -0.854  11.094  20.075  0.00  0.00    +0.000 S 
ATOM     25  O   UNL     1       0.201  11.757  19.119  0.00  0.00    +0.000 OA
ATOM     26  C   UNL     1      -0.193   9.357  20.556  0.00  0.00    +0.000 C 
ENDBRANCH  16  18
ENDBRANCH   1  14
BRANCH   1  27
ATOM     27  C   UNL     1       1.777   5.458  17.926  0.00  0.00    +0.000 C 
BRANCH  27  28
ATOM     28  C   UNL     1       1.650   4.246  18.830  0.00  0.00    +0.000 A 
ATOM     29  C   UNL     1       2.030   2.972  18.384  0.00  0.00    +0.000 A 
ATOM     30  C   UNL     1       2.062   1.889  19.267  0.00  0.00    +0.000 A 
ATOM     31  C   UNL     1       1.687   2.057  20.598  0.00  0.00    +0.000 A 
ATOM     32  C   UNL     1       1.247   3.302  21.040  0.00  0.00    +0.000 A 
ATOM     33  C   UNL     1       1.232   4.388  20.164  0.00  0.00    +0.000 A 
ENDBRANCH  27  28
ENDBRANCH   1  27
TORSDOF 8
ENDMDL
MODEL 8
REMARK VINA RESULT:      -8.0      2.540      3.662
REMARK  Name = 
REMARK  8 active torsions:
REMARK  status: ('A' for Active; 'I' for Inactive)
REMARK    1  A    between atoms: C_2  and  O_24
REMARK    2  A    between atoms: N_3  and  C_4
REMARK    3  A    between atoms: C_4  and  C_5
REMARK    4  A    between atoms: C_4  and  C_12
REMARK    5  A    between atoms: C_5  and  C_6
REMARK    6  A    between atoms: N_14  and  C_15
REMARK    7  A    between atoms: O_24  and  C_25
REMARK    8  A    between atoms: C_25  and  C_26
REMARK                            x       y       z     vdW  Elec       q    Type
REMARK                         _______ _______ _______ _____ _____    ______ ____
ROOT
ATOM      1  C   UNL     1       2.531   7.490  18.025  0.00  0.00    +0.000 C 
ENDROOT
BRANCH   1   4
ATOM      2  O   UNL     1       5.964   7.528  17.284  0.00  0.00    +0.000 OA
ATOM      3  C   UNL     1       4.852   7.025  17.154  0.00  0.00    +0.000 C 
ATOM      4  N   UNL     1       3.742   7.797  17.271  0.00  0.00    +0.000 N 
ATOM      5  H   UNL     1       3.981   8.783  17.295  0.00  0.00    +0.000 HD
BRANCH   3   6
ATOM      6  O   UNL     1       4.611   5.758  16.752  0.00  0.00    +0.000 OA
BRANCH   6   7
ATOM      7  C   UNL     1       5.594   4.829  17.244  0.00  0.00    +0.000 C 
BRANCH   7   8
ATOM      8  C   UNL     1       4.938   3.654  17.914  0.00  0.00    +0.000 A 
ATOM      9  C   UNL     1       4.170   2.752  17.169  0.00  0.00    +0.000 A 
ATOM     10  C   UNL     1       3.549   1.670  17.793  0.00  0.00    +0.000 A 
ATOM     11  C   UNL     1       3.692   1.483  19.168  0.00  0.00    +0.000 A 
ATOM     12  C   UNL     1       4.467   2.366  19.917  0.00  0.00    +0.000 A 
ATOM     13  C   UNL     1       5.089   3.450  19.293  0.00  0.00    +0.000 A 
ENDBRANCH   7   8
ENDBRANCH   6   7
ENDBRANCH   3   6
ENDBRANCH   1   4
BRANCH   1  14
ATOM     14  C   UNL     1       1.822   8.850  18.268  0.00  0.00    +0.000 C 
ATOM     15  O   UNL     1       2.001   9.822  17.534  0.00  0.00    +0.000 OA
ATOM     16  N   UNL     1       0.983   8.925  19.359  0.00  0.00    +0.000 N 
ATOM     17  H   UNL     1       0.757   8.062  19.843  0.00  0.00    +0.000 HD
BRANCH  16  18
ATOM     18  C   UNL     1       0.146  10.127  19.679  0.00  0.00    +0.000 C 
ATOM     19  C   UNL     1      -0.813  10.625  18.577  0.00  0.00    +0.000 C 
ATOM     20  O   UNL     1      -1.837  10.219  18.091  0.00  0.00    +0.000 OA
ATOM     21  N   UNL     1      -0.238  11.871  18.529  0.00  0.00    +0.000 N 
ATOM     22  C   UNL     1      -1.078  13.033  18.749  0.00  0.00    +0.000 C 
ATOM     23  C   UNL     1      -1.324  13.111  20.246  0.00  0.00    +0.000 C 
ATOM     24  S   UNL     1       0.303  12.776  21.036  0.00  0.00    +0.000 S 
ATOM     25  O   UNL     1       0.032  11.920  22.326  0.00  0.00    +0.000 OA
ATOM     26  C   UNL     1       0.736  11.563  19.613  0.00  0.00    +0.000 C 
ENDBRANCH  16  18
ENDBRANCH   1  14
BRANCH   1  27
ATOM     27  C   UNL     1       2.847   6.753  19.345  0.00  0.00    +0.000 C 
BRANCH  27  28
ATOM     28  C   UNL     1       2.175   5.412  19.571  0.00  0.00    +0.000 A 
ATOM     29  C   UNL     1       2.083   4.860  20.857  0.00  0.00    +0.000 A 
ATOM     30  C   UNL     1       1.326   3.707  21.084  0.00  0.00    +0.000 A 
ATOM     31  C   UNL     1       0.677   3.074  20.027  0.00  0.00    +0.000 A 
ATOM     32  C   UNL     1       0.812   3.574  18.734  0.00  0.00    +0.000 A 
ATOM     33  C   UNL     1       1.552   4.736  18.509  0.00  0.00    +0.000 A 
ENDBRANCH  27  28
ENDBRANCH   1  27
TORSDOF 8
ENDMDL
MODEL 9
REMARK VINA RESULT:      -8.0      1.686      2.182
REMARK  Name = 
REMARK  8 active torsions:
REMARK  status: ('A' for Active; 'I' for Inactive)
REMARK    1  A    between atoms: C_2  and  O_24
REMARK    2  A    between atoms: N_3  and  C_4
REMARK    3  A    between atoms: C_4  and  C_5
REMARK    4  A    between atoms: C_4  and  C_12
REMARK    5  A    between atoms: C_5  and  C_6
REMARK    6  A    between atoms: N_14  and  C_15
REMARK    7  A    between atoms: O_24  and  C_25
REMARK    8  A    between atoms: C_25  and  C_26
REMARK                            x       y       z     vdW  Elec       q    Type
REMARK                         _______ _______ _______ _____ _____    ______ ____
ROOT
ATOM      1  C   UNL     1       3.369   6.660  18.110  0.00  0.00    +0.000 C 
ENDROOT
BRANCH   1   4
ATOM      2  O   UNL     1       6.649   7.479  17.157  0.00  0.00    +0.000 OA
ATOM      3  C   UNL     1       5.508   7.139  16.861  0.00  0.00    +0.000 C 
ATOM      4  N   UNL     1       4.466   7.505  17.649  0.00  0.00    +0.000 N 
ATOM      5  H   UNL     1       4.752   8.190  18.342  0.00  0.00    +0.000 HD
BRANCH   3   6
ATOM      6  O   UNL     1       5.149   6.531  15.710  0.00  0.00    +0.000 OA
BRANCH   6   7
ATOM      7  C   UNL     1       5.480   5.130  15.702  0.00  0.00    +0.000 C 
BRANCH   7   8
ATOM      8  C   UNL     1       6.077   4.725  14.383  0.00  0.00    +0.000 A 
ATOM      9  C   UNL     1       7.269   5.309  13.937  0.00  0.00    +0.000 A 
ATOM     10  C   UNL     1       7.816   4.943  12.707  0.00  0.00    +0.000 A 
ATOM     11  C   UNL     1       7.175   3.991  11.915  0.00  0.00    +0.000 A 
ATOM     12  C   UNL     1       5.997   3.392  12.356  0.00  0.00    +0.000 A 
ATOM     13  C   UNL     1       5.448   3.756  13.588  0.00  0.00    +0.000 A 
ENDBRANCH   7   8
ENDBRANCH   6   7
ENDBRANCH   3   6
ENDBRANCH   1   4
BRANCH   1  14
ATOM     14  C   UNL     1       2.415   7.591  18.905  0.00  0.00    +0.000 C 
ATOM     15  O   UNL     1       2.201   7.436  20.108  0.00  0.00    +0.000 OA
ATOM     16  N   UNL     1       1.803   8.603  18.196  0.00  0.00    +0.000 N 
ATOM     17  H   UNL     1       2.123   8.777  17.250  0.00  0.00    +0.000 HD
BRANCH  16  18
ATOM     18  C   UNL     1       0.935   9.648  18.829  0.00  0.00    +0.000 C 
ATOM     19  C   UNL     1      -0.235  10.193  17.982  0.00  0.00    +0.000 C 
ATOM     20  O   UNL     1      -1.289   9.752  17.602  0.00  0.00    +0.000 OA
ATOM     21  N   UNL     1       0.217  11.488  18.045  0.00  0.00    +0.000 N 
ATOM     22  C   UNL     1      -0.668  12.508  18.576  0.00  0.00    +0.000 C 
ATOM     23  C   UNL     1      -0.662  12.342  20.086  0.00  0.00    +0.000 C 
ATOM     24  S   UNL     1       1.097  12.075  20.551  0.00  0.00    +0.000 S 
ATOM     25  O   UNL     1       1.121  11.019  21.714  0.00  0.00    +0.000 OA
ATOM     26  C   UNL     1       1.383  11.134  18.903  0.00  0.00    +0.000 C 
ENDBRANCH  16  18
ENDBRANCH   1  14
BRANCH   1  27
ATOM     27  C   UNL     1       3.875   5.477  18.964  0.00  0.00    +0.000 C 
BRANCH  27  28
ATOM     28  C   UNL     1       3.036   4.213  18.967  0.00  0.00    +0.000 A 
ATOM     29  C   UNL     1       2.181   3.919  20.038  0.00  0.00    +0.000 A 
ATOM     30  C   UNL     1       1.295   2.840  19.966  0.00  0.00    +0.000 A 
ATOM     31  C   UNL     1       1.272   2.025  18.837  0.00  0.00    +0.000 A 
ATOM     32  C   UNL     1       2.160   2.267  17.792  0.00  0.00    +0.000 A 
ATOM     33  C   UNL     1       3.032   3.354  17.855  0.00  0.00    +0.000 A 
ENDBRANCH  27  28
ENDBRANCH   1  27
TORSDOF 8
ENDMDL
