MODEL 1
REMARK VINA RESULT:      -9.0      0.000      0.000
REMARK  Name = 
REMARK  9 active torsions:
REMARK  status: ('A' for Active; 'I' for Inactive)
REMARK    1  A    between atoms: C_2  and  C_24
REMARK    2  A    between atoms: N_3  and  C_4
REMARK    3  A    between atoms: C_10  and  O_11
REMARK    4  A    between atoms: O_11  and  C_12
REMARK    5  A    between atoms: C_15  and  C_16
REMARK    6  A    between atoms: C_16  and  O_18
REMARK    7  A    between atoms: C_19  and  C_20
REMARK    8  A    between atoms: C_20  and  O_22
REMARK    9  A    between atoms: C_28  and  N_29
REMARK                            x       y       z     vdW  Elec       q    Type
REMARK                         _______ _______ _______ _____ _____    ______ ____
ROOT
ATOM      1  C   UNL     1       2.624   4.305  18.079  0.00  0.00    +0.000 A 
ATOM      2  C   UNL     1       1.873   3.135  17.882  0.00  0.00    +0.000 A 
ATOM      3  C   UNL     1       0.969   2.705  18.848  0.00  0.00    +0.000 A 
ATOM      4  F   UNL     1       0.315   1.551  18.665  0.00  0.00    +0.000 F 
ATOM      5  C   UNL     1       0.755   3.435  20.004  0.00  0.00    +0.000 A 
ATOM      6  C   UNL     1       1.452   4.627  20.188  0.00  0.00    +0.000 A 
ATOM      7  C   UNL     1       2.375   5.087  19.229  0.00  0.00    +0.000 A 
ENDROOT
BRANCH   1  10
ATOM      8  O   UNL     1       5.458   3.879  18.277  0.00  0.00    +0.000 OA
ATOM      9  C   UNL     1       4.939   4.314  17.260  0.00  0.00    +0.000 C 
ATOM     10  N   UNL     1       3.589   4.577  17.073  0.00  0.00    +0.000 N 
ATOM     11  H   UNL     1       3.281   4.430  16.117  0.00  0.00    +0.000 HD
BRANCH   9  12
ATOM     12  C   UNL     1       5.768   4.477  16.034  0.00  0.00    +0.000 A 
ATOM     13  C   UNL     1       6.900   5.302  16.024  0.00  0.00    +0.000 A 
ATOM     14  C   UNL     1       7.655   5.451  14.859  0.00  0.00    +0.000 A 
ATOM     15  C   UNL     1       7.263   4.797  13.688  0.00  0.00    +0.000 A 
ATOM     16  C   UNL     1       6.123   3.980  13.701  0.00  0.00    +0.000 A 
ATOM     17  C   UNL     1       5.381   3.797  14.874  0.00  0.00    +0.000 A 
BRANCH  16  18
ATOM     18  N   UNL     1       5.679   3.344  12.455  0.00  0.00    +0.000 N 
ATOM     19  O   UNL     1       4.498   3.504  12.116  0.00  0.00    +0.000 OA
ATOM     20  O   UNL     1       6.503   2.663  11.832  0.00  0.00    +0.000 OA
ENDBRANCH  16  18
ENDBRANCH   9  12
ENDBRANCH   1  10
BRANCH   7  21
ATOM     21  O   UNL     1       2.943   6.285  19.599  0.00  0.00    +0.000 OA
BRANCH  21  22
ATOM     22  C   UNL     1       2.267   7.472  19.512  0.00  0.00    +0.000 A 
ATOM     23  C   UNL     1       2.169   8.007  18.234  0.00  0.00    +0.000 A 
ATOM     24  C   UNL     1       1.400   9.148  18.011  0.00  0.00    +0.000 A 
ATOM     25  C   UNL     1       0.691   9.776  19.055  0.00  0.00    +0.000 A 
ATOM     26  C   UNL     1       0.871   9.272  20.361  0.00  0.00    +0.000 A 
ATOM     27  C   UNL     1       1.710   8.158  20.585  0.00  0.00    +0.000 A 
BRANCH  25  28
ATOM     28  C   UNL     1      -0.245  10.856  18.588  0.00  0.00    +0.000 C 
ATOM     29  O   UNL     1      -0.226  11.965  19.106  0.00  0.00    +0.000 OA
BRANCH  28  30
ATOM     30  O   UNL     1      -0.998  10.635  17.499  0.00  0.00    +0.000 OA
ATOM     31  H   UNL     1      -0.748  11.144  16.694  0.00  0.00    +0.000 HD
ENDBRANCH  28  30
ENDBRANCH  25  28
BRANCH  26  32
ATOM     32  C   UNL     1       0.210   9.863  21.540  0.00  0.00    +0.000 C 
ATOM     33  O   UNL     1      -0.571   9.228  22.228  0.00  0.00    +0.000 OA
BRANCH  32  34
ATOM     34  O   UNL     1       0.613  11.110  21.862  0.00  0.00    +0.000 OA
ATOM     35  H   UNL     1       1.489  11.207  22.277  0.00  0.00    +0.000 HD
ENDBRANCH  32  34
ENDBRANCH  26  32
ENDBRANCH  21  22
ENDBRANCH   7  21
TORSDOF 9
ENDMDL
MODEL 2
REMARK VINA RESULT:      -8.1      0.779      2.047
REMARK  Name = 
REMARK  9 active torsions:
REMARK  status: ('A' for Active; 'I' for Inactive)
REMARK    1  A    between atoms: C_2  and  C_24
REMARK    2  A    between atoms: N_3  and  C_4
REMARK    3  A    between atoms: C_10  and  O_11
REMARK    4  A    between atoms: O_11  and  C_12
REMARK    5  A    between atoms: C_15  and  C_16
REMARK    6  A    between atoms: C_16  and  O_18
REMARK    7  A    between atoms: C_19  and  C_20
REMARK    8  A    between atoms: C_20  and  O_22
REMARK    9  A    between atoms: C_28  and  N_29
REMARK                            x       y       z     vdW  Elec       q    Type
REMARK                         _______ _______ _______ _____ _____    ______ ____
ROOT
ATOM      1  C   UNL     1       2.618   4.317  18.100  0.00  0.00    +0.000 A 
ATOM      2  C   UNL     1       1.912   3.116  17.922  0.00  0.00    +0.000 A 
ATOM      3  C   UNL     1       1.012   2.677  18.888  0.00  0.00    +0.000 A 
ATOM      4  F   UNL     1       0.402   1.497  18.726  0.00  0.00    +0.000 F 
ATOM      5  C   UNL     1       0.759   3.426  20.024  0.00  0.00    +0.000 A 
ATOM      6  C   UNL     1       1.411   4.646  20.187  0.00  0.00    +0.000 A 
ATOM      7  C   UNL     1       2.329   5.116  19.227  0.00  0.00    +0.000 A 
ENDROOT
BRANCH   1  10
ATOM      8  O   UNL     1       5.464   4.009  18.344  0.00  0.00    +0.000 OA
ATOM      9  C   UNL     1       4.942   4.395  17.309  0.00  0.00    +0.000 C 
ATOM     10  N   UNL     1       3.586   4.598  17.098  0.00  0.00    +0.000 N 
ATOM     11  H   UNL     1       3.297   4.413  16.143  0.00  0.00    +0.000 HD
BRANCH   9  12
ATOM     12  C   UNL     1       5.780   4.557  16.089  0.00  0.00    +0.000 A 
ATOM     13  C   UNL     1       6.897   5.403  16.078  0.00  0.00    +0.000 A 
ATOM     14  C   UNL     1       7.660   5.551  14.919  0.00  0.00    +0.000 A 
ATOM     15  C   UNL     1       7.293   4.874  13.754  0.00  0.00    +0.000 A 
ATOM     16  C   UNL     1       6.168   4.035  13.767  0.00  0.00    +0.000 A 
ATOM     17  C   UNL     1       5.418   3.853  14.935  0.00  0.00    +0.000 A 
BRANCH  16  18
ATOM     18  N   UNL     1       5.749   3.372  12.525  0.00  0.00    +0.000 N 
ATOM     19  O   UNL     1       6.609   2.749  11.888  0.00  0.00    +0.000 OA
ATOM     20  O   UNL     1       4.568   3.500  12.177  0.00  0.00    +0.000 OA
ENDBRANCH  16  18
ENDBRANCH   9  12
ENDBRANCH   1  10
BRANCH   7  21
ATOM     21  O   UNL     1       2.850   6.342  19.575  0.00  0.00    +0.000 OA
BRANCH  21  22
ATOM     22  C   UNL     1       2.055   7.424  19.842  0.00  0.00    +0.000 A 
ATOM     23  C   UNL     1       1.401   7.393  21.067  0.00  0.00    +0.000 A 
ATOM     24  C   UNL     1       0.663   8.495  21.494  0.00  0.00    +0.000 A 
ATOM     25  C   UNL     1       0.572   9.669  20.717  0.00  0.00    +0.000 A 
ATOM     26  C   UNL     1       1.169   9.651  19.438  0.00  0.00    +0.000 A 
ATOM     27  C   UNL     1       1.855   8.502  18.987  0.00  0.00    +0.000 A 
BRANCH  25  28
ATOM     28  C   UNL     1      -0.084  10.818  21.430  0.00  0.00    +0.000 C 
ATOM     29  O   UNL     1      -0.863  11.555  20.839  0.00  0.00    +0.000 OA
BRANCH  28  30
ATOM     30  O   UNL     1       0.081  10.937  22.757  0.00  0.00    +0.000 OA
ATOM     31  H   UNL     1      -0.482  11.613  23.200  0.00  0.00    +0.000 HD
ENDBRANCH  28  30
ENDBRANCH  25  28
BRANCH  26  32
ATOM     32  C   UNL     1       1.114  10.804  18.519  0.00  0.00    +0.000 C 
ATOM     33  O   UNL     1       2.099  11.481  18.274  0.00  0.00    +0.000 OA
BRANCH  32  34
ATOM     34  O   UNL     1      -0.066  10.986  17.893  0.00  0.00    +0.000 OA
ATOM     35  H   UNL     1      -0.043  11.318  16.977  0.00  0.00    +0.000 HD
ENDBRANCH  32  34
ENDBRANCH  26  32
ENDBRANCH  21  22
ENDBRANCH   7  21
TORSDOF 9
ENDMDL
MODEL 3
REMARK VINA RESULT:      -7.8      0.690      1.937
REMARK  Name = 
REMARK  9 active torsions:
REMARK  status: ('A' for Active; 'I' for Inactive)
REMARK    1  A    between atoms: C_2  and  C_24
REMARK    2  A    between atoms: N_3  and  C_4
REMARK    3  A    between atoms: C_10  and  O_11
REMARK    4  A    between atoms: O_11  and  C_12
REMARK    5  A    between atoms: C_15  and  C_16
REMARK    6  A    between atoms: C_16  and  O_18
REMARK    7  A    between atoms: C_19  and  C_20
REMARK    8  A    between atoms: C_20  and  O_22
REMARK    9  A    between atoms: C_28  and  N_29
REMARK                            x       y       z     vdW  Elec       q    Type
REMARK                         _______ _______ _______ _____ _____    ______ ____
ROOT
ATOM      1  C   UNL     1       2.806   4.302  17.833  0.00  0.00    +0.000 A 
ATOM      2  C   UNL     1       2.196   3.039  17.886  0.00  0.00    +0.000 A 
ATOM      3  C   UNL     1       1.395   2.687  18.968  0.00  0.00    +0.000 A 
ATOM      4  F   UNL     1       0.880   1.452  19.027  0.00  0.00    +0.000 F 
ATOM      5  C   UNL     1       1.145   3.580  19.995  0.00  0.00    +0.000 A 
ATOM      6  C   UNL     1       1.699   4.857  19.928  0.00  0.00    +0.000 A 
ATOM      7  C   UNL     1       2.516   5.241  18.847  0.00  0.00    +0.000 A 
ENDROOT
BRANCH   1  10
ATOM      8  O   UNL     1       5.675   4.173  17.902  0.00  0.00    +0.000 OA
ATOM      9  C   UNL     1       5.063   4.393  16.868  0.00  0.00    +0.000 C 
ATOM     10  N   UNL     1       3.685   4.499  16.735  0.00  0.00    +0.000 N 
ATOM     11  H   UNL     1       3.345   4.176  15.835  0.00  0.00    +0.000 HD
BRANCH   9  12
ATOM     12  C   UNL     1       5.806   4.437  15.579  0.00  0.00    +0.000 A 
ATOM     13  C   UNL     1       6.978   5.191  15.438  0.00  0.00    +0.000 A 
ATOM     14  C   UNL     1       7.651   5.229  14.215  0.00  0.00    +0.000 A 
ATOM     15  C   UNL     1       7.138   4.533  13.118  0.00  0.00    +0.000 A 
ATOM     16  C   UNL     1       5.958   3.787  13.261  0.00  0.00    +0.000 A 
ATOM     17  C   UNL     1       5.297   3.715  14.494  0.00  0.00    +0.000 A 
BRANCH  16  18
ATOM     18  N   UNL     1       5.389   3.108  12.091  0.00  0.00    +0.000 N 
ATOM     19  O   UNL     1       4.363   3.589  11.590  0.00  0.00    +0.000 OA
ATOM     20  O   UNL     1       5.951   2.080  11.693  0.00  0.00    +0.000 OA
ENDBRANCH  16  18
ENDBRANCH   9  12
ENDBRANCH   1  10
BRANCH   7  21
ATOM     21  O   UNL     1       2.949   6.542  18.972  0.00  0.00    +0.000 OA
BRANCH  21  22
ATOM     22  C   UNL     1       2.148   7.535  19.467  0.00  0.00    +0.000 A 
ATOM     23  C   UNL     1       1.953   7.509  20.843  0.00  0.00    +0.000 A 
ATOM     24  C   UNL     1       1.255   8.540  21.469  0.00  0.00    +0.000 A 
ATOM     25  C   UNL     1       0.747   9.636  20.742  0.00  0.00    +0.000 A 
ATOM     26  C   UNL     1       0.878   9.603  19.338  0.00  0.00    +0.000 A 
ATOM     27  C   UNL     1       1.525   8.517  18.707  0.00  0.00    +0.000 A 
BRANCH  25  28
ATOM     28  C   UNL     1       0.215  10.744  21.609  0.00  0.00    +0.000 C 
ATOM     29  O   UNL     1      -0.610  10.510  22.482  0.00  0.00    +0.000 OA
BRANCH  28  30
ATOM     30  O   UNL     1       0.765  11.964  21.512  0.00  0.00    +0.000 OA
ATOM     31  H   UNL     1       1.099  12.353  22.353  0.00  0.00    +0.000 HD
ENDBRANCH  28  30
ENDBRANCH  25  28
BRANCH  26  32
ATOM     32  C   UNL     1       0.359  10.674  18.465  0.00  0.00    +0.000 C 
ATOM     33  O   UNL     1      -0.762  10.630  17.987  0.00  0.00    +0.000 OA
BRANCH  32  34
ATOM     34  O   UNL     1       1.166  11.746  18.327  0.00  0.00    +0.000 OA
ATOM     35  H   UNL     1       1.296  12.098  17.428  0.00  0.00    +0.000 HD
ENDBRANCH  32  34
ENDBRANCH  26  32
ENDBRANCH  21  22
ENDBRANCH   7  21
TORSDOF 9
ENDMDL
MODEL 4
REMARK VINA RESULT:      -7.8      1.614      1.953
REMARK  Name = 
REMARK  9 active torsions:
REMARK  status: ('A' for Active; 'I' for Inactive)
REMARK    1  A    between atoms: C_2  and  C_24
REMARK    2  A    between atoms: N_3  and  C_4
REMARK    3  A    between atoms: C_10  and  O_11
REMARK    4  A    between atoms: O_11  and  C_12
REMARK    5  A    between atoms: C_15  and  C_16
REMARK    6  A    between atoms: C_16  and  O_18
REMARK    7  A    between atoms: C_19  and  C_20
REMARK    8  A    between atoms: C_20  and  O_22
REMARK    9  A    between atoms: C_28  and  N_29
REMARK                            x       y       z     vdW  Elec       q    Type
REMARK                         _______ _______ _______ _____ _____    ______ ____
ROOT
ATOM      1  C   UNL     1       3.231   4.099  17.596  0.00  0.00    +0.000 A 
ATOM      2  C   UNL     1       2.655   2.840  17.830  0.00  0.00    +0.000 A 
ATOM      3  C   UNL     1       2.088   2.542  19.064  0.00  0.00    +0.000 A 
ATOM      4  F   UNL     1       1.606   1.313  19.284  0.00  0.00    +0.000 F 
ATOM      5  C   UNL     1       2.037   3.486  20.076  0.00  0.00    +0.000 A 
ATOM      6  C   UNL     1       2.554   4.758  19.838  0.00  0.00    +0.000 A 
ATOM      7  C   UNL     1       3.138   5.087  18.600  0.00  0.00    +0.000 A 
ENDROOT
BRANCH   1  10
ATOM      8  O   UNL     1       6.063   4.229  17.134  0.00  0.00    +0.000 OA
ATOM      9  C   UNL     1       5.256   4.272  16.217  0.00  0.00    +0.000 C 
ATOM     10  N   UNL     1       3.874   4.241  16.337  0.00  0.00    +0.000 N 
ATOM     11  H   UNL     1       3.415   3.786  15.554  0.00  0.00    +0.000 HD
BRANCH   9  12
ATOM     12  C   UNL     1       5.749   4.227  14.813  0.00  0.00    +0.000 A 
ATOM     13  C   UNL     1       5.232   3.312  13.887  0.00  0.00    +0.000 A 
ATOM     14  C   UNL     1       5.718   3.279  12.579  0.00  0.00    +0.000 A 
ATOM     15  C   UNL     1       6.746   4.144  12.198  0.00  0.00    +0.000 A 
ATOM     16  C   UNL     1       7.268   5.052  13.131  0.00  0.00    +0.000 A 
ATOM     17  C   UNL     1       6.760   5.117  14.435  0.00  0.00    +0.000 A 
BRANCH  16  18
ATOM     18  N   UNL     1       8.389   5.918  12.745  0.00  0.00    +0.000 N 
ATOM     19  O   UNL     1       9.372   5.955  13.499  0.00  0.00    +0.000 OA
ATOM     20  O   UNL     1       8.274   6.578  11.705  0.00  0.00    +0.000 OA
ENDBRANCH  16  18
ENDBRANCH   9  12
ENDBRANCH   1  10
BRANCH   7  21
ATOM     21  O   UNL     1       3.575   6.393  18.572  0.00  0.00    +0.000 OA
BRANCH  21  22
ATOM     22  C   UNL     1       2.734   7.449  18.800  0.00  0.00    +0.000 A 
ATOM     23  C   UNL     1       2.477   8.252  17.695  0.00  0.00    +0.000 A 
ATOM     24  C   UNL     1       1.543   9.283  17.782  0.00  0.00    +0.000 A 
ATOM     25  C   UNL     1       0.824   9.529  18.970  0.00  0.00    +0.000 A 
ATOM     26  C   UNL     1       1.160   8.762  20.106  0.00  0.00    +0.000 A 
ATOM     27  C   UNL     1       2.160   7.767  20.024  0.00  0.00    +0.000 A 
BRANCH  25  28
ATOM     28  C   UNL     1      -0.283  10.534  18.811  0.00  0.00    +0.000 C 
ATOM     29  O   UNL     1      -0.133  11.690  19.184  0.00  0.00    +0.000 OA
BRANCH  28  30
ATOM     30  O   UNL     1      -1.381  10.185  18.122  0.00  0.00    +0.000 OA
ATOM     31  H   UNL     1      -1.898   9.432  18.491  0.00  0.00    +0.000 HD
ENDBRANCH  28  30
ENDBRANCH  25  28
BRANCH  26  32
ATOM     32  C   UNL     1       0.503   8.948  21.414  0.00  0.00    +0.000 C 
ATOM     33  O   UNL     1      -0.537   8.378  21.700  0.00  0.00    +0.000 OA
BRANCH  32  34
ATOM     34  O   UNL     1       1.185   9.701  22.300  0.00  0.00    +0.000 OA
ATOM     35  H   UNL     1       1.979   9.309  22.707  0.00  0.00    +0.000 HD
ENDBRANCH  32  34
ENDBRANCH  26  32
ENDBRANCH  21  22
ENDBRANCH   7  21
TORSDOF 9
ENDMDL
MODEL 5
REMARK VINA RESULT:      -7.7      2.992      7.669
REMARK  Name = 
REMARK  9 active torsions:
REMARK  status: ('A' for Active; 'I' for Inactive)
REMARK    1  A    between atoms: C_2  and  C_24
REMARK    2  A    between atoms: N_3  and  C_4
REMARK    3  A    between atoms: C_10  and  O_11
REMARK    4  A    between atoms: O_11  and  C_12
REMARK    5  A    between atoms: C_15  and  C_16
REMARK    6  A    between atoms: C_16  and  O_18
REMARK    7  A    between atoms: C_19  and  C_20
REMARK    8  A    between atoms: C_20  and  O_22
REMARK    9  A    between atoms: C_28  and  N_29
REMARK                            x       y       z     vdW  Elec       q    Type
REMARK                         _______ _______ _______ _____ _____    ______ ____
ROOT
ATOM      1  C   UNL     1       1.825   4.624  19.521  0.00  0.00    +0.000 A 
ATOM      2  C   UNL     1       1.380   3.940  20.664  0.00  0.00    +0.000 A 
ATOM      3  C   UNL     1       1.606   2.574  20.800  0.00  0.00    +0.000 A 
ATOM      4  F   UNL     1       1.114   1.932  21.867  0.00  0.00    +0.000 F 
ATOM      5  C   UNL     1       2.305   1.864  19.840  0.00  0.00    +0.000 A 
ATOM      6  C   UNL     1       2.800   2.541  18.727  0.00  0.00    +0.000 A 
ATOM      7  C   UNL     1       2.586   3.923  18.561  0.00  0.00    +0.000 A 
ENDROOT
BRANCH   1  10
ATOM      8  O   UNL     1       3.464   6.896  20.156  0.00  0.00    +0.000 OA
ATOM      9  C   UNL     1       2.315   7.019  19.759  0.00  0.00    +0.000 C 
ATOM     10  N   UNL     1       1.437   5.989  19.450  0.00  0.00    +0.000 N 
ATOM     11  H   UNL     1       0.790   6.225  18.705  0.00  0.00    +0.000 HD
BRANCH   9  12
ATOM     12  C   UNL     1       1.797   8.378  19.440  0.00  0.00    +0.000 A 
ATOM     13  C   UNL     1       1.925   8.925  18.156  0.00  0.00    +0.000 A 
ATOM     14  C   UNL     1       1.444  10.207  17.883  0.00  0.00    +0.000 A 
ATOM     15  C   UNL     1       0.858  10.961  18.902  0.00  0.00    +0.000 A 
ATOM     16  C   UNL     1       0.741  10.413  20.188  0.00  0.00    +0.000 A 
ATOM     17  C   UNL     1       1.188   9.114  20.462  0.00  0.00    +0.000 A 
BRANCH  16  18
ATOM     18  N   UNL     1       0.180  11.230  21.271  0.00  0.00    +0.000 N 
ATOM     19  O   UNL     1       0.807  12.244  21.610  0.00  0.00    +0.000 OA
ATOM     20  O   UNL     1      -0.870  10.842  21.799  0.00  0.00    +0.000 OA
ENDBRANCH  16  18
ENDBRANCH   9  12
ENDBRANCH   1  10
BRANCH   7  21
ATOM     21  O   UNL     1       3.165   4.394  17.404  0.00  0.00    +0.000 OA
BRANCH  21  22
ATOM     22  C   UNL     1       4.362   5.057  17.405  0.00  0.00    +0.000 A 
ATOM     23  C   UNL     1       4.318   6.364  16.935  0.00  0.00    +0.000 A 
ATOM     24  C   UNL     1       5.453   7.171  17.004  0.00  0.00    +0.000 A 
ATOM     25  C   UNL     1       6.660   6.701  17.561  0.00  0.00    +0.000 A 
ATOM     26  C   UNL     1       6.713   5.347  17.953  0.00  0.00    +0.000 A 
ATOM     27  C   UNL     1       5.577   4.518  17.812  0.00  0.00    +0.000 A 
BRANCH  25  28
ATOM     28  C   UNL     1       7.700   7.771  17.743  0.00  0.00    +0.000 C 
ATOM     29  O   UNL     1       7.736   8.739  16.993  0.00  0.00    +0.000 OA
BRANCH  28  30
ATOM     30  O   UNL     1       8.494   7.727  18.824  0.00  0.00    +0.000 OA
ATOM     31  H   UNL     1       8.087   7.354  19.640  0.00  0.00    +0.000 HD
ENDBRANCH  28  30
ENDBRANCH  25  28
BRANCH  26  32
ATOM     32  C   UNL     1       7.928   4.729  18.519  0.00  0.00    +0.000 C 
ATOM     33  O   UNL     1       8.643   3.991  17.862  0.00  0.00    +0.000 OA
BRANCH  32  34
ATOM     34  O   UNL     1       8.246   5.124  19.769  0.00  0.00    +0.000 OA
ATOM     35  H   UNL     1       8.831   5.898  19.861  0.00  0.00    +0.000 HD
ENDBRANCH  32  34
ENDBRANCH  26  32
ENDBRANCH  21  22
ENDBRANCH   7  21
TORSDOF 9
ENDMDL
MODEL 6
REMARK VINA RESULT:      -7.6      1.508      1.785
REMARK  Name = 
REMARK  9 active torsions:
REMARK  status: ('A' for Active; 'I' for Inactive)
REMARK    1  A    between atoms: C_2  and  C_24
REMARK    2  A    between atoms: N_3  and  C_4
REMARK    3  A    between atoms: C_10  and  O_11
REMARK    4  A    between atoms: O_11  and  C_12
REMARK    5  A    between atoms: C_15  and  C_16
REMARK    6  A    between atoms: C_16  and  O_18
REMARK    7  A    between atoms: C_19  and  C_20
REMARK    8  A    between atoms: C_20  and  O_22
REMARK    9  A    between atoms: C_28  and  N_29
REMARK                            x       y       z     vdW  Elec       q    Type
REMARK                         _______ _______ _______ _____ _____    ______ ____
ROOT
ATOM      1  C   UNL     1       3.445   4.251  19.284  0.00  0.00    +0.000 A 
ATOM      2  C   UNL     1       3.537   3.152  20.152  0.00  0.00    +0.000 A 
ATOM      3  C   UNL     1       2.669   3.032  21.233  0.00  0.00    +0.000 A 
ATOM      4  F   UNL     1       2.821   2.010  22.085  0.00  0.00    +0.000 F 
ATOM      5  C   UNL     1       1.670   3.964  21.456  0.00  0.00    +0.000 A 
ATOM      6  C   UNL     1       1.532   5.029  20.570  0.00  0.00    +0.000 A 
ATOM      7  C   UNL     1       2.397   5.179  19.469  0.00  0.00    +0.000 A 
ENDROOT
BRANCH   1  10
ATOM      8  O   UNL     1       3.203   3.395  16.552  0.00  0.00    +0.000 OA
ATOM      9  C   UNL     1       4.231   3.894  16.984  0.00  0.00    +0.000 C 
ATOM     10  N   UNL     1       4.455   4.316  18.287  0.00  0.00    +0.000 N 
ATOM     11  H   UNL     1       5.083   5.111  18.348  0.00  0.00    +0.000 HD
BRANCH   9  12
ATOM     12  C   UNL     1       5.335   4.218  16.039  0.00  0.00    +0.000 A 
ATOM     13  C   UNL     1       6.423   5.009  16.431  0.00  0.00    +0.000 A 
ATOM     14  C   UNL     1       7.439   5.311  15.524  0.00  0.00    +0.000 A 
ATOM     15  C   UNL     1       7.358   4.848  14.209  0.00  0.00    +0.000 A 
ATOM     16  C   UNL     1       6.262   4.064  13.818  0.00  0.00    +0.000 A 
ATOM     17  C   UNL     1       5.256   3.726  14.732  0.00  0.00    +0.000 A 
BRANCH  16  18
ATOM     18  N   UNL     1       6.149   3.630  12.421  0.00  0.00    +0.000 N 
ATOM     19  O   UNL     1       5.023   3.330  12.001  0.00  0.00    +0.000 OA
ATOM     20  O   UNL     1       7.190   3.563  11.754  0.00  0.00    +0.000 OA
ENDBRANCH  16  18
ENDBRANCH   9  12
ENDBRANCH   1  10
BRANCH   7  21
ATOM     21  O   UNL     1       2.080   6.289  18.718  0.00  0.00    +0.000 OA
BRANCH  21  22
ATOM     22  C   UNL     1       1.799   7.500  19.287  0.00  0.00    +0.000 A 
ATOM     23  C   UNL     1       1.935   8.598  18.447  0.00  0.00    +0.000 A 
ATOM     24  C   UNL     1       1.559   9.866  18.886  0.00  0.00    +0.000 A 
ATOM     25  C   UNL     1       1.017  10.072  20.172  0.00  0.00    +0.000 A 
ATOM     26  C   UNL     1       0.966   8.962  21.042  0.00  0.00    +0.000 A 
ATOM     27  C   UNL     1       1.417   7.696  20.610  0.00  0.00    +0.000 A 
BRANCH  25  28
ATOM     28  C   UNL     1       0.476  11.458  20.386  0.00  0.00    +0.000 C 
ATOM     29  O   UNL     1      -0.484  11.860  19.741  0.00  0.00    +0.000 OA
BRANCH  28  30
ATOM     30  O   UNL     1       0.965  12.195  21.396  0.00  0.00    +0.000 OA
ATOM     31  H   UNL     1       1.910  12.461  21.315  0.00  0.00    +0.000 HD
ENDBRANCH  28  30
ENDBRANCH  25  28
BRANCH  26  32
ATOM     32  C   UNL     1       0.451   9.057  22.421  0.00  0.00    +0.000 C 
ATOM     33  O   UNL     1       1.041   9.679  23.289  0.00  0.00    +0.000 OA
BRANCH  32  34
ATOM     34  O   UNL     1      -0.763   8.504  22.623  0.00  0.00    +0.000 OA
ATOM     35  H   UNL     1      -1.270   8.802  23.399  0.00  0.00    +0.000 HD
ENDBRANCH  32  34
ENDBRANCH  26  32
ENDBRANCH  21  22
ENDBRANCH   7  21
TORSDOF 9
ENDMDL
MODEL 7
REMARK VINA RESULT:      -7.6      3.030      7.756
REMARK  Name = 
REMARK  9 active torsions:
REMARK  status: ('A' for Active; 'I' for Inactive)
REMARK    1  A    between atoms: C_2  and  C_24
REMARK    2  A    between atoms: N_3  and  C_4
REMARK    3  A    between atoms: C_10  and  O_11
REMARK    4  A    between atoms: O_11  and  C_12
REMARK    5  A    between atoms: C_15  and  C_16
REMARK    6  A    between atoms: C_16  and  O_18
REMARK    7  A    between atoms: C_19  and  C_20
REMARK    8  A    between atoms: C_20  and  O_22
REMARK    9  A    between atoms: C_28  and  N_29
REMARK                            x       y       z     vdW  Elec       q    Type
REMARK                         _______ _______ _______ _____ _____    ______ ____
ROOT
ATOM      1  C   UNL     1       2.120   5.173  19.502  0.00  0.00    +0.000 A 
ATOM      2  C   UNL     1       1.512   4.558  20.608  0.00  0.00    +0.000 A 
ATOM      3  C   UNL     1       1.328   3.179  20.636  0.00  0.00    +0.000 A 
ATOM      4  F   UNL     1       0.685   2.625  21.672  0.00  0.00    +0.000 F 
ATOM      5  C   UNL     1       1.775   2.376  19.601  0.00  0.00    +0.000 A 
ATOM      6  C   UNL     1       2.430   2.967  18.523  0.00  0.00    +0.000 A 
ATOM      7  C   UNL     1       2.628   4.360  18.466  0.00  0.00    +0.000 A 
ENDROOT
BRANCH   1  10
ATOM      8  O   UNL     1       1.115   6.960  17.490  0.00  0.00    +0.000 OA
ATOM      9  C   UNL     1       1.615   7.370  18.527  0.00  0.00    +0.000 C 
ATOM     10  N   UNL     1       2.149   6.593  19.545  0.00  0.00    +0.000 N 
ATOM     11  H   UNL     1       2.038   7.008  20.465  0.00  0.00    +0.000 HD
BRANCH   9  12
ATOM     12  C   UNL     1       1.560   8.826  18.835  0.00  0.00    +0.000 A 
ATOM     13  C   UNL     1       2.038   9.781  17.929  0.00  0.00    +0.000 A 
ATOM     14  C   UNL     1       1.989  11.140  18.245  0.00  0.00    +0.000 A 
ATOM     15  C   UNL     1       1.486  11.549  19.482  0.00  0.00    +0.000 A 
ATOM     16  C   UNL     1       1.017  10.587  20.390  0.00  0.00    +0.000 A 
ATOM     17  C   UNL     1       1.030   9.224  20.067  0.00  0.00    +0.000 A 
BRANCH  16  18
ATOM     18  N   UNL     1       0.547  11.015  21.713  0.00  0.00    +0.000 N 
ATOM     19  O   UNL     1       0.488  10.158  22.607  0.00  0.00    +0.000 OA
ATOM     20  O   UNL     1       0.212  12.198  21.849  0.00  0.00    +0.000 OA
ENDBRANCH  16  18
ENDBRANCH   9  12
ENDBRANCH   1  10
BRANCH   7  21
ATOM     21  O   UNL     1       3.303   4.734  17.325  0.00  0.00    +0.000 OA
BRANCH  21  22
ATOM     22  C   UNL     1       4.525   5.349  17.368  0.00  0.00    +0.000 A 
ATOM     23  C   UNL     1       4.551   6.651  16.884  0.00  0.00    +0.000 A 
ATOM     24  C   UNL     1       5.713   7.413  16.991  0.00  0.00    +0.000 A 
ATOM     25  C   UNL     1       6.877   6.903  17.602  0.00  0.00    +0.000 A 
ATOM     26  C   UNL     1       6.860   5.552  18.009  0.00  0.00    +0.000 A 
ATOM     27  C   UNL     1       5.699   4.768  17.831  0.00  0.00    +0.000 A 
BRANCH  25  28
ATOM     28  C   UNL     1       7.951   7.934  17.816  0.00  0.00    +0.000 C 
ATOM     29  O   UNL     1       8.061   8.886  17.054  0.00  0.00    +0.000 OA
BRANCH  28  30
ATOM     30  O   UNL     1       8.691   7.877  18.933  0.00  0.00    +0.000 OA
ATOM     31  H   UNL     1       9.157   7.024  19.097  0.00  0.00    +0.000 HD
ENDBRANCH  28  30
ENDBRANCH  25  28
BRANCH  26  32
ATOM     32  C   UNL     1       8.026   4.895  18.631  0.00  0.00    +0.000 C 
ATOM     33  O   UNL     1       8.367   5.135  19.777  0.00  0.00    +0.000 OA
BRANCH  32  34
ATOM     34  O   UNL     1       8.615   3.938  17.884  0.00  0.00    +0.000 OA
ATOM     35  H   UNL     1       9.295   4.220  17.246  0.00  0.00    +0.000 HD
ENDBRANCH  32  34
ENDBRANCH  26  32
ENDBRANCH  21  22
ENDBRANCH   7  21
TORSDOF 9
ENDMDL
MODEL 8
REMARK VINA RESULT:      -7.5      1.497      1.763
REMARK  Name = 
REMARK  9 active torsions:
REMARK  status: ('A' for Active; 'I' for Inactive)
REMARK    1  A    between atoms: C_2  and  C_24
REMARK    2  A    between atoms: N_3  and  C_4
REMARK    3  A    between atoms: C_10  and  O_11
REMARK    4  A    between atoms: O_11  and  C_12
REMARK    5  A    between atoms: C_15  and  C_16
REMARK    6  A    between atoms: C_16  and  O_18
REMARK    7  A    between atoms: C_19  and  C_20
REMARK    8  A    between atoms: C_20  and  O_22
REMARK    9  A    between atoms: C_28  and  N_29
REMARK                            x       y       z     vdW  Elec       q    Type
REMARK                         _______ _______ _______ _____ _____    ______ ____
ROOT
ATOM      1  C   UNL     1       3.860   4.853  17.608  0.00  0.00    +0.000 A 
ATOM      2  C   UNL     1       3.928   3.632  18.298  0.00  0.00    +0.000 A 
ATOM      3  C   UNL     1       3.438   3.528  19.596  0.00  0.00    +0.000 A 
ATOM      4  F   UNL     1       3.575   2.372  20.257  0.00  0.00    +0.000 F 
ATOM      5  C   UNL     1       2.837   4.606  20.224  0.00  0.00    +0.000 A 
ATOM      6  C   UNL     1       2.713   5.807  19.530  0.00  0.00    +0.000 A 
ATOM      7  C   UNL     1       3.201   5.944  18.216  0.00  0.00    +0.000 A 
ENDROOT
BRANCH   1  10
ATOM      8  O   UNL     1       6.676   4.594  17.102  0.00  0.00    +0.000 OA
ATOM      9  C   UNL     1       5.864   4.704  16.196  0.00  0.00    +0.000 C 
ATOM     10  N   UNL     1       4.492   4.859  16.336  0.00  0.00    +0.000 N 
ATOM     11  H   UNL     1       3.963   4.437  15.579  0.00  0.00    +0.000 HD
BRANCH   9  12
ATOM     12  C   UNL     1       6.320   4.540  14.788  0.00  0.00    +0.000 A 
ATOM     13  C   UNL     1       7.419   5.252  14.289  0.00  0.00    +0.000 A 
ATOM     14  C   UNL     1       7.820   5.092  12.962  0.00  0.00    +0.000 A 
ATOM     15  C   UNL     1       7.105   4.240  12.117  0.00  0.00    +0.000 A 
ATOM     16  C   UNL     1       5.999   3.537  12.618  0.00  0.00    +0.000 A 
ATOM     17  C   UNL     1       5.612   3.664  13.959  0.00  0.00    +0.000 A 
BRANCH  16  18
ATOM     18  N   UNL     1       5.213   2.690  11.713  0.00  0.00    +0.000 N 
ATOM     19  O   UNL     1       4.095   3.098  11.369  0.00  0.00    +0.000 OA
ATOM     20  O   UNL     1       5.703   1.606  11.370  0.00  0.00    +0.000 OA
ENDBRANCH  16  18
ENDBRANCH   9  12
ENDBRANCH   1  10
BRANCH   7  21
ATOM     21  O   UNL     1       2.968   7.204  17.713  0.00  0.00    +0.000 OA
BRANCH  21  22
ATOM     22  C   UNL     1       2.292   8.160  18.421  0.00  0.00    +0.000 A 
ATOM     23  C   UNL     1       1.986   9.317  17.715  0.00  0.00    +0.000 A 
ATOM     24  C   UNL     1       1.196  10.305  18.300  0.00  0.00    +0.000 A 
ATOM     25  C   UNL     1       0.672  10.157  19.602  0.00  0.00    +0.000 A 
ATOM     26  C   UNL     1       1.064   9.017  20.335  0.00  0.00    +0.000 A 
ATOM     27  C   UNL     1       1.923   8.057  19.757  0.00  0.00    +0.000 A 
BRANCH  25  28
ATOM     28  C   UNL     1      -0.324  11.219  19.978  0.00  0.00    +0.000 C 
ATOM     29  O   UNL     1       0.003  12.152  20.700  0.00  0.00    +0.000 OA
BRANCH  28  30
ATOM     30  O   UNL     1      -1.532  11.210  19.394  0.00  0.00    +0.000 OA
ATOM     31  H   UNL     1      -2.272  10.865  19.945  0.00  0.00    +0.000 HD
ENDBRANCH  28  30
ENDBRANCH  25  28
BRANCH  26  32
ATOM     32  C   UNL     1       0.610   8.766  21.717  0.00  0.00    +0.000 C 
ATOM     33  O   UNL     1       1.178   9.252  22.681  0.00  0.00    +0.000 OA
BRANCH  32  34
ATOM     34  O   UNL     1      -0.533   8.058  21.829  0.00  0.00    +0.000 OA
ATOM     35  H   UNL     1      -0.574   7.196  21.376  0.00  0.00    +0.000 HD
ENDBRANCH  32  34
ENDBRANCH  26  32
ENDBRANCH  21  22
ENDBRANCH   7  21
TORSDOF 9
ENDMDL
MODEL 9
REMARK VINA RESULT:      -7.5      1.636      1.834
REMARK  Name = 
REMARK  9 active torsions:
REMARK  status: ('A' for Active; 'I' for Inactive)
REMARK    1  A    between atoms: C_2  and  C_24
REMARK    2  A    between atoms: N_3  and  C_4
REMARK    3  A    between atoms: C_10  and  O_11
REMARK    4  A    between atoms: O_11  and  C_12
REMARK    5  A    between atoms: C_15  and  C_16
REMARK    6  A    between atoms: C_16  and  O_18
REMARK    7  A    between atoms: C_19  and  C_20
REMARK    8  A    between atoms: C_20  and  O_22
REMARK    9  A    between atoms: C_28  and  N_29
REMARK                            x       y       z     vdW  Elec       q    Type
REMARK                         _______ _______ _______ _____ _____    ______ ____
ROOT
ATOM      1  C   UNL     1       3.780   4.338  17.814  0.00  0.00    +0.000 A 
ATOM      2  C   UNL     1       4.059   3.240  18.644  0.00  0.00    +0.000 A 
ATOM      3  C   UNL     1       3.631   3.231  19.968  0.00  0.00    +0.000 A 
ATOM      4  F   UNL     1       3.967   2.203  20.757  0.00  0.00    +0.000 F 
ATOM      5  C   UNL     1       2.887   4.276  20.487  0.00  0.00    +0.000 A 
ATOM      6  C   UNL     1       2.556   5.346  19.659  0.00  0.00    +0.000 A 
ATOM      7  C   UNL     1       2.978   5.385  18.316  0.00  0.00    +0.000 A 
ENDROOT
BRANCH   1  10
ATOM      8  O   UNL     1       5.897   6.006  16.819  0.00  0.00    +0.000 OA
ATOM      9  C   UNL     1       5.404   5.117  16.142  0.00  0.00    +0.000 C 
ATOM     10  N   UNL     1       4.365   4.276  16.520  0.00  0.00    +0.000 N 
ATOM     11  H   UNL     1       4.432   3.350  16.111  0.00  0.00    +0.000 HD
BRANCH   9  12
ATOM     12  C   UNL     1       6.017   4.777  14.829  0.00  0.00    +0.000 A 
ATOM     13  C   UNL     1       7.241   5.329  14.431  0.00  0.00    +0.000 A 
ATOM     14  C   UNL     1       7.791   5.007  13.189  0.00  0.00    +0.000 A 
ATOM     15  C   UNL     1       7.102   4.152  12.325  0.00  0.00    +0.000 A 
ATOM     16  C   UNL     1       5.872   3.609  12.724  0.00  0.00    +0.000 A 
ATOM     17  C   UNL     1       5.331   3.898  13.983  0.00  0.00    +0.000 A 
BRANCH  16  18
ATOM     18  N   UNL     1       5.122   2.760  11.790  0.00  0.00    +0.000 N 
ATOM     19  O   UNL     1       5.645   1.694  11.435  0.00  0.00    +0.000 OA
ATOM     20  O   UNL     1       4.024   3.172  11.393  0.00  0.00    +0.000 OA
ENDBRANCH  16  18
ENDBRANCH   9  12
ENDBRANCH   1  10
BRANCH   7  21
ATOM     21  O   UNL     1       2.535   6.520  17.674  0.00  0.00    +0.000 OA
BRANCH  21  22
ATOM     22  C   UNL     1       2.158   7.645  18.357  0.00  0.00    +0.000 A 
ATOM     23  C   UNL     1       2.067   8.801  17.592  0.00  0.00    +0.000 A 
ATOM     24  C   UNL     1       1.576   9.977  18.158  0.00  0.00    +0.000 A 
ATOM     25  C   UNL     1       1.145  10.027  19.499  0.00  0.00    +0.000 A 
ATOM     26  C   UNL     1       1.325   8.869  20.285  0.00  0.00    +0.000 A 
ATOM     27  C   UNL     1       1.890   7.704  19.719  0.00  0.00    +0.000 A 
BRANCH  25  28
ATOM     28  C   UNL     1       0.454  11.311  19.866  0.00  0.00    +0.000 C 
ATOM     29  O   UNL     1       0.924  12.390  19.528  0.00  0.00    +0.000 OA
BRANCH  28  30
ATOM     30  O   UNL     1      -0.758  11.255  20.440  0.00  0.00    +0.000 OA
ATOM     31  H   UNL     1      -1.434  10.719  19.963  0.00  0.00    +0.000 HD
ENDBRANCH  28  30
ENDBRANCH  25  28
BRANCH  26  32
ATOM     32  C   UNL     1       0.944   8.807  21.709  0.00  0.00    +0.000 C 
ATOM     33  O   UNL     1      -0.181   8.496  22.063  0.00  0.00    +0.000 OA
BRANCH  32  34
ATOM     34  O   UNL     1       1.949   9.011  22.584  0.00  0.00    +0.000 OA
ATOM     35  H   UNL     1       1.782   9.617  23.329  0.00  0.00    +0.000 HD
ENDBRANCH  32  34
ENDBRANCH  26  32
ENDBRANCH  21  22
ENDBRANCH   7  21
TORSDOF 9
ENDMDL
