MODEL 1
REMARK VINA RESULT:      -7.0      0.000      0.000
REMARK  Name = 
REMARK  4 active torsions:
REMARK  status: ('A' for Active; 'I' for Inactive)
REMARK    1  A    between atoms: C_1  and  C_2
REMARK    2  A    between atoms: C_6  and  C_7
REMARK    3  A    between atoms: C_8  and  N_9
REMARK    4  A    between atoms: N_9  and  C_10
REMARK                            x       y       z     vdW  Elec       q    Type
REMARK                         _______ _______ _______ _____ _____    ______ ____
ROOT
ATOM      1  C   UNL     1       3.221   6.209  18.532  0.00  0.00    +0.000 A 
ATOM      2  C   UNL     1       2.680   5.912  19.750  0.00  0.00    +0.000 A 
ATOM      3  N   UNL     1       1.762   6.749  20.376  0.00  0.00    +0.000 NA
ATOM      4  C   UNL     1       1.576   7.950  19.926  0.00  0.00    +0.000 A 
ATOM      5  N   UNL     1       0.729   8.870  20.484  0.00  0.00    +0.000 N 
ATOM      6  C   UNL     1       1.234  10.139  21.044  0.00  0.00    +0.000 C 
ATOM      7  C   UNL     1       1.102  10.147  22.573  0.00  0.00    +0.000 C 
ATOM      8  O   UNL     1      -0.251   9.901  22.981  0.00  0.00    +0.000 OA
ATOM      9  C   UNL     1      -0.675   8.607  22.516  0.00  0.00    +0.000 C 
ATOM     10  C   UNL     1      -0.607   8.513  20.988  0.00  0.00    +0.000 C 
ATOM     11  N   UNL     1       2.199   8.382  18.791  0.00  0.00    +0.000 N 
ATOM     12  C   UNL     1       2.981   7.583  18.012  0.00  0.00    +0.000 A 
ATOM     13  O   UNL     1       3.528   8.057  17.018  0.00  0.00    +0.000 OA
ATOM     14  H   UNL     1       2.022   9.314  18.452  0.00  0.00    +0.000 HD
ENDROOT
BRANCH   1  20
ATOM     15  C   UNL     1       7.782   4.770  17.967  0.00  0.00    +0.000 C 
ATOM     16  C   UNL     1       6.363   4.675  17.496  0.00  0.00    +0.000 A 
ATOM     17  C   UNL     1       6.034   3.922  16.377  0.00  0.00    +0.000 A 
ATOM     18  C   UNL     1       4.700   3.859  15.983  0.00  0.00    +0.000 A 
ATOM     19  C   UNL     1       3.738   4.559  16.711  0.00  0.00    +0.000 A 
ATOM     20  C   UNL     1       4.144   5.341  17.779  0.00  0.00    +0.000 A 
ATOM     21  N   UNL     1       5.443   5.394  18.182  0.00  0.00    +0.000 NA
ENDBRANCH   1  20
BRANCH   2  22
ATOM     22  N   UNL     1       3.260   4.950  20.589  0.00  0.00    +0.000 N 
ATOM     23  H   UNL     1       3.062   5.379  21.498  0.00  0.00    +0.000 HD
BRANCH  22  24
ATOM     24  C   UNL     1       3.047   3.504  20.839  0.00  0.00    +0.000 C 
ATOM     25  C   UNL     1       3.379   2.486  19.761  0.00  0.00    +0.000 C 
ATOM     26  C   UNL     1       2.186   2.009  18.926  0.00  0.00    +0.000 C 
ATOM     27  C   UNL     1       0.865   2.770  19.098  0.00  0.00    +0.000 C 
ATOM     28  N   UNL     1       0.636   3.517  20.340  0.00  0.00    +0.000 NA
ATOM     29  C   UNL     1       1.631   3.214  21.365  0.00  0.00    +0.000 C 
ATOM     30  H   UNL     1       0.767   4.511  20.107  0.00  0.00    +0.000 HD
ENDBRANCH  22  24
ENDBRANCH   2  22
TORSDOF 3
ENDMDL
MODEL 2
REMARK VINA RESULT:      -6.9      6.202      8.858
REMARK  Name = 
REMARK  4 active torsions:
REMARK  status: ('A' for Active; 'I' for Inactive)
REMARK    1  A    between atoms: C_1  and  C_2
REMARK    2  A    between atoms: C_6  and  C_7
REMARK    3  A    between atoms: C_8  and  N_9
REMARK    4  A    between atoms: N_9  and  C_10
REMARK                            x       y       z     vdW  Elec       q    Type
REMARK                         _______ _______ _______ _____ _____    ______ ____
ROOT
ATOM      1  C   UNL     1      -1.673  12.120  20.867  0.00  0.00    +0.000 A 
ATOM      2  C   UNL     1      -2.805  12.598  20.270  0.00  0.00    +0.000 A 
ATOM      3  N   UNL     1      -3.828  13.200  20.997  0.00  0.00    +0.000 NA
ATOM      4  C   UNL     1      -3.837  13.110  22.289  0.00  0.00    +0.000 A 
ATOM      5  N   UNL     1      -4.810  13.629  23.100  0.00  0.00    +0.000 N 
ATOM      6  C   UNL     1      -5.651  12.759  23.945  0.00  0.00    +0.000 C 
ATOM      7  C   UNL     1      -7.096  12.734  23.427  0.00  0.00    +0.000 C 
ATOM      8  O   UNL     1      -7.642  14.057  23.339  0.00  0.00    +0.000 OA
ATOM      9  C   UNL     1      -6.865  14.847  22.421  0.00  0.00    +0.000 C 
ATOM     10  C   UNL     1      -5.406  14.956  22.873  0.00  0.00    +0.000 C 
ATOM     11  N   UNL     1      -2.812  12.511  22.962  0.00  0.00    +0.000 N 
ATOM     12  C   UNL     1      -1.685  12.044  22.353  0.00  0.00    +0.000 A 
ATOM     13  O   UNL     1      -0.818  11.493  23.029  0.00  0.00    +0.000 OA
ATOM     14  H   UNL     1      -2.835  12.471  23.968  0.00  0.00    +0.000 HD
ENDROOT
BRANCH   1  20
ATOM     15  C   UNL     1       2.198  12.987  18.137  0.00  0.00    +0.000 C 
ATOM     16  C   UNL     1       1.333  11.965  18.810  0.00  0.00    +0.000 A 
ATOM     17  C   UNL     1       1.573  10.608  18.641  0.00  0.00    +0.000 A 
ATOM     18  C   UNL     1       0.746   9.697  19.293  0.00  0.00    +0.000 A 
ATOM     19  C   UNL     1      -0.301  10.169  20.084  0.00  0.00    +0.000 A 
ATOM     20  C   UNL     1      -0.523  11.534  20.158  0.00  0.00    +0.000 A 
ATOM     21  N   UNL     1       0.291  12.432  19.538  0.00  0.00    +0.000 NA
ENDBRANCH   1  20
BRANCH   2  22
ATOM     22  N   UNL     1      -3.163  12.208  18.971  0.00  0.00    +0.000 N 
ATOM     23  H   UNL     1      -2.234  12.178  18.543  0.00  0.00    +0.000 HD
BRANCH  22  24
ATOM     24  C   UNL     1      -3.853  11.038  18.377  0.00  0.00    +0.000 C 
ATOM     25  C   UNL     1      -3.051   9.829  17.921  0.00  0.00    +0.000 C 
ATOM     26  C   UNL     1      -2.742   9.781  16.422  0.00  0.00    +0.000 C 
ATOM     27  C   UNL     1      -3.052  11.041  15.604  0.00  0.00    +0.000 C 
ATOM     28  N   UNL     1      -4.052  11.987  16.113  0.00  0.00    +0.000 NA
ATOM     29  C   UNL     1      -4.806  11.447  17.242  0.00  0.00    +0.000 C 
ATOM     30  H   UNL     1      -3.525  12.790  16.487  0.00  0.00    +0.000 HD
ENDBRANCH  22  24
ENDBRANCH   2  22
TORSDOF 3
ENDMDL
MODEL 3
REMARK VINA RESULT:      -6.8      1.865      6.376
REMARK  Name = 
REMARK  4 active torsions:
REMARK  status: ('A' for Active; 'I' for Inactive)
REMARK    1  A    between atoms: C_1  and  C_2
REMARK    2  A    between atoms: C_6  and  C_7
REMARK    3  A    between atoms: C_8  and  N_9
REMARK    4  A    between atoms: N_9  and  C_10
REMARK                            x       y       z     vdW  Elec       q    Type
REMARK                         _______ _______ _______ _____ _____    ______ ____
ROOT
ATOM      1  C   UNL     1       2.473   7.836  19.131  0.00  0.00    +0.000 A 
ATOM      2  C   UNL     1       3.097   6.657  19.424  0.00  0.00    +0.000 A 
ATOM      3  N   UNL     1       4.168   6.181  18.675  0.00  0.00    +0.000 NA
ATOM      4  C   UNL     1       4.450   6.729  17.535  0.00  0.00    +0.000 A 
ATOM      5  N   UNL     1       5.455   6.320  16.700  0.00  0.00    +0.000 N 
ATOM      6  C   UNL     1       5.167   5.804  15.347  0.00  0.00    +0.000 C 
ATOM      7  C   UNL     1       5.456   4.299  15.268  0.00  0.00    +0.000 C 
ATOM      8  O   UNL     1       6.804   4.005  15.660  0.00  0.00    +0.000 OA
ATOM      9  C   UNL     1       7.019   4.417  17.022  0.00  0.00    +0.000 C 
ATOM     10  C   UNL     1       6.783   5.921  17.194  0.00  0.00    +0.000 C 
ATOM     11  N   UNL     1       3.771   7.827  17.093  0.00  0.00    +0.000 N 
ATOM     12  C   UNL     1       2.822   8.471  17.831  0.00  0.00    +0.000 A 
ATOM     13  O   UNL     1       2.237   9.438  17.349  0.00  0.00    +0.000 OA
ATOM     14  H   UNL     1       4.023   8.245  16.213  0.00  0.00    +0.000 HD
ENDROOT
BRANCH   1  20
ATOM     15  C   UNL     1      -1.274  10.861  19.097  0.00  0.00    +0.000 C 
ATOM     16  C   UNL     1      -0.415   9.927  19.893  0.00  0.00    +0.000 A 
ATOM     17  C   UNL     1      -0.605   9.778  21.260  0.00  0.00    +0.000 A 
ATOM     18  C   UNL     1       0.214   8.893  21.956  0.00  0.00    +0.000 A 
ATOM     19  C   UNL     1       1.203   8.192  21.267  0.00  0.00    +0.000 A 
ATOM     20  C   UNL     1       1.380   8.435  19.916  0.00  0.00    +0.000 A 
ATOM     21  N   UNL     1       0.572   9.286  19.225  0.00  0.00    +0.000 NA
ENDBRANCH   1  20
BRANCH   2  22
ATOM     22  N   UNL     1       2.494   5.701  20.254  0.00  0.00    +0.000 N 
ATOM     23  H   UNL     1       2.087   6.322  20.958  0.00  0.00    +0.000 HD
BRANCH  22  24
ATOM     24  C   UNL     1       1.454   4.658  20.075  0.00  0.00    +0.000 C 
ATOM     25  C   UNL     1       1.356   3.502  21.057  0.00  0.00    +0.000 C 
ATOM     26  C   UNL     1       2.029   2.203  20.601  0.00  0.00    +0.000 C 
ATOM     27  C   UNL     1       2.915   2.277  19.350  0.00  0.00    +0.000 C 
ATOM     28  N   UNL     1       2.688   3.360  18.386  0.00  0.00    +0.000 NA
ATOM     29  C   UNL     1       1.450   4.089  18.647  0.00  0.00    +0.000 C 
ATOM     30  H   UNL     1       3.449   4.039  18.531  0.00  0.00    +0.000 HD
ENDBRANCH  22  24
ENDBRANCH   2  22
TORSDOF 3
ENDMDL
MODEL 4
REMARK VINA RESULT:      -6.7      1.711      6.271
REMARK  Name = 
REMARK  4 active torsions:
REMARK  status: ('A' for Active; 'I' for Inactive)
REMARK    1  A    between atoms: C_1  and  C_2
REMARK    2  A    between atoms: C_6  and  C_7
REMARK    3  A    between atoms: C_8  and  N_9
REMARK    4  A    between atoms: N_9  and  C_10
REMARK                            x       y       z     vdW  Elec       q    Type
REMARK                         _______ _______ _______ _____ _____    ______ ____
ROOT
ATOM      1  C   UNL     1       2.511   7.731  19.096  0.00  0.00    +0.000 A 
ATOM      2  C   UNL     1       3.149   6.554  19.364  0.00  0.00    +0.000 A 
ATOM      3  N   UNL     1       4.226   6.106  18.604  0.00  0.00    +0.000 NA
ATOM      4  C   UNL     1       4.500   6.682  17.477  0.00  0.00    +0.000 A 
ATOM      5  N   UNL     1       5.509   6.303  16.632  0.00  0.00    +0.000 N 
ATOM      6  C   UNL     1       5.226   5.813  15.268  0.00  0.00    +0.000 C 
ATOM      7  C   UNL     1       5.533   4.313  15.157  0.00  0.00    +0.000 C 
ATOM      8  O   UNL     1       6.885   4.027  15.542  0.00  0.00    +0.000 OA
ATOM      9  C   UNL     1       7.096   4.413  16.912  0.00  0.00    +0.000 C 
ATOM     10  C   UNL     1       6.842   5.909  17.117  0.00  0.00    +0.000 C 
ATOM     11  N   UNL     1       3.808   7.782  17.058  0.00  0.00    +0.000 N 
ATOM     12  C   UNL     1       2.852   8.398  17.810  0.00  0.00    +0.000 A 
ATOM     13  O   UNL     1       2.255   9.369  17.349  0.00  0.00    +0.000 OA
ATOM     14  H   UNL     1       4.054   8.221  16.187  0.00  0.00    +0.000 HD
ENDROOT
BRANCH   1  20
ATOM     15  C   UNL     1      -1.018  11.003  19.270  0.00  0.00    +0.000 C 
ATOM     16  C   UNL     1      -0.276   9.911  19.977  0.00  0.00    +0.000 A 
ATOM     17  C   UNL     1      -0.562   9.597  21.299  0.00  0.00    +0.000 A 
ATOM     18  C   UNL     1       0.149   8.570  21.911  0.00  0.00    +0.000 A 
ATOM     19  C   UNL     1       1.133   7.894  21.189  0.00  0.00    +0.000 A 
ATOM     20  C   UNL     1       1.412   8.300  19.895  0.00  0.00    +0.000 A 
ATOM     21  N   UNL     1       0.708   9.293  19.283  0.00  0.00    +0.000 NA
ENDBRANCH   1  20
BRANCH   2  22
ATOM     22  N   UNL     1       2.558   5.573  20.173  0.00  0.00    +0.000 N 
ATOM     23  H   UNL     1       1.640   5.517  19.726  0.00  0.00    +0.000 HD
BRANCH  22  24
ATOM     24  C   UNL     1       2.863   4.161  20.507  0.00  0.00    +0.000 C 
ATOM     25  C   UNL     1       3.363   3.212  19.430  0.00  0.00    +0.000 C 
ATOM     26  C   UNL     1       2.291   2.312  18.807  0.00  0.00    +0.000 C 
ATOM     27  C   UNL     1       0.830   2.627  19.152  0.00  0.00    +0.000 C 
ATOM     28  N   UNL     1       0.536   3.366  20.385  0.00  0.00    +0.000 NA
ATOM     29  C   UNL     1       1.703   3.483  21.255  0.00  0.00    +0.000 C 
ATOM     30  H   UNL     1       0.304   4.327  20.096  0.00  0.00    +0.000 HD
ENDBRANCH  22  24
ENDBRANCH   2  22
TORSDOF 3
ENDMDL
MODEL 5
REMARK VINA RESULT:      -6.6      5.309      8.130
REMARK  Name = 
REMARK  4 active torsions:
REMARK  status: ('A' for Active; 'I' for Inactive)
REMARK    1  A    between atoms: C_1  and  C_2
REMARK    2  A    between atoms: C_6  and  C_7
REMARK    3  A    between atoms: C_8  and  N_9
REMARK    4  A    between atoms: N_9  and  C_10
REMARK                            x       y       z     vdW  Elec       q    Type
REMARK                         _______ _______ _______ _____ _____    ______ ____
ROOT
ATOM      1  C   UNL     1       0.788  12.354  19.189  0.00  0.00    +0.000 A 
ATOM      2  C   UNL     1      -0.134  13.003  18.419  0.00  0.00    +0.000 A 
ATOM      3  N   UNL     1      -0.379  14.367  18.549  0.00  0.00    +0.000 NA
ATOM      4  C   UNL     1       0.094  15.010  19.568  0.00  0.00    +0.000 A 
ATOM      5  N   UNL     1      -0.114  16.340  19.817  0.00  0.00    +0.000 N 
ATOM      6  C   UNL     1      -0.837  16.792  21.023  0.00  0.00    +0.000 C 
ATOM      7  C   UNL     1      -2.205  17.379  20.646  0.00  0.00    +0.000 C 
ATOM      8  O   UNL     1      -2.072  18.441  19.691  0.00  0.00    +0.000 OA
ATOM      9  C   UNL     1      -1.467  17.942  18.485  0.00  0.00    +0.000 C 
ATOM     10  C   UNL     1      -0.076  17.360  18.757  0.00  0.00    +0.000 C 
ATOM     11  N   UNL     1       0.908  14.395  20.476  0.00  0.00    +0.000 N 
ATOM     12  C   UNL     1       1.345  13.110  20.343  0.00  0.00    +0.000 A 
ATOM     13  O   UNL     1       2.054  12.621  21.219  0.00  0.00    +0.000 OA
ATOM     14  H   UNL     1       1.277  14.923  21.249  0.00  0.00    +0.000 HD
ENDROOT
BRANCH   1  20
ATOM     15  C   UNL     1       0.820   8.038  21.324  0.00  0.00    +0.000 C 
ATOM     16  C   UNL     1       1.185   8.851  20.121  0.00  0.00    +0.000 A 
ATOM     17  C   UNL     1       1.902   8.289  19.073  0.00  0.00    +0.000 A 
ATOM     18  C   UNL     1       2.212   9.083  17.973  0.00  0.00    +0.000 A 
ATOM     19  C   UNL     1       1.805  10.417  17.957  0.00  0.00    +0.000 A 
ATOM     20  C   UNL     1       1.148  10.931  19.062  0.00  0.00    +0.000 A 
ATOM     21  N   UNL     1       0.827  10.157  20.135  0.00  0.00    +0.000 NA
ENDBRANCH   1  20
BRANCH   2  22
ATOM     22  N   UNL     1      -1.120  12.298  17.713  0.00  0.00    +0.000 N 
ATOM     23  H   UNL     1      -0.576  12.028  16.889  0.00  0.00    +0.000 HD
BRANCH  22  24
ATOM     24  C   UNL     1      -1.952  11.100  17.982  0.00  0.00    +0.000 C 
ATOM     25  C   UNL     1      -1.826   9.869  17.100  0.00  0.00    +0.000 C 
ATOM     26  C   UNL     1      -2.885   9.744  16.001  0.00  0.00    +0.000 C 
ATOM     27  C   UNL     1      -3.786  10.962  15.758  0.00  0.00    +0.000 C 
ATOM     28  N   UNL     1      -3.968  11.935  16.841  0.00  0.00    +0.000 NA
ATOM     29  C   UNL     1      -3.442  11.454  18.116  0.00  0.00    +0.000 C 
ATOM     30  H   UNL     1      -3.395  12.754  16.593  0.00  0.00    +0.000 HD
ENDBRANCH  22  24
ENDBRANCH   2  22
TORSDOF 3
ENDMDL
MODEL 6
REMARK VINA RESULT:      -6.5      6.030      8.730
REMARK  Name = 
REMARK  4 active torsions:
REMARK  status: ('A' for Active; 'I' for Inactive)
REMARK    1  A    between atoms: C_1  and  C_2
REMARK    2  A    between atoms: C_6  and  C_7
REMARK    3  A    between atoms: C_8  and  N_9
REMARK    4  A    between atoms: N_9  and  C_10
REMARK                            x       y       z     vdW  Elec       q    Type
REMARK                         _______ _______ _______ _____ _____    ______ ____
ROOT
ATOM      1  C   UNL     1      -0.650  13.404  20.276  0.00  0.00    +0.000 A 
ATOM      2  C   UNL     1      -1.963  13.380  19.903  0.00  0.00    +0.000 A 
ATOM      3  N   UNL     1      -2.983  13.787  20.758  0.00  0.00    +0.000 NA
ATOM      4  C   UNL     1      -2.731  13.976  22.014  0.00  0.00    +0.000 A 
ATOM      5  N   UNL     1      -3.662  14.338  22.951  0.00  0.00    +0.000 N 
ATOM      6  C   UNL     1      -3.993  13.456  24.087  0.00  0.00    +0.000 C 
ATOM      7  C   UNL     1      -5.411  12.887  23.937  0.00  0.00    +0.000 C 
ATOM      8  O   UNL     1      -6.380  13.934  23.792  0.00  0.00    +0.000 OA
ATOM      9  C   UNL     1      -6.095  14.706  22.612  0.00  0.00    +0.000 C 
ATOM     10  C   UNL     1      -4.704  15.343  22.684  0.00  0.00    +0.000 C 
ATOM     11  N   UNL     1      -1.461  13.871  22.503  0.00  0.00    +0.000 N 
ATOM     12  C   UNL     1      -0.370  13.647  21.717  0.00  0.00    +0.000 A 
ATOM     13  O   UNL     1       0.738  13.540  22.239  0.00  0.00    +0.000 OA
ATOM     14  H   UNL     1      -1.290  14.042  23.480  0.00  0.00    +0.000 HD
ENDROOT
BRANCH   1  20
ATOM     15  C   UNL     1       1.795   9.848  18.139  0.00  0.00    +0.000 C 
ATOM     16  C   UNL     1       1.679  11.319  18.400  0.00  0.00    +0.000 A 
ATOM     17  C   UNL     1       2.649  12.200  17.941  0.00  0.00    +0.000 A 
ATOM     18  C   UNL     1       2.494  13.559  18.202  0.00  0.00    +0.000 A 
ATOM     19  C   UNL     1       1.381  13.994  18.923  0.00  0.00    +0.000 A 
ATOM     20  C   UNL     1       0.486  13.054  19.405  0.00  0.00    +0.000 A 
ATOM     21  N   UNL     1       0.621  11.726  19.139  0.00  0.00    +0.000 NA
ENDBRANCH   1  20
BRANCH   2  22
ATOM     22  N   UNL     1      -2.392  12.633  18.796  0.00  0.00    +0.000 N 
ATOM     23  H   UNL     1      -1.504  12.550  18.295  0.00  0.00    +0.000 HD
BRANCH  22  24
ATOM     24  C   UNL     1      -3.019  11.303  18.604  0.00  0.00    +0.000 C 
ATOM     25  C   UNL     1      -2.219  10.162  17.998  0.00  0.00    +0.000 C 
ATOM     26  C   UNL     1      -2.445   9.931  16.501  0.00  0.00    +0.000 C 
ATOM     27  C   UNL     1      -3.243  11.000  15.743  0.00  0.00    +0.000 C 
ATOM     28  N   UNL     1      -4.158  11.865  16.494  0.00  0.00    +0.000 NA
ATOM     29  C   UNL     1      -4.364  11.403  17.865  0.00  0.00    +0.000 C 
ATOM     30  H   UNL     1      -3.690  12.780  16.575  0.00  0.00    +0.000 HD
ENDBRANCH  22  24
ENDBRANCH   2  22
TORSDOF 3
ENDMDL
MODEL 7
REMARK VINA RESULT:      -6.4      4.338      7.343
REMARK  Name = 
REMARK  4 active torsions:
REMARK  status: ('A' for Active; 'I' for Inactive)
REMARK    1  A    between atoms: C_1  and  C_2
REMARK    2  A    between atoms: C_6  and  C_7
REMARK    3  A    between atoms: C_8  and  N_9
REMARK    4  A    between atoms: N_9  and  C_10
REMARK                            x       y       z     vdW  Elec       q    Type
REMARK                         _______ _______ _______ _____ _____    ______ ____
ROOT
ATOM      1  C   UNL     1      -0.168  10.840  20.466  0.00  0.00    +0.000 A 
ATOM      2  C   UNL     1      -1.170  11.633  19.982  0.00  0.00    +0.000 A 
ATOM      3  N   UNL     1      -1.903  12.484  20.803  0.00  0.00    +0.000 NA
ATOM      4  C   UNL     1      -1.811  12.372  22.090  0.00  0.00    +0.000 A 
ATOM      5  N   UNL     1      -2.512  13.128  22.991  0.00  0.00    +0.000 N 
ATOM      6  C   UNL     1      -3.479  12.514  23.922  0.00  0.00    +0.000 C 
ATOM      7  C   UNL     1      -4.915  12.911  23.551  0.00  0.00    +0.000 C 
ATOM      8  O   UNL     1      -5.068  14.336  23.508  0.00  0.00    +0.000 OA
ATOM      9  C   UNL     1      -4.192  14.894  22.512  0.00  0.00    +0.000 C 
ATOM     10  C   UNL     1      -2.726  14.574  22.815  0.00  0.00    +0.000 C 
ATOM     11  N   UNL     1      -0.938  11.492  22.662  0.00  0.00    +0.000 N 
ATOM     12  C   UNL     1      -0.055  10.738  21.947  0.00  0.00    +0.000 A 
ATOM     13  O   UNL     1       0.681   9.950  22.536  0.00  0.00    +0.000 OA
ATOM     14  H   UNL     1      -0.873  11.439  23.665  0.00  0.00    +0.000 HD
ENDROOT
BRANCH   1  20
ATOM     15  C   UNL     1       2.103   6.603  20.190  0.00  0.00    +0.000 C 
ATOM     16  C   UNL     1       1.813   7.923  19.542  0.00  0.00    +0.000 A 
ATOM     17  C   UNL     1       2.425   8.278  18.348  0.00  0.00    +0.000 A 
ATOM     18  C   UNL     1       2.118   9.512  17.781  0.00  0.00    +0.000 A 
ATOM     19  C   UNL     1       1.218  10.357  18.430  0.00  0.00    +0.000 A 
ATOM     20  C   UNL     1       0.693   9.967  19.650  0.00  0.00    +0.000 A 
ATOM     21  N   UNL     1       0.975   8.755  20.202  0.00  0.00    +0.000 NA
ENDBRANCH   1  20
BRANCH   2  22
ATOM     22  N   UNL     1      -1.749  11.388  18.728  0.00  0.00    +0.000 N 
ATOM     23  H   UNL     1      -0.901  11.341  18.158  0.00  0.00    +0.000 HD
BRANCH  22  24
ATOM     24  C   UNL     1      -2.607  10.323  18.155  0.00  0.00    +0.000 C 
ATOM     25  C   UNL     1      -2.145   9.545  16.934  0.00  0.00    +0.000 C 
ATOM     26  C   UNL     1      -2.715  10.032  15.598  0.00  0.00    +0.000 C 
ATOM     27  C   UNL     1      -3.473  11.366  15.608  0.00  0.00    +0.000 C 
ATOM     28  N   UNL     1      -4.060  11.838  16.867  0.00  0.00    +0.000 NA
ATOM     29  C   UNL     1      -4.043  10.813  17.908  0.00  0.00    +0.000 C 
ATOM     30  H   UNL     1      -3.445  12.591  17.206  0.00  0.00    +0.000 HD
ENDBRANCH  22  24
ENDBRANCH   2  22
TORSDOF 3
ENDMDL
MODEL 8
REMARK VINA RESULT:      -6.4      1.861      6.277
REMARK  Name = 
REMARK  4 active torsions:
REMARK  status: ('A' for Active; 'I' for Inactive)
REMARK    1  A    between atoms: C_1  and  C_2
REMARK    2  A    between atoms: C_6  and  C_7
REMARK    3  A    between atoms: C_8  and  N_9
REMARK    4  A    between atoms: N_9  and  C_10
REMARK                            x       y       z     vdW  Elec       q    Type
REMARK                         _______ _______ _______ _____ _____    ______ ____
ROOT
ATOM      1  C   UNL     1       2.354   8.121  19.086  0.00  0.00    +0.000 A 
ATOM      2  C   UNL     1       2.926   6.947  19.486  0.00  0.00    +0.000 A 
ATOM      3  N   UNL     1       4.009   6.384  18.817  0.00  0.00    +0.000 NA
ATOM      4  C   UNL     1       4.353   6.840  17.654  0.00  0.00    +0.000 A 
ATOM      5  N   UNL     1       5.374   6.341  16.891  0.00  0.00    +0.000 N 
ATOM      6  C   UNL     1       5.120   5.739  15.567  0.00  0.00    +0.000 C 
ATOM      7  C   UNL     1       5.360   4.223  15.606  0.00  0.00    +0.000 C 
ATOM      8  O   UNL     1       6.681   3.916  16.072  0.00  0.00    +0.000 OA
ATOM      9  C   UNL     1       6.858   4.418  17.409  0.00  0.00    +0.000 C 
ATOM     10  C   UNL     1       6.667   5.936  17.465  0.00  0.00    +0.000 C 
ATOM     11  N   UNL     1       3.729   7.925  17.108  0.00  0.00    +0.000 N 
ATOM     12  C   UNL     1       2.775   8.649  17.759  0.00  0.00    +0.000 A 
ATOM     13  O   UNL     1       2.242   9.598  17.187  0.00  0.00    +0.000 OA
ATOM     14  H   UNL     1       4.029   8.270  16.212  0.00  0.00    +0.000 HD
ENDROOT
BRANCH   1  20
ATOM     15  C   UNL     1       0.393   9.222  23.344  0.00  0.00    +0.000 C 
ATOM     16  C   UNL     1       0.297   9.309  21.851  0.00  0.00    +0.000 A 
ATOM     17  C   UNL     1      -0.809   9.887  21.242  0.00  0.00    +0.000 A 
ATOM     18  C   UNL     1      -0.849   9.952  19.853  0.00  0.00    +0.000 A 
ATOM     19  C   UNL     1       0.211   9.428  19.113  0.00  0.00    +0.000 A 
ATOM     20  C   UNL     1       1.254   8.808  19.782  0.00  0.00    +0.000 A 
ATOM     21  N   UNL     1       1.308   8.757  21.141  0.00  0.00    +0.000 NA
ENDBRANCH   1  20
BRANCH   2  22
ATOM     22  N   UNL     1       2.260   6.072  20.356  0.00  0.00    +0.000 N 
ATOM     23  H   UNL     1       1.626   6.736  20.809  0.00  0.00    +0.000 HD
BRANCH  22  24
ATOM     24  C   UNL     1       1.424   4.858  20.191  0.00  0.00    +0.000 C 
ATOM     25  C   UNL     1       1.426   3.779  21.262  0.00  0.00    +0.000 C 
ATOM     26  C   UNL     1       2.339   2.582  20.978  0.00  0.00    +0.000 C 
ATOM     27  C   UNL     1       3.312   2.711  19.798  0.00  0.00    +0.000 C 
ATOM     28  N   UNL     1       3.002   3.664  18.726  0.00  0.00    +0.000 NA
ATOM     29  C   UNL     1       1.643   4.190  18.824  0.00  0.00    +0.000 C 
ATOM     30  H   UNL     1       3.626   4.471  18.869  0.00  0.00    +0.000 HD
ENDBRANCH  22  24
ENDBRANCH   2  22
TORSDOF 3
ENDMDL
MODEL 9
REMARK VINA RESULT:      -6.4      5.772      8.955
REMARK  Name = 
REMARK  4 active torsions:
REMARK  status: ('A' for Active; 'I' for Inactive)
REMARK    1  A    between atoms: C_1  and  C_2
REMARK    2  A    between atoms: C_6  and  C_7
REMARK    3  A    between atoms: C_8  and  N_9
REMARK    4  A    between atoms: N_9  and  C_10
REMARK                            x       y       z     vdW  Elec       q    Type
REMARK                         _______ _______ _______ _____ _____    ______ ____
ROOT
ATOM      1  C   UNL     1      -1.517  12.869  20.701  0.00  0.00    +0.000 A 
ATOM      2  C   UNL     1      -2.786  13.034  20.226  0.00  0.00    +0.000 A 
ATOM      3  N   UNL     1      -3.841  13.415  21.050  0.00  0.00    +0.000 NA
ATOM      4  C   UNL     1      -3.692  13.394  22.336  0.00  0.00    +0.000 A 
ATOM      5  N   UNL     1      -4.669  13.712  23.241  0.00  0.00    +0.000 N 
ATOM      6  C   UNL     1      -5.182  12.713  24.200  0.00  0.00    +0.000 C 
ATOM      7  C   UNL     1      -6.625  12.320  23.854  0.00  0.00    +0.000 C 
ATOM      8  O   UNL     1      -7.479  13.471  23.794  0.00  0.00    +0.000 OA
ATOM      9  C   UNL     1      -7.017  14.372  22.772  0.00  0.00    +0.000 C 
ATOM     10  C   UNL     1      -5.588  14.846  23.049  0.00  0.00    +0.000 C 
ATOM     11  N   UNL     1      -2.487  13.091  22.902  0.00  0.00    +0.000 N 
ATOM     12  C   UNL     1      -1.351  12.872  22.180  0.00  0.00    +0.000 A 
ATOM     13  O   UNL     1      -0.311  12.578  22.765  0.00  0.00    +0.000 OA
ATOM     14  H   UNL     1      -2.393  13.101  23.904  0.00  0.00    +0.000 HD
ENDROOT
BRANCH   1  20
ATOM     15  C   UNL     1       1.217   9.340  18.895  0.00  0.00    +0.000 C 
ATOM     16  C   UNL     1       0.993  10.814  19.035  0.00  0.00    +0.000 A 
ATOM     17  C   UNL     1       1.908  11.724  18.523  0.00  0.00    +0.000 A 
ATOM     18  C   UNL     1       1.653  13.084  18.672  0.00  0.00    +0.000 A 
ATOM     19  C   UNL     1       0.497  13.494  19.338  0.00  0.00    +0.000 A 
ATOM     20  C   UNL     1      -0.341  12.534  19.879  0.00  0.00    +0.000 A 
ATOM     21  N   UNL     1      -0.107  11.202  19.723  0.00  0.00    +0.000 NA
ENDBRANCH   1  20
BRANCH   2  22
ATOM     22  N   UNL     1      -3.176  12.502  18.989  0.00  0.00    +0.000 N 
ATOM     23  H   UNL     1      -2.288  12.579  18.486  0.00  0.00    +0.000 HD
BRANCH  22  24
ATOM     24  C   UNL     1      -3.719  11.201  18.526  0.00  0.00    +0.000 C 
ATOM     25  C   UNL     1      -2.776  10.078  18.127  0.00  0.00    +0.000 C 
ATOM     26  C   UNL     1      -2.525   9.942  16.622  0.00  0.00    +0.000 C 
ATOM     27  C   UNL     1      -3.042  11.074  15.724  0.00  0.00    +0.000 C 
ATOM     28  N   UNL     1      -4.141  11.916  16.208  0.00  0.00    +0.000 NA
ATOM     29  C   UNL     1      -4.766  11.378  17.414  0.00  0.00    +0.000 C 
ATOM     30  H   UNL     1      -3.717  12.812  16.488  0.00  0.00    +0.000 HD
ENDBRANCH  22  24
ENDBRANCH   2  22
TORSDOF 3
ENDMDL
