MODEL 1
REMARK VINA RESULT:      -8.7      0.000      0.000
REMARK  Name = 
REMARK  8 active torsions:
REMARK  status: ('A' for Active; 'I' for Inactive)
REMARK    1  A    between atoms: C_2  and  O_3
REMARK    2  A    between atoms: C_2  and  C_4
REMARK    3  A    between atoms: C_7  and  S_8
REMARK    4  A    between atoms: S_8  and  N_11
REMARK    5  A    between atoms: N_11  and  C_12
REMARK    6  A    between atoms: N_11  and  C_17
REMARK    7  A    between atoms: C_12  and  C_13
REMARK    8  A    between atoms: C_13  and  C_14
REMARK                            x       y       z     vdW  Elec       q    Type
REMARK                         _______ _______ _______ _____ _____    ______ ____
ROOT
ATOM      1  N   UNL     1       3.349   4.618  18.820  0.00  0.00    +0.000 N 
ENDROOT
BRANCH   1   2
ATOM      2  C   UNL     1       2.737   5.906  18.945  0.00  0.00    +0.000 A 
ATOM      3  C   UNL     1       2.614   6.848  17.947  0.00  0.00    +0.000 A 
ATOM      4  C   UNL     1       2.029   8.073  18.435  0.00  0.00    +0.000 A 
ATOM      5  C   UNL     1       1.769   9.311  17.791  0.00  0.00    +0.000 A 
ATOM      6  C   UNL     1       1.264  10.399  18.519  0.00  0.00    +0.000 A 
ATOM      7  C   UNL     1       1.005  10.279  19.877  0.00  0.00    +0.000 A 
ATOM      8  C   UNL     1       1.212   9.065  20.529  0.00  0.00    +0.000 A 
ATOM      9  C   UNL     1       1.706   7.971  19.794  0.00  0.00    +0.000 A 
ATOM     10  S   UNL     1       1.968   6.379  20.378  0.00  0.00    +0.000 S 
ENDBRANCH   1   2
BRANCH   1  11
ATOM     11  S   UNL     1       5.039   4.552  18.937  0.00  0.00    +0.000 S 
ATOM     12  O   UNL     1       5.460   3.347  19.622  0.00  0.00    +0.000 OA
ATOM     13  O   UNL     1       5.491   5.845  19.413  0.00  0.00    +0.000 OA
BRANCH  11  17
ATOM     14  C   UNL     1       6.720   4.718  14.664  0.00  0.00    +0.000 A 
ATOM     15  C   UNL     1       5.345   4.536  14.862  0.00  0.00    +0.000 A 
ATOM     16  C   UNL     1       4.831   4.384  16.165  0.00  0.00    +0.000 A 
ATOM     17  C   UNL     1       5.692   4.387  17.278  0.00  0.00    +0.000 A 
ATOM     18  C   UNL     1       7.056   4.511  17.061  0.00  0.00    +0.000 A 
ATOM     19  F   UNL     1       7.924   4.501  18.074  0.00  0.00    +0.000 F 
ATOM     20  C   UNL     1       7.572   4.680  15.776  0.00  0.00    +0.000 A 
BRANCH  14  22
ATOM     21  O   UNL     1       7.017   4.282  12.346  0.00  0.00    +0.000 OA
ATOM     22  C   UNL     1       7.360   4.916  13.326  0.00  0.00    +0.000 C 
BRANCH  22  23
ATOM     23  O   UNL     1       8.358   5.823  13.299  0.00  0.00    +0.000 OA
ATOM     24  H   UNL     1       9.269   5.485  13.306  0.00  0.00    +0.000 HD
ENDBRANCH  22  23
ENDBRANCH  14  22
ENDBRANCH  11  17
ENDBRANCH   1  11
BRANCH   1  25
ATOM     25  C   UNL     1       2.579   3.495  18.245  0.00  0.00    +0.000 C 
BRANCH  25  26
ATOM     26  C   UNL     1       1.276   3.326  19.012  0.00  0.00    +0.000 C 
BRANCH  26  27
ATOM     27  C   UNL     1       1.353   2.375  20.172  0.00  0.00    +0.000 C 
ATOM     28  C   UNL     1       2.587   2.469  21.037  0.00  0.00    +0.000 C 
ATOM     29  C   UNL     1       1.248   2.855  21.599  0.00  0.00    +0.000 C 
ENDBRANCH  26  27
ENDBRANCH  25  26
ENDBRANCH   1  25
TORSDOF 8
ENDMDL
MODEL 2
REMARK VINA RESULT:      -8.6      0.733      1.263
REMARK  Name = 
REMARK  8 active torsions:
REMARK  status: ('A' for Active; 'I' for Inactive)
REMARK    1  A    between atoms: C_2  and  O_3
REMARK    2  A    between atoms: C_2  and  C_4
REMARK    3  A    between atoms: C_7  and  S_8
REMARK    4  A    between atoms: S_8  and  N_11
REMARK    5  A    between atoms: N_11  and  C_12
REMARK    6  A    between atoms: N_11  and  C_17
REMARK    7  A    between atoms: C_12  and  C_13
REMARK    8  A    between atoms: C_13  and  C_14
REMARK                            x       y       z     vdW  Elec       q    Type
REMARK                         _______ _______ _______ _____ _____    ______ ____
ROOT
ATOM      1  N   UNL     1       3.336   4.781  18.698  0.00  0.00    +0.000 N 
ENDROOT
BRANCH   1   2
ATOM      2  C   UNL     1       2.866   6.127  18.835  0.00  0.00    +0.000 A 
ATOM      3  C   UNL     1       2.240   6.662  19.940  0.00  0.00    +0.000 A 
ATOM      4  C   UNL     1       1.814   8.020  19.710  0.00  0.00    +0.000 A 
ATOM      5  C   UNL     1       1.093   8.929  20.528  0.00  0.00    +0.000 A 
ATOM      6  C   UNL     1       0.719  10.187  20.035  0.00  0.00    +0.000 A 
ATOM      7  C   UNL     1       1.054  10.565  18.742  0.00  0.00    +0.000 A 
ATOM      8  C   UNL     1       1.796   9.711  17.928  0.00  0.00    +0.000 A 
ATOM      9  C   UNL     1       2.182   8.454  18.431  0.00  0.00    +0.000 A 
ATOM     10  S   UNL     1       3.148   7.283  17.630  0.00  0.00    +0.000 S 
ENDBRANCH   1   2
BRANCH   1  11
ATOM     11  S   UNL     1       5.004   4.526  18.865  0.00  0.00    +0.000 S 
ATOM     12  O   UNL     1       5.268   3.245  19.488  0.00  0.00    +0.000 OA
ATOM     13  O   UNL     1       5.572   5.734  19.435  0.00  0.00    +0.000 OA
BRANCH  11  17
ATOM     14  C   UNL     1       6.792   4.761  14.639  0.00  0.00    +0.000 A 
ATOM     15  C   UNL     1       5.414   4.566  14.800  0.00  0.00    +0.000 A 
ATOM     16  C   UNL     1       4.868   4.393  16.087  0.00  0.00    +0.000 A 
ATOM     17  C   UNL     1       5.700   4.388  17.222  0.00  0.00    +0.000 A 
ATOM     18  C   UNL     1       7.069   4.526  17.041  0.00  0.00    +0.000 A 
ATOM     19  F   UNL     1       7.911   4.510  18.076  0.00  0.00    +0.000 F 
ATOM     20  C   UNL     1       7.615   4.716  15.773  0.00  0.00    +0.000 A 
BRANCH  14  22
ATOM     21  O   UNL     1       7.151   4.359  12.324  0.00  0.00    +0.000 OA
ATOM     22  C   UNL     1       7.464   4.983  13.321  0.00  0.00    +0.000 C 
BRANCH  22  23
ATOM     23  O   UNL     1       8.455   5.897  13.331  0.00  0.00    +0.000 OA
ATOM     24  H   UNL     1       8.495   6.520  12.586  0.00  0.00    +0.000 HD
ENDBRANCH  22  23
ENDBRANCH  14  22
ENDBRANCH  11  17
ENDBRANCH   1  11
BRANCH   1  25
ATOM     25  C   UNL     1       2.467   3.763  18.071  0.00  0.00    +0.000 C 
BRANCH  25  26
ATOM     26  C   UNL     1       1.910   2.840  19.145  0.00  0.00    +0.000 C 
BRANCH  26  27
ATOM     27  C   UNL     1       2.028   3.371  20.546  0.00  0.00    +0.000 C 
ATOM     28  C   UNL     1       1.153   2.718  21.588  0.00  0.00    +0.000 C 
ATOM     29  C   UNL     1       2.645   2.554  21.654  0.00  0.00    +0.000 C 
ENDBRANCH  26  27
ENDBRANCH  25  26
ENDBRANCH   1  25
TORSDOF 8
ENDMDL
MODEL 3
REMARK VINA RESULT:      -8.0      1.413      1.955
REMARK  Name = 
REMARK  8 active torsions:
REMARK  status: ('A' for Active; 'I' for Inactive)
REMARK    1  A    between atoms: C_2  and  O_3
REMARK    2  A    between atoms: C_2  and  C_4
REMARK    3  A    between atoms: C_7  and  S_8
REMARK    4  A    between atoms: S_8  and  N_11
REMARK    5  A    between atoms: N_11  and  C_12
REMARK    6  A    between atoms: N_11  and  C_17
REMARK    7  A    between atoms: C_12  and  C_13
REMARK    8  A    between atoms: C_13  and  C_14
REMARK                            x       y       z     vdW  Elec       q    Type
REMARK                         _______ _______ _______ _____ _____    ______ ____
ROOT
ATOM      1  N   UNL     1       2.716   5.330  18.911  0.00  0.00    +0.000 N 
ENDROOT
BRANCH   1   2
ATOM      2  C   UNL     1       2.288   6.657  19.237  0.00  0.00    +0.000 A 
ATOM      3  C   UNL     1       1.880   7.099  20.477  0.00  0.00    +0.000 A 
ATOM      4  C   UNL     1       1.428   8.467  20.437  0.00  0.00    +0.000 A 
ATOM      5  C   UNL     1       0.876   9.304  21.442  0.00  0.00    +0.000 A 
ATOM      6  C   UNL     1       0.426  10.594  21.126  0.00  0.00    +0.000 A 
ATOM      7  C   UNL     1       0.519  11.074  19.827  0.00  0.00    +0.000 A 
ATOM      8  C   UNL     1       1.093  10.292  18.827  0.00  0.00    +0.000 A 
ATOM      9  C   UNL     1       1.556   9.002  19.150  0.00  0.00    +0.000 A 
ATOM     10  S   UNL     1       2.351   7.906  18.096  0.00  0.00    +0.000 S 
ENDBRANCH   1   2
BRANCH   1  11
ATOM     11  S   UNL     1       4.387   5.053  18.847  0.00  0.00    +0.000 S 
ATOM     12  O   UNL     1       4.717   3.765  19.424  0.00  0.00    +0.000 OA
ATOM     13  O   UNL     1       5.044   6.249  19.339  0.00  0.00    +0.000 OA
BRANCH  11  17
ATOM     14  C   UNL     1       6.112   4.557  14.618  0.00  0.00    +0.000 A 
ATOM     15  C   UNL     1       6.026   5.834  15.187  0.00  0.00    +0.000 A 
ATOM     16  C   UNL     1       5.409   6.011  16.441  0.00  0.00    +0.000 A 
ATOM     17  C   UNL     1       4.850   4.915  17.123  0.00  0.00    +0.000 A 
ATOM     18  C   UNL     1       4.893   3.666  16.521  0.00  0.00    +0.000 A 
ATOM     19  F   UNL     1       4.364   2.592  17.110  0.00  0.00    +0.000 F 
ATOM     20  C   UNL     1       5.519   3.478  15.289  0.00  0.00    +0.000 A 
BRANCH  14  22
ATOM     21  O   UNL     1       7.593   5.010  12.814  0.00  0.00    +0.000 OA
ATOM     22  C   UNL     1       6.772   4.260  13.308  0.00  0.00    +0.000 C 
BRANCH  22  23
ATOM     23  O   UNL     1       6.366   3.122  12.709  0.00  0.00    +0.000 OA
ATOM     24  H   UNL     1       5.681   2.600  13.158  0.00  0.00    +0.000 HD
ENDBRANCH  22  23
ENDBRANCH  14  22
ENDBRANCH  11  17
ENDBRANCH   1  11
BRANCH   1  25
ATOM     25  C   UNL     1       1.762   4.383  18.297  0.00  0.00    +0.000 C 
BRANCH  25  26
ATOM     26  C   UNL     1       1.569   3.187  19.219  0.00  0.00    +0.000 C 
BRANCH  26  27
ATOM     27  C   UNL     1       1.192   3.541  20.629  0.00  0.00    +0.000 C 
ATOM     28  C   UNL     1       1.283   2.431  21.648  0.00  0.00    +0.000 C 
ATOM     29  C   UNL     1       2.219   3.603  21.733  0.00  0.00    +0.000 C 
ENDBRANCH  26  27
ENDBRANCH  25  26
ENDBRANCH   1  25
TORSDOF 8
ENDMDL
MODEL 4
REMARK VINA RESULT:      -7.9      0.981      1.203
REMARK  Name = 
REMARK  8 active torsions:
REMARK  status: ('A' for Active; 'I' for Inactive)
REMARK    1  A    between atoms: C_2  and  O_3
REMARK    2  A    between atoms: C_2  and  C_4
REMARK    3  A    between atoms: C_7  and  S_8
REMARK    4  A    between atoms: S_8  and  N_11
REMARK    5  A    between atoms: N_11  and  C_12
REMARK    6  A    between atoms: N_11  and  C_17
REMARK    7  A    between atoms: C_12  and  C_13
REMARK    8  A    between atoms: C_13  and  C_14
REMARK                            x       y       z     vdW  Elec       q    Type
REMARK                         _______ _______ _______ _____ _____    ______ ____
ROOT
ATOM      1  N   UNL     1       3.159   4.770  19.067  0.00  0.00    +0.000 N 
ENDROOT
BRANCH   1   2
ATOM      2  C   UNL     1       2.590   6.082  19.134  0.00  0.00    +0.000 A 
ATOM      3  C   UNL     1       2.512   6.989  18.099  0.00  0.00    +0.000 A 
ATOM      4  C   UNL     1       1.962   8.250  18.532  0.00  0.00    +0.000 A 
ATOM      5  C   UNL     1       1.754   9.471  17.838  0.00  0.00    +0.000 A 
ATOM      6  C   UNL     1       1.276  10.602  18.516  0.00  0.00    +0.000 A 
ATOM      7  C   UNL     1       0.994  10.542  19.874  0.00  0.00    +0.000 A 
ATOM      8  C   UNL     1       1.150   9.347  20.574  0.00  0.00    +0.000 A 
ATOM      9  C   UNL     1       1.617   8.210  19.888  0.00  0.00    +0.000 A 
ATOM     10  S   UNL     1       1.816   6.634  20.535  0.00  0.00    +0.000 S 
ENDBRANCH   1   2
BRANCH   1  11
ATOM     11  S   UNL     1       4.851   4.663  19.049  0.00  0.00    +0.000 S 
ATOM     12  O   UNL     1       5.285   3.321  19.381  0.00  0.00    +0.000 OA
ATOM     13  O   UNL     1       5.364   5.792  19.802  0.00  0.00    +0.000 OA
BRANCH  11  17
ATOM     14  C   UNL     1       6.703   4.967  14.855  0.00  0.00    +0.000 A 
ATOM     15  C   UNL     1       6.928   5.987  15.789  0.00  0.00    +0.000 A 
ATOM     16  C   UNL     1       6.286   5.955  17.043  0.00  0.00    +0.000 A 
ATOM     17  C   UNL     1       5.393   4.915  17.361  0.00  0.00    +0.000 A 
ATOM     18  C   UNL     1       5.138   3.943  16.405  0.00  0.00    +0.000 A 
ATOM     19  F   UNL     1       4.286   2.943  16.641  0.00  0.00    +0.000 F 
ATOM     20  C   UNL     1       5.783   3.957  15.169  0.00  0.00    +0.000 A 
BRANCH  14  22
ATOM     21  O   UNL     1       6.993   4.107  12.658  0.00  0.00    +0.000 OA
ATOM     22  C   UNL     1       7.357   4.895  13.511  0.00  0.00    +0.000 C 
BRANCH  22  23
ATOM     23  O   UNL     1       8.390   5.742  13.332  0.00  0.00    +0.000 OA
ATOM     24  H   UNL     1       8.217   6.559  12.835  0.00  0.00    +0.000 HD
ENDBRANCH  22  23
ENDBRANCH  14  22
ENDBRANCH  11  17
ENDBRANCH   1  11
BRANCH   1  25
ATOM     25  C   UNL     1       2.318   3.627  18.652  0.00  0.00    +0.000 C 
BRANCH  25  26
ATOM     26  C   UNL     1       1.089   3.550  19.546  0.00  0.00    +0.000 C 
BRANCH  26  27
ATOM     27  C   UNL     1       1.243   2.654  20.742  0.00  0.00    +0.000 C 
ATOM     28  C   UNL     1       2.651   2.240  21.095  0.00  0.00    +0.000 C 
ATOM     29  C   UNL     1       1.882   3.141  22.020  0.00  0.00    +0.000 C 
ENDBRANCH  26  27
ENDBRANCH  25  26
ENDBRANCH   1  25
TORSDOF 8
ENDMDL
MODEL 5
REMARK VINA RESULT:      -7.5      1.616      2.175
REMARK  Name = 
REMARK  8 active torsions:
REMARK  status: ('A' for Active; 'I' for Inactive)
REMARK    1  A    between atoms: C_2  and  O_3
REMARK    2  A    between atoms: C_2  and  C_4
REMARK    3  A    between atoms: C_7  and  S_8
REMARK    4  A    between atoms: S_8  and  N_11
REMARK    5  A    between atoms: N_11  and  C_12
REMARK    6  A    between atoms: N_11  and  C_17
REMARK    7  A    between atoms: C_12  and  C_13
REMARK    8  A    between atoms: C_13  and  C_14
REMARK                            x       y       z     vdW  Elec       q    Type
REMARK                         _______ _______ _______ _____ _____    ______ ____
ROOT
ATOM      1  N   UNL     1       3.249   5.610  18.297  0.00  0.00    +0.000 N 
ENDROOT
BRANCH   1   2
ATOM      2  C   UNL     1       2.616   6.786  18.814  0.00  0.00    +0.000 A 
ATOM      3  C   UNL     1       2.230   6.995  20.120  0.00  0.00    +0.000 A 
ATOM      4  C   UNL     1       1.538   8.250  20.280  0.00  0.00    +0.000 A 
ATOM      5  C   UNL     1       0.922   8.844  21.413  0.00  0.00    +0.000 A 
ATOM      6  C   UNL     1       0.225  10.055  21.290  0.00  0.00    +0.000 A 
ATOM      7  C   UNL     1       0.133  10.693  20.061  0.00  0.00    +0.000 A 
ATOM      8  C   UNL     1       0.760  10.155  18.939  0.00  0.00    +0.000 A 
ATOM      9  C   UNL     1       1.470   8.947  19.068  0.00  0.00    +0.000 A 
ATOM     10  S   UNL     1       2.367   8.150  17.841  0.00  0.00    +0.000 S 
ENDBRANCH   1   2
BRANCH   1  11
ATOM     11  S   UNL     1       4.944   5.571  18.325  0.00  0.00    +0.000 S 
ATOM     12  O   UNL     1       5.419   4.528  19.212  0.00  0.00    +0.000 OA
ATOM     13  O   UNL     1       5.405   6.935  18.507  0.00  0.00    +0.000 OA
BRANCH  11  17
ATOM     14  C   UNL     1       5.828   4.123  14.055  0.00  0.00    +0.000 A 
ATOM     15  C   UNL     1       6.134   3.298  15.145  0.00  0.00    +0.000 A 
ATOM     16  C   UNL     1       5.960   3.769  16.462  0.00  0.00    +0.000 A 
ATOM     17  C   UNL     1       5.503   5.079  16.698  0.00  0.00    +0.000 A 
ATOM     18  C   UNL     1       5.258   5.902  15.609  0.00  0.00    +0.000 A 
ATOM     19  F   UNL     1       4.842   7.160  15.768  0.00  0.00    +0.000 F 
ATOM     20  C   UNL     1       5.410   5.438  14.302  0.00  0.00    +0.000 A 
BRANCH  14  22
ATOM     21  O   UNL     1       7.015   3.725  12.034  0.00  0.00    +0.000 OA
ATOM     22  C   UNL     1       5.950   3.708  12.623  0.00  0.00    +0.000 C 
BRANCH  22  23
ATOM     23  O   UNL     1       4.793   3.345  12.032  0.00  0.00    +0.000 OA
ATOM     24  H   UNL     1       4.187   4.055  11.764  0.00  0.00    +0.000 HD
ENDBRANCH  22  23
ENDBRANCH  14  22
ENDBRANCH  11  17
ENDBRANCH   1  11
BRANCH   1  25
ATOM     25  C   UNL     1       2.478   4.676  17.449  0.00  0.00    +0.000 C 
BRANCH  25  26
ATOM     26  C   UNL     1       1.467   3.929  18.306  0.00  0.00    +0.000 C 
BRANCH  26  27
ATOM     27  C   UNL     1       2.035   3.327  19.559  0.00  0.00    +0.000 C 
ATOM     28  C   UNL     1       1.241   3.534  20.825  0.00  0.00    +0.000 C 
ATOM     29  C   UNL     1       1.376   2.155  20.246  0.00  0.00    +0.000 C 
ENDBRANCH  26  27
ENDBRANCH  25  26
ENDBRANCH   1  25
TORSDOF 8
ENDMDL
MODEL 6
REMARK VINA RESULT:      -7.4      3.286      7.528
REMARK  Name = 
REMARK  8 active torsions:
REMARK  status: ('A' for Active; 'I' for Inactive)
REMARK    1  A    between atoms: C_2  and  O_3
REMARK    2  A    between atoms: C_2  and  C_4
REMARK    3  A    between atoms: C_7  and  S_8
REMARK    4  A    between atoms: S_8  and  N_11
REMARK    5  A    between atoms: N_11  and  C_12
REMARK    6  A    between atoms: N_11  and  C_17
REMARK    7  A    between atoms: C_12  and  C_13
REMARK    8  A    between atoms: C_13  and  C_14
REMARK                            x       y       z     vdW  Elec       q    Type
REMARK                         _______ _______ _______ _____ _____    ______ ____
ROOT
ATOM      1  N   UNL     1       6.679   6.084  17.114  0.00  0.00    +0.000 N 
ENDROOT
BRANCH   1   2
ATOM      2  C   UNL     1       6.520   5.495  15.819  0.00  0.00    +0.000 A 
ATOM      3  C   UNL     1       5.368   4.930  15.317  0.00  0.00    +0.000 A 
ATOM      4  C   UNL     1       5.579   4.347  14.015  0.00  0.00    +0.000 A 
ATOM      5  C   UNL     1       4.710   3.621  13.159  0.00  0.00    +0.000 A 
ATOM      6  C   UNL     1       5.188   3.073  11.959  0.00  0.00    +0.000 A 
ATOM      7  C   UNL     1       6.515   3.238  11.588  0.00  0.00    +0.000 A 
ATOM      8  C   UNL     1       7.383   3.979  12.388  0.00  0.00    +0.000 A 
ATOM      9  C   UNL     1       6.898   4.539  13.585  0.00  0.00    +0.000 A 
ATOM     10  S   UNL     1       7.770   5.536  14.676  0.00  0.00    +0.000 S 
ENDBRANCH   1   2
BRANCH   1  11
ATOM     11  S   UNL     1       6.514   5.057  18.453  0.00  0.00    +0.000 S 
ATOM     12  O   UNL     1       6.571   5.812  19.689  0.00  0.00    +0.000 OA
ATOM     13  O   UNL     1       7.413   3.936  18.253  0.00  0.00    +0.000 OA
BRANCH  11  17
ATOM     14  C   UNL     1       2.292   3.310  18.936  0.00  0.00    +0.000 A 
ATOM     15  C   UNL     1       3.377   2.452  18.718  0.00  0.00    +0.000 A 
ATOM     16  C   UNL     1       4.660   2.980  18.469  0.00  0.00    +0.000 A 
ATOM     17  C   UNL     1       4.861   4.371  18.412  0.00  0.00    +0.000 A 
ATOM     18  C   UNL     1       3.766   5.207  18.574  0.00  0.00    +0.000 A 
ATOM     19  F   UNL     1       3.889   6.534  18.511  0.00  0.00    +0.000 F 
ATOM     20  C   UNL     1       2.496   4.694  18.839  0.00  0.00    +0.000 A 
BRANCH  14  22
ATOM     21  O   UNL     1       0.261   2.174  18.452  0.00  0.00    +0.000 OA
ATOM     22  C   UNL     1       0.900   2.850  19.236  0.00  0.00    +0.000 C 
BRANCH  22  23
ATOM     23  O   UNL     1       0.403   3.265  20.419  0.00  0.00    +0.000 OA
ATOM     24  H   UNL     1      -0.266   3.970  20.399  0.00  0.00    +0.000 HD
ENDBRANCH  22  23
ENDBRANCH  14  22
ENDBRANCH  11  17
ENDBRANCH   1  11
BRANCH   1  25
ATOM     25  C   UNL     1       6.605   7.552  17.265  0.00  0.00    +0.000 C 
BRANCH  25  26
ATOM     26  C   UNL     1       7.993   8.104  17.552  0.00  0.00    +0.000 C 
BRANCH  26  27
ATOM     27  C   UNL     1       8.006   9.493  18.123  0.00  0.00    +0.000 C 
ATOM     28  C   UNL     1       9.050   9.777  19.176  0.00  0.00    +0.000 C 
ATOM     29  C   UNL     1       9.133  10.457  17.839  0.00  0.00    +0.000 C 
ENDBRANCH  26  27
ENDBRANCH  25  26
ENDBRANCH   1  25
TORSDOF 8
ENDMDL
MODEL 7
REMARK VINA RESULT:      -7.3      1.284      1.715
REMARK  Name = 
REMARK  8 active torsions:
REMARK  status: ('A' for Active; 'I' for Inactive)
REMARK    1  A    between atoms: C_2  and  O_3
REMARK    2  A    between atoms: C_2  and  C_4
REMARK    3  A    between atoms: C_7  and  S_8
REMARK    4  A    between atoms: S_8  and  N_11
REMARK    5  A    between atoms: N_11  and  C_12
REMARK    6  A    between atoms: N_11  and  C_17
REMARK    7  A    between atoms: C_12  and  C_13
REMARK    8  A    between atoms: C_13  and  C_14
REMARK                            x       y       z     vdW  Elec       q    Type
REMARK                         _______ _______ _______ _____ _____    ______ ____
ROOT
ATOM      1  N   UNL     1       4.095   5.118  18.713  0.00  0.00    +0.000 N 
ENDROOT
BRANCH   1   2
ATOM      2  C   UNL     1       3.301   6.299  18.869  0.00  0.00    +0.000 A 
ATOM      3  C   UNL     1       2.671   6.709  20.024  0.00  0.00    +0.000 A 
ATOM      4  C   UNL     1       1.878   7.895  19.810  0.00  0.00    +0.000 A 
ATOM      5  C   UNL     1       1.028   8.625  20.681  0.00  0.00    +0.000 A 
ATOM      6  C   UNL     1       0.284   9.714  20.202  0.00  0.00    +0.000 A 
ATOM      7  C   UNL     1       0.373  10.096  18.871  0.00  0.00    +0.000 A 
ATOM      8  C   UNL     1       1.229   9.424  18.000  0.00  0.00    +0.000 A 
ATOM      9  C   UNL     1       1.984   8.340  18.487  0.00  0.00    +0.000 A 
ATOM     10  S   UNL     1       3.140   7.423  17.612  0.00  0.00    +0.000 S 
ENDBRANCH   1   2
BRANCH   1  11
ATOM     11  S   UNL     1       5.751   5.336  18.418  0.00  0.00    +0.000 S 
ATOM     12  O   UNL     1       6.545   4.537  19.329  0.00  0.00    +0.000 OA
ATOM     13  O   UNL     1       5.989   6.764  18.319  0.00  0.00    +0.000 OA
BRANCH  11  17
ATOM     14  C   UNL     1       6.258   4.002  14.050  0.00  0.00    +0.000 A 
ATOM     15  C   UNL     1       5.430   3.268  14.909  0.00  0.00    +0.000 A 
ATOM     16  C   UNL     1       5.343   3.607  16.273  0.00  0.00    +0.000 A 
ATOM     17  C   UNL     1       6.106   4.669  16.795  0.00  0.00    +0.000 A 
ATOM     18  C   UNL     1       6.963   5.350  15.944  0.00  0.00    +0.000 A 
ATOM     19  F   UNL     1       7.726   6.353  16.384  0.00  0.00    +0.000 F 
ATOM     20  C   UNL     1       7.041   5.033  14.588  0.00  0.00    +0.000 A 
BRANCH  14  22
ATOM     21  O   UNL     1       5.697   2.931  12.003  0.00  0.00    +0.000 OA
ATOM     22  C   UNL     1       6.397   3.740  12.584  0.00  0.00    +0.000 C 
BRANCH  22  23
ATOM     23  O   UNL     1       7.370   4.441  11.967  0.00  0.00    +0.000 OA
ATOM     24  H   UNL     1       8.006   3.942  11.428  0.00  0.00    +0.000 HD
ENDBRANCH  22  23
ENDBRANCH  14  22
ENDBRANCH  11  17
ENDBRANCH   1  11
BRANCH   1  25
ATOM     25  C   UNL     1       3.437   3.822  18.445  0.00  0.00    +0.000 C 
BRANCH  25  26
ATOM     26  C   UNL     1       3.264   3.061  19.751  0.00  0.00    +0.000 C 
BRANCH  26  27
ATOM     27  C   UNL     1       1.860   2.606  20.027  0.00  0.00    +0.000 C 
ATOM     28  C   UNL     1       1.416   2.629  21.469  0.00  0.00    +0.000 C 
ATOM     29  C   UNL     1       0.789   3.569  20.479  0.00  0.00    +0.000 C 
ENDBRANCH  26  27
ENDBRANCH  25  26
ENDBRANCH   1  25
TORSDOF 8
ENDMDL
MODEL 8
REMARK VINA RESULT:      -7.3      1.529      1.800
REMARK  Name = 
REMARK  8 active torsions:
REMARK  status: ('A' for Active; 'I' for Inactive)
REMARK    1  A    between atoms: C_2  and  O_3
REMARK    2  A    between atoms: C_2  and  C_4
REMARK    3  A    between atoms: C_7  and  S_8
REMARK    4  A    between atoms: S_8  and  N_11
REMARK    5  A    between atoms: N_11  and  C_12
REMARK    6  A    between atoms: N_11  and  C_17
REMARK    7  A    between atoms: C_12  and  C_13
REMARK    8  A    between atoms: C_13  and  C_14
REMARK                            x       y       z     vdW  Elec       q    Type
REMARK                         _______ _______ _______ _____ _____    ______ ____
ROOT
ATOM      1  N   UNL     1       3.204   5.488  18.276  0.00  0.00    +0.000 N 
ENDROOT
BRANCH   1   2
ATOM      2  C   UNL     1       2.546   6.671  18.742  0.00  0.00    +0.000 A 
ATOM      3  C   UNL     1       2.244   7.784  17.988  0.00  0.00    +0.000 A 
ATOM      4  C   UNL     1       1.663   8.833  18.788  0.00  0.00    +0.000 A 
ATOM      5  C   UNL     1       1.256  10.152  18.457  0.00  0.00    +0.000 A 
ATOM      6  C   UNL     1       0.792  11.025  19.452  0.00  0.00    +0.000 A 
ATOM      7  C   UNL     1       0.719  10.610  20.774  0.00  0.00    +0.000 A 
ATOM      8  C   UNL     1       1.073   9.309  21.125  0.00  0.00    +0.000 A 
ATOM      9  C   UNL     1       1.525   8.431  20.122  0.00  0.00    +0.000 A 
ATOM     10  S   UNL     1       1.945   6.779  20.321  0.00  0.00    +0.000 S 
ENDBRANCH   1   2
BRANCH   1  11
ATOM     11  S   UNL     1       4.896   5.454  18.383  0.00  0.00    +0.000 S 
ATOM     12  O   UNL     1       5.335   4.374  19.244  0.00  0.00    +0.000 OA
ATOM     13  O   UNL     1       5.341   6.809  18.647  0.00  0.00    +0.000 OA
BRANCH  11  17
ATOM     14  C   UNL     1       5.999   4.165  14.114  0.00  0.00    +0.000 A 
ATOM     15  C   UNL     1       6.327   3.337  15.195  0.00  0.00    +0.000 A 
ATOM     16  C   UNL     1       6.084   3.765  16.515  0.00  0.00    +0.000 A 
ATOM     17  C   UNL     1       5.535   5.036  16.764  0.00  0.00    +0.000 A 
ATOM     18  C   UNL     1       5.268   5.867  15.685  0.00  0.00    +0.000 A 
ATOM     19  F   UNL     1       4.766   7.091  15.858  0.00  0.00    +0.000 F 
ATOM     20  C   UNL     1       5.489   5.444  14.375  0.00  0.00    +0.000 A 
BRANCH  14  22
ATOM     21  O   UNL     1       5.438   3.027  12.103  0.00  0.00    +0.000 OA
ATOM     22  C   UNL     1       6.191   3.791  12.677  0.00  0.00    +0.000 C 
BRANCH  22  23
ATOM     23  O   UNL     1       7.270   4.340  12.083  0.00  0.00    +0.000 OA
ATOM     24  H   UNL     1       7.176   5.240  11.730  0.00  0.00    +0.000 HD
ENDBRANCH  22  23
ENDBRANCH  14  22
ENDBRANCH  11  17
ENDBRANCH   1  11
BRANCH   1  25
ATOM     25  C   UNL     1       2.475   4.536  17.412  0.00  0.00    +0.000 C 
BRANCH  25  26
ATOM     26  C   UNL     1       1.493   3.735  18.253  0.00  0.00    +0.000 C 
BRANCH  26  27
ATOM     27  C   UNL     1       1.818   2.273  18.369  0.00  0.00    +0.000 C 
ATOM     28  C   UNL     1       3.215   1.862  17.976  0.00  0.00    +0.000 C 
ATOM     29  C   UNL     1       2.780   1.755  19.410  0.00  0.00    +0.000 C 
ENDBRANCH  26  27
ENDBRANCH  25  26
ENDBRANCH   1  25
TORSDOF 8
ENDMDL
MODEL 9
REMARK VINA RESULT:      -7.3      1.133      1.486
REMARK  Name = 
REMARK  8 active torsions:
REMARK  status: ('A' for Active; 'I' for Inactive)
REMARK    1  A    between atoms: C_2  and  O_3
REMARK    2  A    between atoms: C_2  and  C_4
REMARK    3  A    between atoms: C_7  and  S_8
REMARK    4  A    between atoms: S_8  and  N_11
REMARK    5  A    between atoms: N_11  and  C_12
REMARK    6  A    between atoms: N_11  and  C_17
REMARK    7  A    between atoms: C_12  and  C_13
REMARK    8  A    between atoms: C_13  and  C_14
REMARK                            x       y       z     vdW  Elec       q    Type
REMARK                         _______ _______ _______ _____ _____    ______ ____
ROOT
ATOM      1  N   UNL     1       4.420   5.297  19.167  0.00  0.00    +0.000 N 
ENDROOT
BRANCH   1   2
ATOM      2  C   UNL     1       3.417   6.319  19.177  0.00  0.00    +0.000 A 
ATOM      3  C   UNL     1       3.100   7.158  18.130  0.00  0.00    +0.000 A 
ATOM      4  C   UNL     1       2.106   8.133  18.506  0.00  0.00    +0.000 A 
ATOM      5  C   UNL     1       1.530   9.212  17.786  0.00  0.00    +0.000 A 
ATOM      6  C   UNL     1       0.631  10.086  18.414  0.00  0.00    +0.000 A 
ATOM      7  C   UNL     1       0.286   9.905  19.746  0.00  0.00    +0.000 A 
ATOM      8  C   UNL     1       0.804   8.832  20.469  0.00  0.00    +0.000 A 
ATOM      9  C   UNL     1       1.696   7.948  19.832  0.00  0.00    +0.000 A 
ATOM     10  S   UNL     1       2.394   6.534  20.509  0.00  0.00    +0.000 S 
ENDBRANCH   1   2
BRANCH   1  11
ATOM     11  S   UNL     1       5.904   5.679  18.442  0.00  0.00    +0.000 S 
ATOM     12  O   UNL     1       7.004   5.096  19.184  0.00  0.00    +0.000 OA
ATOM     13  O   UNL     1       5.897   7.103  18.166  0.00  0.00    +0.000 OA
BRANCH  11  17
ATOM     14  C   UNL     1       6.221   4.123  14.130  0.00  0.00    +0.000 A 
ATOM     15  C   UNL     1       4.986   4.568  14.618  0.00  0.00    +0.000 A 
ATOM     16  C   UNL     1       4.854   4.953  15.967  0.00  0.00    +0.000 A 
ATOM     17  C   UNL     1       5.951   4.872  16.844  0.00  0.00    +0.000 A 
ATOM     18  C   UNL     1       7.153   4.377  16.360  0.00  0.00    +0.000 A 
ATOM     19  F   UNL     1       8.223   4.258  17.147  0.00  0.00    +0.000 F 
ATOM     20  C   UNL     1       7.297   4.010  15.022  0.00  0.00    +0.000 A 
BRANCH  14  22
ATOM     21  O   UNL     1       7.160   4.387  11.962  0.00  0.00    +0.000 OA
ATOM     22  C   UNL     1       6.472   3.719  12.711  0.00  0.00    +0.000 C 
BRANCH  22  23
ATOM     23  O   UNL     1       5.857   2.584  12.322  0.00  0.00    +0.000 OA
ATOM     24  H   UNL     1       5.846   2.385  11.371  0.00  0.00    +0.000 HD
ENDBRANCH  22  23
ENDBRANCH  14  22
ENDBRANCH  11  17
ENDBRANCH   1  11
BRANCH   1  25
ATOM     25  C   UNL     1       4.037   3.893  19.428  0.00  0.00    +0.000 C 
BRANCH  25  26
ATOM     26  C   UNL     1       2.829   3.529  18.577  0.00  0.00    +0.000 C 
BRANCH  26  27
ATOM     27  C   UNL     1       1.914   2.511  19.195  0.00  0.00    +0.000 C 
ATOM     28  C   UNL     1       0.790   3.047  20.048  0.00  0.00    +0.000 C 
ATOM     29  C   UNL     1       0.481   2.358  18.749  0.00  0.00    +0.000 C 
ENDBRANCH  26  27
ENDBRANCH  25  26
ENDBRANCH   1  25
TORSDOF 8
ENDMDL
