MODEL 1
REMARK VINA RESULT:      -6.9      0.000      0.000
REMARK  Name = 
REMARK  9 active torsions:
REMARK  status: ('A' for Active; 'I' for Inactive)
REMARK    1  A    between atoms: C_1  and  C_2
REMARK    2  A    between atoms: C_2  and  C_3
REMARK    3  A    between atoms: C_2  and  C_4
REMARK    4  A    between atoms: C_2  and  N_5
REMARK    5  A    between atoms: N_8  and  C_9
REMARK    6  A    between atoms: N_12  and  C_13
REMARK    7  A    between atoms: C_13  and  C_14
REMARK    8  A    between atoms: C_13  and  C_20
REMARK    9  A    between atoms: C_25  and  O_26
REMARK                            x       y       z     vdW  Elec       q    Type
REMARK                         _______ _______ _______ _____ _____    ______ ____
ROOT
ATOM      1  C   UNL     1      -0.377  11.749  22.094  0.00  0.00    +0.000 C 
ENDROOT
BRANCH   1   2
ATOM      2  C   UNL     1      -1.560  12.609  22.588  0.00  0.00    +0.000 A 
ATOM      3  C   UNL     1      -2.884  12.125  22.532  0.00  0.00    +0.000 A 
ATOM      4  C   UNL     1      -3.902  12.907  23.036  0.00  0.00    +0.000 A 
ATOM      5  C   UNL     1      -3.666  14.154  23.554  0.00  0.00    +0.000 A 
ATOM      6  C   UNL     1      -2.403  14.704  23.575  0.00  0.00    +0.000 A 
ATOM      7  C   UNL     1      -1.350  13.921  23.084  0.00  0.00    +0.000 A 
ATOM      8  O   UNL     1      -4.798  14.743  24.026  0.00  0.00    +0.000 OA
ATOM      9  C   UNL     1      -5.774  13.717  23.746  0.00  0.00    +0.000 C 
ATOM     10  O   UNL     1      -5.214  12.555  23.101  0.00  0.00    +0.000 OA
BRANCH   7  11
ATOM     11  O   UNL     1      -0.081  14.434  23.089  0.00  0.00    +0.000 OA
ATOM     12  H   UNL     1      -0.137  15.402  23.162  0.00  0.00    +0.000 HD
ENDBRANCH   7  11
ENDBRANCH   1   2
BRANCH   1  13
ATOM     13  C   UNL     1       0.044  12.232  20.700  0.00  0.00    +0.000 A 
ATOM     14  C   UNL     1      -0.898  12.431  19.683  0.00  0.00    +0.000 A 
ATOM     15  C   UNL     1      -0.471  12.915  18.457  0.00  0.00    +0.000 A 
ATOM     16  N   UNL     1       0.815  13.194  18.164  0.00  0.00    +0.000 NA
ATOM     17  C   UNL     1       1.717  12.972  19.145  0.00  0.00    +0.000 A 
ATOM     18  C   UNL     1       1.387  12.505  20.409  0.00  0.00    +0.000 A 
ENDBRANCH   1  13
BRANCH   1  22
ATOM     19  C   UNL     1       1.265   8.852  21.460  0.00  0.00    +0.000 C 
ATOM     20  C   UNL     1       1.350   9.271  22.917  0.00  0.00    +0.000 C 
ATOM     21  C   UNL     1      -0.099   9.553  23.255  0.00  0.00    +0.000 C 
ATOM     22  N   UNL     1      -0.648  10.271  22.092  0.00  0.00    +0.000 NA
ATOM     23  C   UNL     1       0.003   9.590  20.935  0.00  0.00    +0.000 C 
BRANCH  19  27
ATOM     24  N   UNL     1       1.702   5.423  20.285  0.00  0.00    +0.000 N 
ATOM     25  C   UNL     1       1.899   6.785  20.325  0.00  0.00    +0.000 C 
ATOM     26  O   UNL     1       2.622   7.400  19.557  0.00  0.00    +0.000 OA
ATOM     27  N   UNL     1       1.198   7.396  21.325  0.00  0.00    +0.000 N 
ATOM     28  H   UNL     1       1.225   5.000  21.066  0.00  0.00    +0.000 HD
ATOM     29  H   UNL     1       0.422   6.899  21.735  0.00  0.00    +0.000 HD
BRANCH  24  31
ATOM     30  C   UNL     1       3.891   4.685  19.366  0.00  0.00    +0.000 C 
ATOM     31  C   UNL     1       2.360   4.541  19.306  0.00  0.00    +0.000 C 
ATOM     32  C   UNL     1       1.857   4.849  17.884  0.00  0.00    +0.000 C 
ATOM     33  C   UNL     1       2.013   3.076  19.628  0.00  0.00    +0.000 C 
ENDBRANCH  24  31
ENDBRANCH  19  27
ENDBRANCH   1  22
TORSDOF 6
ENDMDL
MODEL 2
REMARK VINA RESULT:      -6.8      3.055     10.500
REMARK  Name = 
REMARK  9 active torsions:
REMARK  status: ('A' for Active; 'I' for Inactive)
REMARK    1  A    between atoms: C_1  and  C_2
REMARK    2  A    between atoms: C_2  and  C_3
REMARK    3  A    between atoms: C_2  and  C_4
REMARK    4  A    between atoms: C_2  and  N_5
REMARK    5  A    between atoms: N_8  and  C_9
REMARK    6  A    between atoms: N_12  and  C_13
REMARK    7  A    between atoms: C_13  and  C_14
REMARK    8  A    between atoms: C_13  and  C_20
REMARK    9  A    between atoms: C_25  and  O_26
REMARK                            x       y       z     vdW  Elec       q    Type
REMARK                         _______ _______ _______ _____ _____    ______ ____
ROOT
ATOM      1  C   UNL     1       3.399   5.741  19.227  0.00  0.00    +0.000 C 
ENDROOT
BRANCH   1   2
ATOM      2  C   UNL     1       4.112   5.316  17.926  0.00  0.00    +0.000 A 
ATOM      3  C   UNL     1       5.353   5.879  17.559  0.00  0.00    +0.000 A 
ATOM      4  C   UNL     1       5.979   5.427  16.416  0.00  0.00    +0.000 A 
ATOM      5  C   UNL     1       5.411   4.475  15.610  0.00  0.00    +0.000 A 
ATOM      6  C   UNL     1       4.172   3.937  15.884  0.00  0.00    +0.000 A 
ATOM      7  C   UNL     1       3.525   4.369  17.049  0.00  0.00    +0.000 A 
ATOM      8  O   UNL     1       6.205   4.148  14.555  0.00  0.00    +0.000 OA
ATOM      9  C   UNL     1       7.341   5.005  14.795  0.00  0.00    +0.000 C 
ATOM     10  O   UNL     1       7.196   5.833  15.966  0.00  0.00    +0.000 OA
BRANCH   7  11
ATOM     11  O   UNL     1       2.293   3.856  17.355  0.00  0.00    +0.000 OA
ATOM     12  H   UNL     1       1.906   3.475  16.548  0.00  0.00    +0.000 HD
ENDBRANCH   7  11
ENDBRANCH   1   2
BRANCH   1  13
ATOM     13  C   UNL     1       3.248   4.517  20.139  0.00  0.00    +0.000 A 
ATOM     14  C   UNL     1       2.189   4.413  21.048  0.00  0.00    +0.000 A 
ATOM     15  C   UNL     1       2.070   3.264  21.814  0.00  0.00    +0.000 A 
ATOM     16  N   UNL     1       2.933   2.229  21.757  0.00  0.00    +0.000 NA
ATOM     17  C   UNL     1       3.965   2.354  20.896  0.00  0.00    +0.000 A 
ATOM     18  C   UNL     1       4.162   3.456  20.075  0.00  0.00    +0.000 A 
ENDBRANCH   1  13
BRANCH   1  22
ATOM     19  C   UNL     1       1.982   8.788  19.675  0.00  0.00    +0.000 C 
ATOM     20  C   UNL     1       2.611   8.627  18.302  0.00  0.00    +0.000 C 
ATOM     21  C   UNL     1       2.032   7.306  17.837  0.00  0.00    +0.000 C 
ATOM     22  N   UNL     1       2.074   6.417  19.011  0.00  0.00    +0.000 NA
ATOM     23  C   UNL     1       1.726   7.329  20.139  0.00  0.00    +0.000 C 
BRANCH  19  27
ATOM     24  N   UNL     1      -0.713  11.112  20.493  0.00  0.00    +0.000 N 
ATOM     25  C   UNL     1       0.477  10.440  20.660  0.00  0.00    +0.000 C 
ATOM     26  O   UNL     1       1.205  10.558  21.633  0.00  0.00    +0.000 OA
ATOM     27  N   UNL     1       0.773   9.611  19.615  0.00  0.00    +0.000 N 
ATOM     28  H   UNL     1      -1.145  11.069  19.583  0.00  0.00    +0.000 HD
ATOM     29  H   UNL     1       0.025   9.344  18.993  0.00  0.00    +0.000 HD
BRANCH  24  31
ATOM     30  C   UNL     1      -0.298  13.278  21.640  0.00  0.00    +0.000 C 
ATOM     31  C   UNL     1      -1.242  12.073  21.476  0.00  0.00    +0.000 C 
ATOM     32  C   UNL     1      -1.460  11.384  22.835  0.00  0.00    +0.000 C 
ATOM     33  C   UNL     1      -2.601  12.605  20.985  0.00  0.00    +0.000 C 
ENDBRANCH  24  31
ENDBRANCH  19  27
ENDBRANCH   1  22
TORSDOF 6
ENDMDL
MODEL 3
REMARK VINA RESULT:      -6.8      3.273     10.585
REMARK  Name = 
REMARK  9 active torsions:
REMARK  status: ('A' for Active; 'I' for Inactive)
REMARK    1  A    between atoms: C_1  and  C_2
REMARK    2  A    between atoms: C_2  and  C_3
REMARK    3  A    between atoms: C_2  and  C_4
REMARK    4  A    between atoms: C_2  and  N_5
REMARK    5  A    between atoms: N_8  and  C_9
REMARK    6  A    between atoms: N_12  and  C_13
REMARK    7  A    between atoms: C_13  and  C_14
REMARK    8  A    between atoms: C_13  and  C_20
REMARK    9  A    between atoms: C_25  and  O_26
REMARK                            x       y       z     vdW  Elec       q    Type
REMARK                         _______ _______ _______ _____ _____    ______ ____
ROOT
ATOM      1  C   UNL     1       3.691   5.701  19.204  0.00  0.00    +0.000 C 
ENDROOT
BRANCH   1   2
ATOM      2  C   UNL     1       4.758   5.349  18.145  0.00  0.00    +0.000 A 
ATOM      3  C   UNL     1       4.386   4.936  16.848  0.00  0.00    +0.000 A 
ATOM      4  C   UNL     1       5.375   4.685  15.919  0.00  0.00    +0.000 A 
ATOM      5  C   UNL     1       6.705   4.788  16.234  0.00  0.00    +0.000 A 
ATOM      6  C   UNL     1       7.126   5.123  17.503  0.00  0.00    +0.000 A 
ATOM      7  C   UNL     1       6.140   5.400  18.458  0.00  0.00    +0.000 A 
ATOM      8  O   UNL     1       7.512   4.530  15.170  0.00  0.00    +0.000 OA
ATOM      9  C   UNL     1       6.532   4.255  14.147  0.00  0.00    +0.000 C 
ATOM     10  O   UNL     1       5.172   4.335  14.621  0.00  0.00    +0.000 OA
BRANCH   7  11
ATOM     11  O   UNL     1       6.521   5.737  19.729  0.00  0.00    +0.000 OA
ATOM     12  H   UNL     1       6.106   6.585  19.964  0.00  0.00    +0.000 HD
ENDBRANCH   7  11
ENDBRANCH   1   2
BRANCH   1  13
ATOM     13  C   UNL     1       3.400   4.458  20.054  0.00  0.00    +0.000 A 
ATOM     14  C   UNL     1       4.120   3.270  19.877  0.00  0.00    +0.000 A 
ATOM     15  C   UNL     1       3.852   2.192  20.704  0.00  0.00    +0.000 A 
ATOM     16  N   UNL     1       2.912   2.201  21.671  0.00  0.00    +0.000 NA
ATOM     17  C   UNL     1       2.206   3.343  21.813  0.00  0.00    +0.000 A 
ATOM     18  C   UNL     1       2.411   4.481  21.046  0.00  0.00    +0.000 A 
ENDBRANCH   1  13
BRANCH   1  22
ATOM     19  C   UNL     1       1.997   8.638  19.182  0.00  0.00    +0.000 C 
ATOM     20  C   UNL     1       2.969   8.510  18.022  0.00  0.00    +0.000 C 
ATOM     21  C   UNL     1       2.625   7.144  17.463  0.00  0.00    +0.000 C 
ATOM     22  N   UNL     1       2.423   6.273  18.634  0.00  0.00    +0.000 NA
ATOM     23  C   UNL     1       1.732   7.168  19.608  0.00  0.00    +0.000 C 
BRANCH  19  27
ATOM     24  N   UNL     1      -0.814  10.966  19.101  0.00  0.00    +0.000 N 
ATOM     25  C   UNL     1       0.359  10.409  19.559  0.00  0.00    +0.000 C 
ATOM     26  O   UNL     1       0.966  10.792  20.547  0.00  0.00    +0.000 OA
ATOM     27  N   UNL     1       0.790   9.366  18.789  0.00  0.00    +0.000 N 
ATOM     28  H   UNL     1      -1.135  10.685  18.188  0.00  0.00    +0.000 HD
ATOM     29  H   UNL     1       0.126   8.923  18.172  0.00  0.00    +0.000 HD
BRANCH  24  31
ATOM     30  C   UNL     1      -0.773  13.435  19.389  0.00  0.00    +0.000 C 
ATOM     31  C   UNL     1      -1.471  12.112  19.753  0.00  0.00    +0.000 C 
ATOM     32  C   UNL     1      -1.483  11.925  21.281  0.00  0.00    +0.000 C 
ATOM     33  C   UNL     1      -2.931  12.202  19.271  0.00  0.00    +0.000 C 
ENDBRANCH  24  31
ENDBRANCH  19  27
ENDBRANCH   1  22
TORSDOF 6
ENDMDL
MODEL 4
REMARK VINA RESULT:      -6.8      2.541      4.453
REMARK  Name = 
REMARK  9 active torsions:
REMARK  status: ('A' for Active; 'I' for Inactive)
REMARK    1  A    between atoms: C_1  and  C_2
REMARK    2  A    between atoms: C_2  and  C_3
REMARK    3  A    between atoms: C_2  and  C_4
REMARK    4  A    between atoms: C_2  and  N_5
REMARK    5  A    between atoms: N_8  and  C_9
REMARK    6  A    between atoms: N_12  and  C_13
REMARK    7  A    between atoms: C_13  and  C_14
REMARK    8  A    between atoms: C_13  and  C_20
REMARK    9  A    between atoms: C_25  and  O_26
REMARK                            x       y       z     vdW  Elec       q    Type
REMARK                         _______ _______ _______ _____ _____    ______ ____
ROOT
ATOM      1  C   UNL     1      -1.210  12.405  20.596  0.00  0.00    +0.000 C 
ENDROOT
BRANCH   1   2
ATOM      2  C   UNL     1      -0.695  13.837  20.336  0.00  0.00    +0.000 A 
ATOM      3  C   UNL     1      -0.393  14.706  21.405  0.00  0.00    +0.000 A 
ATOM      4  C   UNL     1       0.117  15.957  21.125  0.00  0.00    +0.000 A 
ATOM      5  C   UNL     1       0.300  16.389  19.837  0.00  0.00    +0.000 A 
ATOM      6  C   UNL     1      -0.039  15.608  18.754  0.00  0.00    +0.000 A 
ATOM      7  C   UNL     1      -0.542  14.327  19.014  0.00  0.00    +0.000 A 
ATOM      8  O   UNL     1       0.842  17.636  19.780  0.00  0.00    +0.000 OA
ATOM      9  C   UNL     1       0.980  17.935  21.186  0.00  0.00    +0.000 C 
ATOM     10  O   UNL     1       0.505  16.879  22.045  0.00  0.00    +0.000 OA
BRANCH   7  11
ATOM     11  O   UNL     1      -0.889  13.522  17.963  0.00  0.00    +0.000 OA
ATOM     12  H   UNL     1      -0.612  12.611  18.163  0.00  0.00    +0.000 HD
ENDBRANCH   7  11
ENDBRANCH   1   2
BRANCH   1  13
ATOM     13  C   UNL     1      -2.417  12.471  21.540  0.00  0.00    +0.000 A 
ATOM     14  C   UNL     1      -3.685  12.843  21.076  0.00  0.00    +0.000 A 
ATOM     15  C   UNL     1      -4.752  12.839  21.959  0.00  0.00    +0.000 A 
ATOM     16  N   UNL     1      -4.648  12.516  23.264  0.00  0.00    +0.000 NA
ATOM     17  C   UNL     1      -3.415  12.186  23.705  0.00  0.00    +0.000 A 
ATOM     18  C   UNL     1      -2.288  12.145  22.897  0.00  0.00    +0.000 A 
ENDBRANCH   1  13
BRANCH   1  22
ATOM     19  C   UNL     1       0.583   9.730  19.538  0.00  0.00    +0.000 C 
ATOM     20  C   UNL     1       1.288  11.050  19.281  0.00  0.00    +0.000 C 
ATOM     21  C   UNL     1       1.197  11.730  20.632  0.00  0.00    +0.000 C 
ATOM     22  N   UNL     1      -0.165  11.461  21.123  0.00  0.00    +0.000 NA
ATOM     23  C   UNL     1      -0.414  10.057  20.682  0.00  0.00    +0.000 C 
BRANCH  19  27
ATOM     24  N   UNL     1       2.911   6.925  19.326  0.00  0.00    +0.000 N 
ATOM     25  C   UNL     1       2.073   7.915  18.866  0.00  0.00    +0.000 C 
ATOM     26  O   UNL     1       1.821   8.113  17.687  0.00  0.00    +0.000 OA
ATOM     27  N   UNL     1       1.538   8.670  19.870  0.00  0.00    +0.000 N 
ATOM     28  H   UNL     1       3.179   6.959  20.297  0.00  0.00    +0.000 HD
ATOM     29  H   UNL     1       1.552   8.296  20.807  0.00  0.00    +0.000 HD
BRANCH  24  31
ATOM     30  C   UNL     1       4.353   6.739  17.310  0.00  0.00    +0.000 C 
ATOM     31  C   UNL     1       3.619   5.988  18.436  0.00  0.00    +0.000 C 
ATOM     32  C   UNL     1       2.634   4.969  17.836  0.00  0.00    +0.000 C 
ATOM     33  C   UNL     1       4.673   5.214  19.249  0.00  0.00    +0.000 C 
ENDBRANCH  24  31
ENDBRANCH  19  27
ENDBRANCH   1  22
TORSDOF 6
ENDMDL
MODEL 5
REMARK VINA RESULT:      -6.7      3.289     10.557
REMARK  Name = 
REMARK  9 active torsions:
REMARK  status: ('A' for Active; 'I' for Inactive)
REMARK    1  A    between atoms: C_1  and  C_2
REMARK    2  A    between atoms: C_2  and  C_3
REMARK    3  A    between atoms: C_2  and  C_4
REMARK    4  A    between atoms: C_2  and  N_5
REMARK    5  A    between atoms: N_8  and  C_9
REMARK    6  A    between atoms: N_12  and  C_13
REMARK    7  A    between atoms: C_13  and  C_14
REMARK    8  A    between atoms: C_13  and  C_20
REMARK    9  A    between atoms: C_25  and  O_26
REMARK                            x       y       z     vdW  Elec       q    Type
REMARK                         _______ _______ _______ _____ _____    ______ ____
ROOT
ATOM      1  C   UNL     1       3.697   5.733  19.186  0.00  0.00    +0.000 C 
ENDROOT
BRANCH   1   2
ATOM      2  C   UNL     1       4.768   5.387  18.129  0.00  0.00    +0.000 A 
ATOM      3  C   UNL     1       4.400   4.991  16.825  0.00  0.00    +0.000 A 
ATOM      4  C   UNL     1       5.392   4.747  15.898  0.00  0.00    +0.000 A 
ATOM      5  C   UNL     1       6.721   4.841  16.221  0.00  0.00    +0.000 A 
ATOM      6  C   UNL     1       7.138   5.160  17.495  0.00  0.00    +0.000 A 
ATOM      7  C   UNL     1       6.148   5.430  18.449  0.00  0.00    +0.000 A 
ATOM      8  O   UNL     1       7.533   4.592  15.157  0.00  0.00    +0.000 OA
ATOM      9  C   UNL     1       6.556   4.333  14.126  0.00  0.00    +0.000 C 
ATOM     10  O   UNL     1       5.194   4.413  14.595  0.00  0.00    +0.000 OA
BRANCH   7  11
ATOM     11  O   UNL     1       6.524   5.750  19.726  0.00  0.00    +0.000 OA
ATOM     12  H   UNL     1       5.792   5.534  20.329  0.00  0.00    +0.000 HD
ENDBRANCH   7  11
ENDBRANCH   1   2
BRANCH   1  13
ATOM     13  C   UNL     1       3.396   4.481  20.020  0.00  0.00    +0.000 A 
ATOM     14  C   UNL     1       2.402   4.485  21.006  0.00  0.00    +0.000 A 
ATOM     15  C   UNL     1       2.135   3.315  21.697  0.00  0.00    +0.000 A 
ATOM     16  N   UNL     1       2.794   2.155  21.496  0.00  0.00    +0.000 NA
ATOM     17  C   UNL     1       3.769   2.172  20.562  0.00  0.00    +0.000 A 
ATOM     18  C   UNL     1       4.099   3.288  19.806  0.00  0.00    +0.000 A 
ENDBRANCH   1  13
BRANCH   1  22
ATOM     19  C   UNL     1       2.077   8.708  19.087  0.00  0.00    +0.000 C 
ATOM     20  C   UNL     1       3.025   8.515  17.918  0.00  0.00    +0.000 C 
ATOM     21  C   UNL     1       2.637   7.140  17.413  0.00  0.00    +0.000 C 
ATOM     22  N   UNL     1       2.434   6.316  18.617  0.00  0.00    +0.000 NA
ATOM     23  C   UNL     1       1.782   7.262  19.569  0.00  0.00    +0.000 C 
BRANCH  19  27
ATOM     24  N   UNL     1      -0.766  10.999  19.043  0.00  0.00    +0.000 N 
ATOM     25  C   UNL     1       0.388  10.419  19.519  0.00  0.00    +0.000 C 
ATOM     26  O   UNL     1       0.929  10.721  20.571  0.00  0.00    +0.000 OA
ATOM     27  N   UNL     1       0.881   9.454  18.688  0.00  0.00    +0.000 N 
ATOM     28  H   UNL     1      -1.029  10.796  18.091  0.00  0.00    +0.000 HD
ATOM     29  H   UNL     1       0.262   9.058  17.997  0.00  0.00    +0.000 HD
BRANCH  24  31
ATOM     30  C   UNL     1      -1.445  11.856  21.276  0.00  0.00    +0.000 C 
ATOM     31  C   UNL     1      -1.480  12.075  19.752  0.00  0.00    +0.000 C 
ATOM     32  C   UNL     1      -2.938  12.162  19.266  0.00  0.00    +0.000 C 
ATOM     33  C   UNL     1      -0.796  13.422  19.455  0.00  0.00    +0.000 C 
ENDBRANCH  24  31
ENDBRANCH  19  27
ENDBRANCH   1  22
TORSDOF 6
ENDMDL
MODEL 6
REMARK VINA RESULT:      -6.6      0.690      1.053
REMARK  Name = 
REMARK  9 active torsions:
REMARK  status: ('A' for Active; 'I' for Inactive)
REMARK    1  A    between atoms: C_1  and  C_2
REMARK    2  A    between atoms: C_2  and  C_3
REMARK    3  A    between atoms: C_2  and  C_4
REMARK    4  A    between atoms: C_2  and  N_5
REMARK    5  A    between atoms: N_8  and  C_9
REMARK    6  A    between atoms: N_12  and  C_13
REMARK    7  A    between atoms: C_13  and  C_14
REMARK    8  A    between atoms: C_13  and  C_20
REMARK    9  A    between atoms: C_25  and  O_26
REMARK                            x       y       z     vdW  Elec       q    Type
REMARK                         _______ _______ _______ _____ _____    ______ ____
ROOT
ATOM      1  C   UNL     1      -0.282  11.518  21.723  0.00  0.00    +0.000 C 
ENDROOT
BRANCH   1   2
ATOM      2  C   UNL     1      -1.295  12.364  22.524  0.00  0.00    +0.000 A 
ATOM      3  C   UNL     1      -2.613  11.908  22.741  0.00  0.00    +0.000 A 
ATOM      4  C   UNL     1      -3.465  12.673  23.509  0.00  0.00    +0.000 A 
ATOM      5  C   UNL     1      -3.078  13.879  24.034  0.00  0.00    +0.000 A 
ATOM      6  C   UNL     1      -1.826  14.404  23.801  0.00  0.00    +0.000 A 
ATOM      7  C   UNL     1      -0.936  13.637  23.037  0.00  0.00    +0.000 A 
ATOM      8  O   UNL     1      -4.055  14.456  24.785  0.00  0.00    +0.000 OA
ATOM      9  C   UNL     1      -5.101  13.468  24.673  0.00  0.00    +0.000 C 
ATOM     10  O   UNL     1      -4.739  12.341  23.849  0.00  0.00    +0.000 OA
BRANCH   7  11
ATOM     11  O   UNL     1       0.317  14.126  22.785  0.00  0.00    +0.000 OA
ATOM     12  H   UNL     1       0.297  15.094  22.872  0.00  0.00    +0.000 HD
ENDBRANCH   7  11
ENDBRANCH   1   2
BRANCH   1  13
ATOM     13  C   UNL     1      -0.293  11.978  20.260  0.00  0.00    +0.000 A 
ATOM     14  C   UNL     1      -1.406  11.764  19.438  0.00  0.00    +0.000 A 
ATOM     15  C   UNL     1      -1.384  12.243  18.138  0.00  0.00    +0.000 A 
ATOM     16  N   UNL     1      -0.336  12.894  17.594  0.00  0.00    +0.000 NA
ATOM     17  C   UNL     1       0.741  13.069  18.388  0.00  0.00    +0.000 A 
ATOM     18  C   UNL     1       0.810  12.642  19.707  0.00  0.00    +0.000 A 
ENDBRANCH   1  13
BRANCH   1  22
ATOM     19  C   UNL     1       1.444   8.640  21.243  0.00  0.00    +0.000 C 
ATOM     20  C   UNL     1       1.543   9.156  22.668  0.00  0.00    +0.000 C 
ATOM     21  C   UNL     1       0.091   9.413  23.018  0.00  0.00    +0.000 C 
ATOM     22  N   UNL     1      -0.503  10.034  21.823  0.00  0.00    +0.000 NA
ATOM     23  C   UNL     1       0.148   9.300  20.699  0.00  0.00    +0.000 C 
BRANCH  19  27
ATOM     24  N   UNL     1       1.867   5.161  20.222  0.00  0.00    +0.000 N 
ATOM     25  C   UNL     1       2.008   6.528  20.155  0.00  0.00    +0.000 C 
ATOM     26  O   UNL     1       2.591   7.118  19.259  0.00  0.00    +0.000 OA
ATOM     27  N   UNL     1       1.423   7.176  21.205  0.00  0.00    +0.000 N 
ATOM     28  H   UNL     1       1.519   4.772  21.085  0.00  0.00    +0.000 HD
ATOM     29  H   UNL     1       0.733   6.680  21.747  0.00  0.00    +0.000 HD
BRANCH  24  31
ATOM     30  C   UNL     1       1.897   4.574  17.806  0.00  0.00    +0.000 C 
ATOM     31  C   UNL     1       2.423   4.241  19.214  0.00  0.00    +0.000 C 
ATOM     32  C   UNL     1       2.084   2.783  19.573  0.00  0.00    +0.000 C 
ATOM     33  C   UNL     1       3.956   4.383  19.188  0.00  0.00    +0.000 C 
ENDBRANCH  24  31
ENDBRANCH  19  27
ENDBRANCH   1  22
TORSDOF 6
ENDMDL
MODEL 7
REMARK VINA RESULT:      -6.5      3.815      9.742
REMARK  Name = 
REMARK  9 active torsions:
REMARK  status: ('A' for Active; 'I' for Inactive)
REMARK    1  A    between atoms: C_1  and  C_2
REMARK    2  A    between atoms: C_2  and  C_3
REMARK    3  A    between atoms: C_2  and  C_4
REMARK    4  A    between atoms: C_2  and  N_5
REMARK    5  A    between atoms: N_8  and  C_9
REMARK    6  A    between atoms: N_12  and  C_13
REMARK    7  A    between atoms: C_13  and  C_14
REMARK    8  A    between atoms: C_13  and  C_20
REMARK    9  A    between atoms: C_25  and  O_26
REMARK                            x       y       z     vdW  Elec       q    Type
REMARK                         _______ _______ _______ _____ _____    ______ ____
ROOT
ATOM      1  C   UNL     1       3.732   5.698  17.658  0.00  0.00    +0.000 C 
ENDROOT
BRANCH   1   2
ATOM      2  C   UNL     1       3.031   4.614  18.505  0.00  0.00    +0.000 A 
ATOM      3  C   UNL     1       3.150   4.601  19.911  0.00  0.00    +0.000 A 
ATOM      4  C   UNL     1       2.461   3.647  20.630  0.00  0.00    +0.000 A 
ATOM      5  C   UNL     1       1.697   2.691  20.013  0.00  0.00    +0.000 A 
ATOM      6  C   UNL     1       1.597   2.616  18.641  0.00  0.00    +0.000 A 
ATOM      7  C   UNL     1       2.274   3.585  17.890  0.00  0.00    +0.000 A 
ATOM      8  O   UNL     1       1.077   1.868  20.902  0.00  0.00    +0.000 OA
ATOM      9  C   UNL     1       1.540   2.423  22.152  0.00  0.00    +0.000 C 
ATOM     10  O   UNL     1       2.434   3.542  21.986  0.00  0.00    +0.000 OA
BRANCH   7  11
ATOM     11  O   UNL     1       2.197   3.543  16.524  0.00  0.00    +0.000 OA
ATOM     12  H   UNL     1       3.084   3.702  16.158  0.00  0.00    +0.000 HD
ENDBRANCH   7  11
ENDBRANCH   1   2
BRANCH   1  13
ATOM     13  C   UNL     1       5.147   5.222  17.308  0.00  0.00    +0.000 A 
ATOM     14  C   UNL     1       5.463   4.756  16.026  0.00  0.00    +0.000 A 
ATOM     15  C   UNL     1       6.768   4.384  15.747  0.00  0.00    +0.000 A 
ATOM     16  N   UNL     1       7.770   4.421  16.650  0.00  0.00    +0.000 NA
ATOM     17  C   UNL     1       7.446   4.846  17.890  0.00  0.00    +0.000 A 
ATOM     18  C   UNL     1       6.173   5.255  18.262  0.00  0.00    +0.000 A 
ENDBRANCH   1  13
BRANCH   1  22
ATOM     19  C   UNL     1       2.069   8.647  17.481  0.00  0.00    +0.000 C 
ATOM     20  C   UNL     1       1.481   7.700  18.511  0.00  0.00    +0.000 C 
ATOM     21  C   UNL     1       2.705   7.280  19.299  0.00  0.00    +0.000 C 
ATOM     22  N   UNL     1       3.765   7.057  18.300  0.00  0.00    +0.000 NA
ATOM     23  C   UNL     1       3.529   8.145  17.306  0.00  0.00    +0.000 C 
BRANCH  19  27
ATOM     24  N   UNL     1       0.797  11.900  18.542  0.00  0.00    +0.000 N 
ATOM     25  C   UNL     1       0.744  10.570  18.194  0.00  0.00    +0.000 C 
ATOM     26  O   UNL     1      -0.284   9.914  18.131  0.00  0.00    +0.000 OA
ATOM     27  N   UNL     1       1.972  10.041  17.919  0.00  0.00    +0.000 N 
ATOM     28  H   UNL     1       1.707  12.295  18.727  0.00  0.00    +0.000 HD
ATOM     29  H   UNL     1       2.730  10.675  17.715  0.00  0.00    +0.000 HD
BRANCH  24  31
ATOM     30  C   UNL     1      -1.610  12.275  18.049  0.00  0.00    +0.000 C 
ATOM     31  C   UNL     1      -0.394  12.691  18.897  0.00  0.00    +0.000 C 
ATOM     32  C   UNL     1      -0.114  14.194  18.716  0.00  0.00    +0.000 C 
ATOM     33  C   UNL     1      -0.746  12.444  20.375  0.00  0.00    +0.000 C 
ENDBRANCH  24  31
ENDBRANCH  19  27
ENDBRANCH   1  22
TORSDOF 6
ENDMDL
MODEL 8
REMARK VINA RESULT:      -6.5      3.785      9.763
REMARK  Name = 
REMARK  9 active torsions:
REMARK  status: ('A' for Active; 'I' for Inactive)
REMARK    1  A    between atoms: C_1  and  C_2
REMARK    2  A    between atoms: C_2  and  C_3
REMARK    3  A    between atoms: C_2  and  C_4
REMARK    4  A    between atoms: C_2  and  N_5
REMARK    5  A    between atoms: N_8  and  C_9
REMARK    6  A    between atoms: N_12  and  C_13
REMARK    7  A    between atoms: C_13  and  C_14
REMARK    8  A    between atoms: C_13  and  C_20
REMARK    9  A    between atoms: C_25  and  O_26
REMARK                            x       y       z     vdW  Elec       q    Type
REMARK                         _______ _______ _______ _____ _____    ______ ____
ROOT
ATOM      1  C   UNL     1       3.745   5.747  17.665  0.00  0.00    +0.000 C 
ENDROOT
BRANCH   1   2
ATOM      2  C   UNL     1       3.057   4.650  18.504  0.00  0.00    +0.000 A 
ATOM      3  C   UNL     1       3.154   4.643  19.912  0.00  0.00    +0.000 A 
ATOM      4  C   UNL     1       2.476   3.675  20.623  0.00  0.00    +0.000 A 
ATOM      5  C   UNL     1       1.745   2.699  19.997  0.00  0.00    +0.000 A 
ATOM      6  C   UNL     1       1.668   2.618  18.624  0.00  0.00    +0.000 A 
ATOM      7  C   UNL     1       2.334   3.601  17.881  0.00  0.00    +0.000 A 
ATOM      8  O   UNL     1       1.131   1.864  20.879  0.00  0.00    +0.000 OA
ATOM      9  C   UNL     1       1.561   2.433  22.134  0.00  0.00    +0.000 C 
ATOM     10  O   UNL     1       2.430   3.573  21.978  0.00  0.00    +0.000 OA
BRANCH   7  11
ATOM     11  O   UNL     1       2.280   3.553  16.514  0.00  0.00    +0.000 OA
ATOM     12  H   UNL     1       2.443   4.446  16.165  0.00  0.00    +0.000 HD
ENDBRANCH   7  11
ENDBRANCH   1   2
BRANCH   1  13
ATOM     13  C   UNL     1       5.168   5.292  17.317  0.00  0.00    +0.000 A 
ATOM     14  C   UNL     1       6.185   5.282  18.280  0.00  0.00    +0.000 A 
ATOM     15  C   UNL     1       7.440   4.815  17.927  0.00  0.00    +0.000 A 
ATOM     16  N   UNL     1       7.762   4.382  16.691  0.00  0.00    +0.000 NA
ATOM     17  C   UNL     1       6.780   4.423  15.765  0.00  0.00    +0.000 A 
ATOM     18  C   UNL     1       5.488   4.858  16.024  0.00  0.00    +0.000 A 
ENDBRANCH   1  13
BRANCH   1  22
ATOM     19  C   UNL     1       2.057   8.682  17.483  0.00  0.00    +0.000 C 
ATOM     20  C   UNL     1       1.465   7.724  18.502  0.00  0.00    +0.000 C 
ATOM     21  C   UNL     1       2.684   7.311  19.302  0.00  0.00    +0.000 C 
ATOM     22  N   UNL     1       3.757   7.103  18.314  0.00  0.00    +0.000 NA
ATOM     23  C   UNL     1       3.523   8.194  17.323  0.00  0.00    +0.000 C 
BRANCH  19  27
ATOM     24  N   UNL     1       0.744  11.909  18.574  0.00  0.00    +0.000 N 
ATOM     25  C   UNL     1       0.708  10.579  18.222  0.00  0.00    +0.000 C 
ATOM     26  O   UNL     1      -0.309   9.905  18.173  0.00  0.00    +0.000 OA
ATOM     27  N   UNL     1       1.942  10.072  17.927  0.00  0.00    +0.000 N 
ATOM     28  H   UNL     1       1.648  12.319  18.747  0.00  0.00    +0.000 HD
ATOM     29  H   UNL     1       2.685  10.721  17.714  0.00  0.00    +0.000 HD
BRANCH  24  31
ATOM     30  C   UNL     1      -0.820  12.454  20.429  0.00  0.00    +0.000 C 
ATOM     31  C   UNL     1      -0.456  12.677  18.949  0.00  0.00    +0.000 C 
ATOM     32  C   UNL     1      -1.644  12.288  18.050  0.00  0.00    +0.000 C 
ATOM     33  C   UNL     1      -0.180  14.179  18.754  0.00  0.00    +0.000 C 
ENDBRANCH  24  31
ENDBRANCH  19  27
ENDBRANCH   1  22
TORSDOF 6
ENDMDL
MODEL 9
REMARK VINA RESULT:      -6.5      2.380      2.974
REMARK  Name = 
REMARK  9 active torsions:
REMARK  status: ('A' for Active; 'I' for Inactive)
REMARK    1  A    between atoms: C_1  and  C_2
REMARK    2  A    between atoms: C_2  and  C_3
REMARK    3  A    between atoms: C_2  and  C_4
REMARK    4  A    between atoms: C_2  and  N_5
REMARK    5  A    between atoms: N_8  and  C_9
REMARK    6  A    between atoms: N_12  and  C_13
REMARK    7  A    between atoms: C_13  and  C_14
REMARK    8  A    between atoms: C_13  and  C_20
REMARK    9  A    between atoms: C_25  and  O_26
REMARK                            x       y       z     vdW  Elec       q    Type
REMARK                         _______ _______ _______ _____ _____    ______ ____
ROOT
ATOM      1  C   UNL     1      -1.906  12.243  19.767  0.00  0.00    +0.000 C 
ENDROOT
BRANCH   1   2
ATOM      2  C   UNL     1      -2.844  13.055  20.686  0.00  0.00    +0.000 A 
ATOM      3  C   UNL     1      -3.797  12.410  21.504  0.00  0.00    +0.000 A 
ATOM      4  C   UNL     1      -4.575  13.173  22.350  0.00  0.00    +0.000 A 
ATOM      5  C   UNL     1      -4.473  14.539  22.389  0.00  0.00    +0.000 A 
ATOM      6  C   UNL     1      -3.607  15.226  21.566  0.00  0.00    +0.000 A 
ATOM      7  C   UNL     1      -2.794  14.471  20.711  0.00  0.00    +0.000 A 
ATOM      8  O   UNL     1      -5.304  15.096  23.311  0.00  0.00    +0.000 OA
ATOM      9  C   UNL     1      -5.939  13.916  23.850  0.00  0.00    +0.000 C 
ATOM     10  O   UNL     1      -5.492  12.692  23.231  0.00  0.00    +0.000 OA
BRANCH   7  11
ATOM     11  O   UNL     1      -1.920  15.119  19.880  0.00  0.00    +0.000 OA
ATOM     12  H   UNL     1      -2.283  15.998  19.671  0.00  0.00    +0.000 HD
ENDBRANCH   7  11
ENDBRANCH   1   2
BRANCH   1  13
ATOM     13  C   UNL     1      -2.677  11.828  18.507  0.00  0.00    +0.000 A 
ATOM     14  C   UNL     1      -2.020  11.615  17.289  0.00  0.00    +0.000 A 
ATOM     15  C   UNL     1      -2.755  11.193  16.193  0.00  0.00    +0.000 A 
ATOM     16  N   UNL     1      -4.088  10.991  16.214  0.00  0.00    +0.000 NA
ATOM     17  C   UNL     1      -4.713  11.226  17.387  0.00  0.00    +0.000 A 
ATOM     18  C   UNL     1      -4.064  11.635  18.544  0.00  0.00    +0.000 A 
ENDBRANCH   1  13
BRANCH   1  22
ATOM     19  C   UNL     1       0.772  10.208  19.345  0.00  0.00    +0.000 C 
ATOM     20  C   UNL     1       1.073  11.402  20.235  0.00  0.00    +0.000 C 
ATOM     21  C   UNL     1      -0.075  11.364  21.223  0.00  0.00    +0.000 C 
ATOM     22  N   UNL     1      -1.275  11.050  20.429  0.00  0.00    +0.000 NA
ATOM     23  C   UNL     1      -0.772  10.064  19.429  0.00  0.00    +0.000 C 
BRANCH  19  27
ATOM     24  N   UNL     1       2.614   7.057  19.401  0.00  0.00    +0.000 N 
ATOM     25  C   UNL     1       1.998   8.156  18.847  0.00  0.00    +0.000 C 
ATOM     26  O   UNL     1       1.897   8.359  17.647  0.00  0.00    +0.000 OA
ATOM     27  N   UNL     1       1.502   9.017  19.784  0.00  0.00    +0.000 N 
ATOM     28  H   UNL     1       2.790   7.075  20.393  0.00  0.00    +0.000 HD
ATOM     29  H   UNL     1       1.365   8.674  20.722  0.00  0.00    +0.000 HD
BRANCH  24  31
ATOM     30  C   UNL     1       4.171   6.581  17.522  0.00  0.00    +0.000 C 
ATOM     31  C   UNL     1       3.239   5.992  18.598  0.00  0.00    +0.000 C 
ATOM     32  C   UNL     1       2.161   5.114  17.938  0.00  0.00    +0.000 C 
ATOM     33  C   UNL     1       4.090   5.095  19.516  0.00  0.00    +0.000 C 
ENDBRANCH  24  31
ENDBRANCH  19  27
ENDBRANCH   1  22
TORSDOF 6
ENDMDL
