MODEL 1
REMARK VINA RESULT:      -7.4      0.000      0.000
REMARK  Name = 
REMARK  1 active torsions:
REMARK  status: ('A' for Active; 'I' for Inactive)
REMARK    1  A    between atoms: N_10  and  C_11
REMARK                            x       y       z     vdW  Elec       q    Type
REMARK                         _______ _______ _______ _____ _____    ______ ____
ROOT
ATOM      1  O   UNL     1       5.965   4.661  19.451  0.00  0.00    +0.000 OA
ATOM      2  C   UNL     1       5.315   4.369  18.456  0.00  0.00    +0.000 A 
ATOM      3  C   UNL     1       5.908   4.519  17.114  0.00  0.00    +0.000 A 
ATOM      4  C   UNL     1       7.199   4.953  16.840  0.00  0.00    +0.000 A 
ATOM      5  C   UNL     1       7.599   5.030  15.504  0.00  0.00    +0.000 A 
ATOM      6  C   UNL     1       6.709   4.683  14.476  0.00  0.00    +0.000 A 
ATOM      7  C   UNL     1       5.416   4.240  14.773  0.00  0.00    +0.000 A 
ATOM      8  C   UNL     1       5.032   4.153  16.101  0.00  0.00    +0.000 A 
ATOM      9  S   UNL     1       3.493   3.585  16.741  0.00  0.00    +0.000 S 
ATOM     10  N   UNL     1       4.019   3.846  18.366  0.00  0.00    +0.000 N 
ENDROOT
BRANCH  10  11
ATOM     11  C   UNL     1       3.172   3.575  19.481  0.00  0.00    +0.000 A 
ATOM     12  C   UNL     1       1.973   4.286  19.655  0.00  0.00    +0.000 A 
ATOM     13  C   UNL     1       1.128   4.041  20.745  0.00  0.00    +0.000 A 
ATOM     14  C   UNL     1       1.473   3.087  21.697  0.00  0.00    +0.000 A 
ATOM     15  C   UNL     1       2.656   2.372  21.550  0.00  0.00    +0.000 A 
ATOM     16  C   UNL     1       3.486   2.608  20.452  0.00  0.00    +0.000 A 
ATOM     17  F   UNL     1       4.637   1.920  20.412  0.00  0.00    +0.000 F 
ENDBRANCH  10  11
TORSDOF 1
ENDMDL
MODEL 2
REMARK VINA RESULT:      -7.4      1.396      1.840
REMARK  Name = 
REMARK  1 active torsions:
REMARK  status: ('A' for Active; 'I' for Inactive)
REMARK    1  A    between atoms: N_10  and  C_11
REMARK                            x       y       z     vdW  Elec       q    Type
REMARK                         _______ _______ _______ _____ _____    ______ ____
ROOT
ATOM      1  O   UNL     1       2.994   3.109  16.623  0.00  0.00    +0.000 OA
ATOM      2  C   UNL     1       3.939   3.665  17.166  0.00  0.00    +0.000 A 
ATOM      3  C   UNL     1       5.083   4.137  16.362  0.00  0.00    +0.000 A 
ATOM      4  C   UNL     1       5.202   4.037  14.981  0.00  0.00    +0.000 A 
ATOM      5  C   UNL     1       6.356   4.543  14.381  0.00  0.00    +0.000 A 
ATOM      6  C   UNL     1       7.364   5.128  15.162  0.00  0.00    +0.000 A 
ATOM      7  C   UNL     1       7.222   5.227  16.550  0.00  0.00    +0.000 A 
ATOM      8  C   UNL     1       6.068   4.734  17.137  0.00  0.00    +0.000 A 
ATOM      9  S   UNL     1       5.623   4.778  18.841  0.00  0.00    +0.000 S 
ATOM     10  N   UNL     1       4.122   3.987  18.517  0.00  0.00    +0.000 N 
ENDROOT
BRANCH  10  11
ATOM     11  C   UNL     1       3.197   3.677  19.558  0.00  0.00    +0.000 A 
ATOM     12  C   UNL     1       1.974   4.362  19.652  0.00  0.00    +0.000 A 
ATOM     13  C   UNL     1       1.053   4.078  20.668  0.00  0.00    +0.000 A 
ATOM     14  C   UNL     1       1.342   3.110  21.625  0.00  0.00    +0.000 A 
ATOM     15  C   UNL     1       2.547   2.420  21.556  0.00  0.00    +0.000 A 
ATOM     16  C   UNL     1       3.454   2.695  20.531  0.00  0.00    +0.000 A 
ATOM     17  F   UNL     1       4.618   2.029  20.566  0.00  0.00    +0.000 F 
ENDBRANCH  10  11
TORSDOF 1
ENDMDL
MODEL 3
REMARK VINA RESULT:      -7.3      1.820      2.471
REMARK  Name = 
REMARK  1 active torsions:
REMARK  status: ('A' for Active; 'I' for Inactive)
REMARK    1  A    between atoms: N_10  and  C_11
REMARK                            x       y       z     vdW  Elec       q    Type
REMARK                         _______ _______ _______ _____ _____    ______ ____
ROOT
ATOM      1  O   UNL     1       3.006   3.092  16.591  0.00  0.00    +0.000 OA
ATOM      2  C   UNL     1       3.952   3.641  17.139  0.00  0.00    +0.000 A 
ATOM      3  C   UNL     1       5.109   4.096  16.343  0.00  0.00    +0.000 A 
ATOM      4  C   UNL     1       5.238   3.986  14.964  0.00  0.00    +0.000 A 
ATOM      5  C   UNL     1       6.404   4.476  14.371  0.00  0.00    +0.000 A 
ATOM      6  C   UNL     1       7.411   5.054  15.158  0.00  0.00    +0.000 A 
ATOM      7  C   UNL     1       7.258   5.164  16.544  0.00  0.00    +0.000 A 
ATOM      8  C   UNL     1       6.093   4.687  17.123  0.00  0.00    +0.000 A 
ATOM      9  S   UNL     1       5.633   4.747  18.822  0.00  0.00    +0.000 S 
ATOM     10  N   UNL     1       4.126   3.970  18.490  0.00  0.00    +0.000 N 
ENDROOT
BRANCH  10  11
ATOM     11  C   UNL     1       3.189   3.676  19.524  0.00  0.00    +0.000 A 
ATOM     12  C   UNL     1       3.508   2.751  20.533  0.00  0.00    +0.000 A 
ATOM     13  C   UNL     1       2.602   2.444  21.556  0.00  0.00    +0.000 A 
ATOM     14  C   UNL     1       1.348   3.045  21.585  0.00  0.00    +0.000 A 
ATOM     15  C   UNL     1       1.007   3.961  20.596  0.00  0.00    +0.000 A 
ATOM     16  C   UNL     1       1.920   4.277  19.588  0.00  0.00    +0.000 A 
ATOM     17  F   UNL     1       1.496   5.125  18.640  0.00  0.00    +0.000 F 
ENDBRANCH  10  11
TORSDOF 1
ENDMDL
MODEL 4
REMARK VINA RESULT:      -7.2      2.820      5.851
REMARK  Name = 
REMARK  1 active torsions:
REMARK  status: ('A' for Active; 'I' for Inactive)
REMARK    1  A    between atoms: N_10  and  C_11
REMARK                            x       y       z     vdW  Elec       q    Type
REMARK                         _______ _______ _______ _____ _____    ______ ____
ROOT
ATOM      1  O   UNL     1       4.604   3.341  17.036  0.00  0.00    +0.000 OA
ATOM      2  C   UNL     1       4.027   3.950  17.928  0.00  0.00    +0.000 A 
ATOM      3  C   UNL     1       2.740   3.454  18.452  0.00  0.00    +0.000 A 
ATOM      4  C   UNL     1       2.088   2.298  18.042  0.00  0.00    +0.000 A 
ATOM      5  C   UNL     1       0.874   1.975  18.652  0.00  0.00    +0.000 A 
ATOM      6  C   UNL     1       0.335   2.807  19.644  0.00  0.00    +0.000 A 
ATOM      7  C   UNL     1       1.011   3.962  20.050  0.00  0.00    +0.000 A 
ATOM      8  C   UNL     1       2.222   4.268  19.449  0.00  0.00    +0.000 A 
ATOM      9  S   UNL     1       3.289   5.624  19.806  0.00  0.00    +0.000 S 
ATOM     10  N   UNL     1       4.424   5.105  18.612  0.00  0.00    +0.000 N 
ENDROOT
BRANCH  10  11
ATOM     11  C   UNL     1       5.624   5.831  18.354  0.00  0.00    +0.000 A 
ATOM     12  C   UNL     1       6.774   5.606  19.130  0.00  0.00    +0.000 A 
ATOM     13  C   UNL     1       7.963   6.310  18.897  0.00  0.00    +0.000 A 
ATOM     14  C   UNL     1       8.024   7.268  17.891  0.00  0.00    +0.000 A 
ATOM     15  C   UNL     1       6.899   7.511  17.111  0.00  0.00    +0.000 A 
ATOM     16  C   UNL     1       5.722   6.795  17.335  0.00  0.00    +0.000 A 
ATOM     17  F   UNL     1       4.664   7.128  16.580  0.00  0.00    +0.000 F 
ENDBRANCH  10  11
TORSDOF 1
ENDMDL
MODEL 5
REMARK VINA RESULT:      -7.2      1.162      1.644
REMARK  Name = 
REMARK  1 active torsions:
REMARK  status: ('A' for Active; 'I' for Inactive)
REMARK    1  A    between atoms: N_10  and  C_11
REMARK                            x       y       z     vdW  Elec       q    Type
REMARK                         _______ _______ _______ _____ _____    ______ ____
ROOT
ATOM      1  O   UNL     1       6.005   4.695  19.411  0.00  0.00    +0.000 OA
ATOM      2  C   UNL     1       5.349   4.391  18.423  0.00  0.00    +0.000 A 
ATOM      3  C   UNL     1       5.935   4.524  17.075  0.00  0.00    +0.000 A 
ATOM      4  C   UNL     1       7.225   4.954  16.789  0.00  0.00    +0.000 A 
ATOM      5  C   UNL     1       7.617   5.015  15.450  0.00  0.00    +0.000 A 
ATOM      6  C   UNL     1       6.722   4.656  14.431  0.00  0.00    +0.000 A 
ATOM      7  C   UNL     1       5.430   4.217  14.740  0.00  0.00    +0.000 A 
ATOM      8  C   UNL     1       5.053   4.147  16.072  0.00  0.00    +0.000 A 
ATOM      9  S   UNL     1       3.517   3.586  16.727  0.00  0.00    +0.000 S 
ATOM     10  N   UNL     1       4.052   3.867  18.346  0.00  0.00    +0.000 N 
ENDROOT
BRANCH  10  11
ATOM     11  C   UNL     1       3.212   3.610  19.469  0.00  0.00    +0.000 A 
ATOM     12  C   UNL     1       3.546   2.606  20.393  0.00  0.00    +0.000 A 
ATOM     13  C   UNL     1       2.733   2.332  21.501  0.00  0.00    +0.000 A 
ATOM     14  C   UNL     1       1.558   3.049  21.702  0.00  0.00    +0.000 A 
ATOM     15  C   UNL     1       1.204   4.046  20.800  0.00  0.00    +0.000 A 
ATOM     16  C   UNL     1       2.026   4.326  19.706  0.00  0.00    +0.000 A 
ATOM     17  F   UNL     1       1.587   5.262  18.851  0.00  0.00    +0.000 F 
ENDBRANCH  10  11
TORSDOF 1
ENDMDL
MODEL 6
REMARK VINA RESULT:      -7.1      2.730      5.745
REMARK  Name = 
REMARK  1 active torsions:
REMARK  status: ('A' for Active; 'I' for Inactive)
REMARK    1  A    between atoms: N_10  and  C_11
REMARK                            x       y       z     vdW  Elec       q    Type
REMARK                         _______ _______ _______ _____ _____    ______ ____
ROOT
ATOM      1  O   UNL     1       3.341   6.187  20.027  0.00  0.00    +0.000 OA
ATOM      2  C   UNL     1       3.499   5.223  19.290  0.00  0.00    +0.000 A 
ATOM      3  C   UNL     1       2.464   4.175  19.209  0.00  0.00    +0.000 A 
ATOM      4  C   UNL     1       1.255   4.172  19.893  0.00  0.00    +0.000 A 
ATOM      5  C   UNL     1       0.387   3.097  19.693  0.00  0.00    +0.000 A 
ATOM      6  C   UNL     1       0.741   2.051  18.828  0.00  0.00    +0.000 A 
ATOM      7  C   UNL     1       1.959   2.076  18.141  0.00  0.00    +0.000 A 
ATOM      8  C   UNL     1       2.809   3.153  18.335  0.00  0.00    +0.000 A 
ATOM      9  S   UNL     1       4.364   3.450  17.563  0.00  0.00    +0.000 S 
ATOM     10  N   UNL     1       4.558   4.938  18.418  0.00  0.00    +0.000 N 
ENDROOT
BRANCH  10  11
ATOM     11  C   UNL     1       5.715   5.754  18.251  0.00  0.00    +0.000 A 
ATOM     12  C   UNL     1       6.839   5.575  19.076  0.00  0.00    +0.000 A 
ATOM     13  C   UNL     1       7.984   6.368  18.934  0.00  0.00    +0.000 A 
ATOM     14  C   UNL     1       8.027   7.371  17.971  0.00  0.00    +0.000 A 
ATOM     15  C   UNL     1       6.927   7.571  17.144  0.00  0.00    +0.000 A 
ATOM     16  C   UNL     1       5.794   6.767  17.279  0.00  0.00    +0.000 A 
ATOM     17  F   UNL     1       4.753   7.059  16.484  0.00  0.00    +0.000 F 
ENDBRANCH  10  11
TORSDOF 1
ENDMDL
MODEL 7
REMARK VINA RESULT:      -7.0      1.570      5.844
REMARK  Name = 
REMARK  1 active torsions:
REMARK  status: ('A' for Active; 'I' for Inactive)
REMARK    1  A    between atoms: N_10  and  C_11
REMARK                            x       y       z     vdW  Elec       q    Type
REMARK                         _______ _______ _______ _____ _____    ______ ____
ROOT
ATOM      1  O   UNL     1       5.549   3.421  19.605  0.00  0.00    +0.000 OA
ATOM      2  C   UNL     1       4.462   3.562  19.063  0.00  0.00    +0.000 A 
ATOM      3  C   UNL     1       3.220   3.285  19.809  0.00  0.00    +0.000 A 
ATOM      4  C   UNL     1       3.142   2.885  21.138  0.00  0.00    +0.000 A 
ATOM      5  C   UNL     1       1.878   2.671  21.689  0.00  0.00    +0.000 A 
ATOM      6  C   UNL     1       0.725   2.851  20.910  0.00  0.00    +0.000 A 
ATOM      7  C   UNL     1       0.823   3.263  19.578  0.00  0.00    +0.000 A 
ATOM      8  C   UNL     1       2.081   3.486  19.042  0.00  0.00    +0.000 A 
ATOM      9  S   UNL     1       2.476   4.051  17.421  0.00  0.00    +0.000 S 
ATOM     10  N   UNL     1       4.168   4.008  17.768  0.00  0.00    +0.000 N 
ENDROOT
BRANCH  10  11
ATOM     11  C   UNL     1       5.143   4.367  16.791  0.00  0.00    +0.000 A 
ATOM     12  C   UNL     1       5.311   3.590  15.632  0.00  0.00    +0.000 A 
ATOM     13  C   UNL     1       6.265   3.920  14.663  0.00  0.00    +0.000 A 
ATOM     14  C   UNL     1       7.087   5.029  14.837  0.00  0.00    +0.000 A 
ATOM     15  C   UNL     1       6.943   5.813  15.976  0.00  0.00    +0.000 A 
ATOM     16  C   UNL     1       5.978   5.489  16.932  0.00  0.00    +0.000 A 
ATOM     17  F   UNL     1       5.940   6.259  18.030  0.00  0.00    +0.000 F 
ENDBRANCH  10  11
TORSDOF 1
ENDMDL
MODEL 8
REMARK VINA RESULT:      -7.0      2.408      2.601
REMARK  Name = 
REMARK  1 active torsions:
REMARK  status: ('A' for Active; 'I' for Inactive)
REMARK    1  A    between atoms: N_10  and  C_11
REMARK                            x       y       z     vdW  Elec       q    Type
REMARK                         _______ _______ _______ _____ _____    ______ ____
ROOT
ATOM      1  O   UNL     1       5.582   3.837  19.983  0.00  0.00    +0.000 OA
ATOM      2  C   UNL     1       5.220   4.677  19.171  0.00  0.00    +0.000 A 
ATOM      3  C   UNL     1       6.170   5.694  18.682  0.00  0.00    +0.000 A 
ATOM      4  C   UNL     1       7.508   5.795  19.042  0.00  0.00    +0.000 A 
ATOM      5  C   UNL     1       8.267   6.821  18.477  0.00  0.00    +0.000 A 
ATOM      6  C   UNL     1       7.681   7.724  17.577  0.00  0.00    +0.000 A 
ATOM      7  C   UNL     1       6.335   7.601  17.220  0.00  0.00    +0.000 A 
ATOM      8  C   UNL     1       5.592   6.572  17.775  0.00  0.00    +0.000 A 
ATOM      9  S   UNL     1       3.906   6.169  17.460  0.00  0.00    +0.000 S 
ATOM     10  N   UNL     1       3.973   4.831  18.550  0.00  0.00    +0.000 N 
ENDROOT
BRANCH  10  11
ATOM     11  C   UNL     1       2.836   4.006  18.795  0.00  0.00    +0.000 A 
ATOM     12  C   UNL     1       1.830   4.424  19.682  0.00  0.00    +0.000 A 
ATOM     13  C   UNL     1       0.707   3.629  19.942  0.00  0.00    +0.000 A 
ATOM     14  C   UNL     1       0.572   2.386  19.331  0.00  0.00    +0.000 A 
ATOM     15  C   UNL     1       1.556   1.947  18.452  0.00  0.00    +0.000 A 
ATOM     16  C   UNL     1       2.665   2.752  18.183  0.00  0.00    +0.000 A 
ATOM     17  F   UNL     1       3.597   2.235  17.369  0.00  0.00    +0.000 F 
ENDBRANCH  10  11
TORSDOF 1
ENDMDL
MODEL 9
REMARK VINA RESULT:      -6.9      1.681      5.885
REMARK  Name = 
REMARK  1 active torsions:
REMARK  status: ('A' for Active; 'I' for Inactive)
REMARK    1  A    between atoms: N_10  and  C_11
REMARK                            x       y       z     vdW  Elec       q    Type
REMARK                         _______ _______ _______ _____ _____    ______ ____
ROOT
ATOM      1  O   UNL     1       3.825   6.261  18.048  0.00  0.00    +0.000 OA
ATOM      2  C   UNL     1       3.686   5.046  18.100  0.00  0.00    +0.000 A 
ATOM      3  C   UNL     1       2.726   4.450  19.048  0.00  0.00    +0.000 A 
ATOM      4  C   UNL     1       1.898   5.153  19.916  0.00  0.00    +0.000 A 
ATOM      5  C   UNL     1       1.042   4.425  20.744  0.00  0.00    +0.000 A 
ATOM      6  C   UNL     1       1.032   3.023  20.698  0.00  0.00    +0.000 A 
ATOM      7  C   UNL     1       1.866   2.334  19.811  0.00  0.00    +0.000 A 
ATOM      8  C   UNL     1       2.703   3.064  18.983  0.00  0.00    +0.000 A 
ATOM      9  S   UNL     1       3.805   2.449  17.754  0.00  0.00    +0.000 S 
ATOM     10  N   UNL     1       4.304   4.049  17.335  0.00  0.00    +0.000 N 
ENDROOT
BRANCH  10  11
ATOM     11  C   UNL     1       5.280   4.290  16.323  0.00  0.00    +0.000 A 
ATOM     12  C   UNL     1       4.962   4.103  14.967  0.00  0.00    +0.000 A 
ATOM     13  C   UNL     1       5.906   4.328  13.957  0.00  0.00    +0.000 A 
ATOM     14  C   UNL     1       7.197   4.732  14.282  0.00  0.00    +0.000 A 
ATOM     15  C   UNL     1       7.538   4.921  15.616  0.00  0.00    +0.000 A 
ATOM     16  C   UNL     1       6.589   4.711  16.619  0.00  0.00    +0.000 A 
ATOM     17  F   UNL     1       7.010   4.859  17.884  0.00  0.00    +0.000 F 
ENDBRANCH  10  11
TORSDOF 1
ENDMDL
