MODEL 1
REMARK VINA RESULT:      -7.9      0.000      0.000
REMARK  Name = 
REMARK  7 active torsions:
REMARK  status: ('A' for Active; 'I' for Inactive)
REMARK    1  A    between atoms: C_1  and  C_2
REMARK    2  A    between atoms: C_2  and  O_3
REMARK    3  A    between atoms: O_3  and  C_4
REMARK    4  A    between atoms: C_16  and  C_17
REMARK    5  A    between atoms: C_16  and  C_18
REMARK    6  A    between atoms: C_20  and  C_22
REMARK    7  A    between atoms: C_27  and  N_28
REMARK                            x       y       z     vdW  Elec       q    Type
REMARK                         _______ _______ _______ _____ _____    ______ ____
ROOT
ATOM      1  C   UNL     1      -3.519  11.331  16.974  0.00  0.00    +0.000 A 
ATOM      2  C   UNL     1      -2.151  11.373  17.187  0.00  0.00    +0.000 A 
ATOM      3  C   UNL     1      -1.656  11.751  18.434  0.00  0.00    +0.000 A 
ATOM      4  C   UNL     1      -2.509  12.014  19.517  0.00  0.00    +0.000 A 
ATOM      5  C   UNL     1      -3.902  12.030  19.301  0.00  0.00    +0.000 A 
ATOM      6  C   UNL     1      -4.379  11.698  18.015  0.00  0.00    +0.000 A 
ATOM      7  C   UNL     1      -4.800  12.434  20.412  0.00  0.00    +0.000 A 
ATOM      8  C   UNL     1      -4.262  13.163  21.418  0.00  0.00    +0.000 A 
ATOM      9  S   UNL     1      -5.340  13.728  22.679  0.00  0.00    +0.000 S 
ATOM     10  S   UNL     1      -7.037  13.229  21.707  0.00  0.00    +0.000 S 
ATOM     11  C   UNL     1      -6.275  12.156  20.537  0.00  0.00    +0.000 A 
ATOM     12  S   UNL     1      -7.216  11.000  19.771  0.00  0.00    +0.000 S 
ATOM     13  C   UNL     1      -2.746  13.484  21.507  0.00  0.00    +0.000 C 
ATOM     14  C   UNL     1      -2.310  13.713  22.982  0.00  0.00    +0.000 C 
ATOM     15  C   UNL     1      -2.457  14.810  20.757  0.00  0.00    +0.000 C 
ATOM     16  N   UNL     1      -1.988  12.344  20.821  0.00  0.00    +0.000 N 
ATOM     17  C   UNL     1      -0.710  11.953  21.272  0.00  0.00    +0.000 C 
ATOM     18  O   UNL     1      -0.079  12.547  22.148  0.00  0.00    +0.000 OA
ENDROOT
BRANCH  17  19
ATOM     19  C   UNL     1       0.006  10.746  20.744  0.00  0.00    +0.000 A 
ATOM     20  C   UNL     1      -0.009   9.596  21.559  0.00  0.00    +0.000 A 
ATOM     21  C   UNL     1       0.712   8.452  21.208  0.00  0.00    +0.000 A 
ATOM     22  C   UNL     1       1.458   8.430  20.031  0.00  0.00    +0.000 A 
ATOM     23 CL   UNL     1       2.439   7.042  19.736  0.00  0.00    +0.000 Cl
ATOM     24  C   UNL     1       1.412   9.545  19.192  0.00  0.00    +0.000 A 
ATOM     25  C   UNL     1       0.677  10.701  19.520  0.00  0.00    +0.000 A 
BRANCH  24  26
ATOM     26  N   UNL     1       2.175   9.555  17.965  0.00  0.00    +0.000 N 
ATOM     27  O   UNL     1       2.295   8.482  17.363  0.00  0.00    +0.000 OA
ATOM     28  O   UNL     1       2.619  10.650  17.597  0.00  0.00    +0.000 OA
ENDBRANCH  24  26
ENDBRANCH  17  19
BRANCH   1  29
ATOM     29  O   UNL     1      -4.131  10.978  15.800  0.00  0.00    +0.000 OA
BRANCH  29  31
ATOM     30  C   UNL     1      -4.107  10.070  13.578  0.00  0.00    +0.000 C 
ATOM     31  C   UNL     1      -3.365  10.176  14.897  0.00  0.00    +0.000 C 
ENDBRANCH  29  31
ENDBRANCH   1  29
TORSDOF 4
ENDMDL
MODEL 2
REMARK VINA RESULT:      -7.6      1.073      1.215
REMARK  Name = 
REMARK  7 active torsions:
REMARK  status: ('A' for Active; 'I' for Inactive)
REMARK    1  A    between atoms: C_1  and  C_2
REMARK    2  A    between atoms: C_2  and  O_3
REMARK    3  A    between atoms: O_3  and  C_4
REMARK    4  A    between atoms: C_16  and  C_17
REMARK    5  A    between atoms: C_16  and  C_18
REMARK    6  A    between atoms: C_20  and  C_22
REMARK    7  A    between atoms: C_27  and  N_28
REMARK                            x       y       z     vdW  Elec       q    Type
REMARK                         _______ _______ _______ _____ _____    ______ ____
ROOT
ATOM      1  C   UNL     1      -3.023  10.704  16.979  0.00  0.00    +0.000 A 
ATOM      2  C   UNL     1      -1.660  10.501  17.125  0.00  0.00    +0.000 A 
ATOM      3  C   UNL     1      -1.001  11.002  18.246  0.00  0.00    +0.000 A 
ATOM      4  C   UNL     1      -1.696  11.642  19.284  0.00  0.00    +0.000 A 
ATOM      5  C   UNL     1      -3.072  11.906  19.124  0.00  0.00    +0.000 A 
ATOM      6  C   UNL     1      -3.707  11.437  17.955  0.00  0.00    +0.000 A 
ATOM      7  C   UNL     1      -3.780  12.695  20.163  0.00  0.00    +0.000 A 
ATOM      8  C   UNL     1      -3.030  13.478  20.974  0.00  0.00    +0.000 A 
ATOM      9  S   UNL     1      -3.871  14.489  22.133  0.00  0.00    +0.000 S 
ATOM     10  S   UNL     1      -5.706  14.176  21.353  0.00  0.00    +0.000 S 
ATOM     11  C   UNL     1      -5.266  12.761  20.400  0.00  0.00    +0.000 A 
ATOM     12  S   UNL     1      -6.475  11.700  19.928  0.00  0.00    +0.000 S 
ATOM     13  C   UNL     1      -1.479  13.487  20.935  0.00  0.00    +0.000 C 
ATOM     14  C   UNL     1      -0.888  13.902  22.312  0.00  0.00    +0.000 C 
ATOM     15  C   UNL     1      -0.997  14.552  19.916  0.00  0.00    +0.000 C 
ATOM     16  N   UNL     1      -1.017  12.103  20.470  0.00  0.00    +0.000 N 
ATOM     17  C   UNL     1       0.192  11.550  20.941  0.00  0.00    +0.000 C 
ATOM     18  O   UNL     1       0.996  12.158  21.650  0.00  0.00    +0.000 OA
ENDROOT
BRANCH  17  19
ATOM     19  C   UNL     1       0.612  10.141  20.646  0.00  0.00    +0.000 A 
ATOM     20  C   UNL     1       0.260   9.164  21.599  0.00  0.00    +0.000 A 
ATOM     21  C   UNL     1       0.691   7.841  21.471  0.00  0.00    +0.000 A 
ATOM     22  C   UNL     1       1.477   7.465  20.383  0.00  0.00    +0.000 A 
ATOM     23 CL   UNL     1       2.093   5.853  20.367  0.00  0.00    +0.000 Cl
ATOM     24  C   UNL     1       1.763   8.418  19.406  0.00  0.00    +0.000 A 
ATOM     25  C   UNL     1       1.323   9.753  19.508  0.00  0.00    +0.000 A 
BRANCH  24  26
ATOM     26  N   UNL     1       2.576   8.061  18.266  0.00  0.00    +0.000 N 
ATOM     27  O   UNL     1       3.380   7.133  18.412  0.00  0.00    +0.000 OA
ATOM     28  O   UNL     1       2.377   8.695  17.222  0.00  0.00    +0.000 OA
ENDBRANCH  24  26
ENDBRANCH  17  19
BRANCH   1  29
ATOM     29  O   UNL     1      -3.785  10.265  15.928  0.00  0.00    +0.000 OA
BRANCH  29  31
ATOM     30  C   UNL     1      -4.167   9.927  13.582  0.00  0.00    +0.000 C 
ATOM     31  C   UNL     1      -3.128  10.162  14.663  0.00  0.00    +0.000 C 
ENDBRANCH  29  31
ENDBRANCH   1  29
TORSDOF 4
ENDMDL
MODEL 3
REMARK VINA RESULT:      -7.6      2.827      3.505
REMARK  Name = 
REMARK  7 active torsions:
REMARK  status: ('A' for Active; 'I' for Inactive)
REMARK    1  A    between atoms: C_1  and  C_2
REMARK    2  A    between atoms: C_2  and  O_3
REMARK    3  A    between atoms: O_3  and  C_4
REMARK    4  A    between atoms: C_16  and  C_17
REMARK    5  A    between atoms: C_16  and  C_18
REMARK    6  A    between atoms: C_20  and  C_22
REMARK    7  A    between atoms: C_27  and  N_28
REMARK                            x       y       z     vdW  Elec       q    Type
REMARK                         _______ _______ _______ _____ _____    ______ ____
ROOT
ATOM      1  C   UNL     1      -5.215  11.545  19.185  0.00  0.00    +0.000 A 
ATOM      2  C   UNL     1      -3.878  11.768  18.898  0.00  0.00    +0.000 A 
ATOM      3  C   UNL     1      -3.148  12.676  19.662  0.00  0.00    +0.000 A 
ATOM      4  C   UNL     1      -3.707  13.318  20.778  0.00  0.00    +0.000 A 
ATOM      5  C   UNL     1      -5.080  13.145  21.049  0.00  0.00    +0.000 A 
ATOM      6  C   UNL     1      -5.813  12.263  20.227  0.00  0.00    +0.000 A 
ATOM      7  C   UNL     1      -5.702  13.922  22.150  0.00  0.00    +0.000 A 
ATOM      8  C   UNL     1      -5.067  15.047  22.558  0.00  0.00    +0.000 A 
ATOM      9  S   UNL     1      -5.850  16.021  23.785  0.00  0.00    +0.000 S 
ATOM     10  S   UNL     1      -7.613  15.040  23.704  0.00  0.00    +0.000 S 
ATOM     11  C   UNL     1      -6.999  13.624  22.854  0.00  0.00    +0.000 A 
ATOM     12  S   UNL     1      -7.862  12.190  22.951  0.00  0.00    +0.000 S 
ATOM     13  C   UNL     1      -3.682  15.478  22.008  0.00  0.00    +0.000 C 
ATOM     14  C   UNL     1      -2.915  16.345  23.045  0.00  0.00    +0.000 C 
ATOM     15  C   UNL     1      -3.882  16.371  20.756  0.00  0.00    +0.000 C 
ATOM     16  N   UNL     1      -2.927  14.209  21.602  0.00  0.00    +0.000 N 
ATOM     17  C   UNL     1      -1.524  14.136  21.715  0.00  0.00    +0.000 C 
ATOM     18  O   UNL     1      -0.809  15.090  22.032  0.00  0.00    +0.000 OA
ENDROOT
BRANCH  17  19
ATOM     19  C   UNL     1      -0.751  12.871  21.485  0.00  0.00    +0.000 A 
ATOM     20  C   UNL     1       0.012  12.803  20.302  0.00  0.00    +0.000 A 
ATOM     21  C   UNL     1       0.685  11.633  19.943  0.00  0.00    +0.000 A 
ATOM     22  C   UNL     1       0.617  10.508  20.763  0.00  0.00    +0.000 A 
ATOM     23 CL   UNL     1       1.350   9.057  20.185  0.00  0.00    +0.000 Cl
ATOM     24  C   UNL     1      -0.081  10.603  21.968  0.00  0.00    +0.000 A 
ATOM     25  C   UNL     1      -0.752  11.779  22.356  0.00  0.00    +0.000 A 
BRANCH  24  26
ATOM     26  N   UNL     1      -0.172   9.455  22.841  0.00  0.00    +0.000 N 
ATOM     27  O   UNL     1      -0.823   8.485  22.434  0.00  0.00    +0.000 OA
ATOM     28  O   UNL     1       0.439   9.524  23.914  0.00  0.00    +0.000 OA
ENDBRANCH  24  26
ENDBRANCH  17  19
BRANCH   1  29
ATOM     29  O   UNL     1      -6.041  10.683  18.512  0.00  0.00    +0.000 OA
BRANCH  29  31
ATOM     30  C   UNL     1      -6.979   8.783  19.640  0.00  0.00    +0.000 C 
ATOM     31  C   UNL     1      -7.196  10.224  19.219  0.00  0.00    +0.000 C 
ENDBRANCH  29  31
ENDBRANCH   1  29
TORSDOF 4
ENDMDL
MODEL 4
REMARK VINA RESULT:      -7.6      1.648      2.200
REMARK  Name = 
REMARK  7 active torsions:
REMARK  status: ('A' for Active; 'I' for Inactive)
REMARK    1  A    between atoms: C_1  and  C_2
REMARK    2  A    between atoms: C_2  and  O_3
REMARK    3  A    between atoms: O_3  and  C_4
REMARK    4  A    between atoms: C_16  and  C_17
REMARK    5  A    between atoms: C_16  and  C_18
REMARK    6  A    between atoms: C_20  and  C_22
REMARK    7  A    between atoms: C_27  and  N_28
REMARK                            x       y       z     vdW  Elec       q    Type
REMARK                         _______ _______ _______ _____ _____    ______ ____
ROOT
ATOM      1  C   UNL     1      -4.109  11.508  18.465  0.00  0.00    +0.000 A 
ATOM      2  C   UNL     1      -2.772  11.249  18.212  0.00  0.00    +0.000 A 
ATOM      3  C   UNL     1      -1.792  11.802  19.035  0.00  0.00    +0.000 A 
ATOM      4  C   UNL     1      -2.123  12.554  20.173  0.00  0.00    +0.000 A 
ATOM      5  C   UNL     1      -3.476  12.873  20.411  0.00  0.00    +0.000 A 
ATOM      6  C   UNL     1      -4.447  12.348  19.533  0.00  0.00    +0.000 A 
ATOM      7  C   UNL     1      -3.816  13.774  21.540  0.00  0.00    +0.000 A 
ATOM      8  C   UNL     1      -2.837  14.579  22.016  0.00  0.00    +0.000 A 
ATOM      9  S   UNL     1      -3.262  15.716  23.279  0.00  0.00    +0.000 S 
ATOM     10  S   UNL     1      -5.254  15.436  23.118  0.00  0.00    +0.000 S 
ATOM     11  C   UNL     1      -5.158  13.932  22.206  0.00  0.00    +0.000 A 
ATOM     12  S   UNL     1      -6.478  12.900  22.214  0.00  0.00    +0.000 S 
ATOM     13  C   UNL     1      -1.371  14.507  21.513  0.00  0.00    +0.000 C 
ATOM     14  C   UNL     1      -0.380  14.997  22.607  0.00  0.00    +0.000 C 
ATOM     15  C   UNL     1      -1.195  15.465  20.306  0.00  0.00    +0.000 C 
ATOM     16  N   UNL     1      -1.105  13.070  21.055  0.00  0.00    +0.000 N 
ATOM     17  C   UNL     1       0.175  12.495  21.188  0.00  0.00    +0.000 C 
ATOM     18  O   UNL     1       1.171  13.115  21.566  0.00  0.00    +0.000 OA
ENDROOT
BRANCH  17  19
ATOM     19  C   UNL     1       0.452  11.048  20.906  0.00  0.00    +0.000 A 
ATOM     20  C   UNL     1       0.109  10.131  21.920  0.00  0.00    +0.000 A 
ATOM     21  C   UNL     1       0.418   8.774  21.801  0.00  0.00    +0.000 A 
ATOM     22  C   UNL     1       1.070   8.303  20.662  0.00  0.00    +0.000 A 
ATOM     23 CL   UNL     1       1.550   6.646  20.648  0.00  0.00    +0.000 Cl
ATOM     24  C   UNL     1       1.343   9.203  19.631  0.00  0.00    +0.000 A 
ATOM     25  C   UNL     1       1.024  10.571  19.725  0.00  0.00    +0.000 A 
BRANCH  24  26
ATOM     26  N   UNL     1       2.019   8.748  18.438  0.00  0.00    +0.000 N 
ATOM     27  O   UNL     1       1.842   9.401  17.402  0.00  0.00    +0.000 OA
ATOM     28  O   UNL     1       2.751   7.757  18.557  0.00  0.00    +0.000 OA
ENDBRANCH  24  26
ENDBRANCH  17  19
BRANCH   1  29
ATOM     29  O   UNL     1      -5.165  11.029  17.734  0.00  0.00    +0.000 OA
BRANCH  29  31
ATOM     30  C   UNL     1      -6.954  10.086  19.027  0.00  0.00    +0.000 C 
ATOM     31  C   UNL     1      -6.471  11.296  18.250  0.00  0.00    +0.000 C 
ENDBRANCH  29  31
ENDBRANCH   1  29
TORSDOF 4
ENDMDL
MODEL 5
REMARK VINA RESULT:      -7.6      4.882      7.496
REMARK  Name = 
REMARK  7 active torsions:
REMARK  status: ('A' for Active; 'I' for Inactive)
REMARK    1  A    between atoms: C_1  and  C_2
REMARK    2  A    between atoms: C_2  and  O_3
REMARK    3  A    between atoms: O_3  and  C_4
REMARK    4  A    between atoms: C_16  and  C_17
REMARK    5  A    between atoms: C_16  and  C_18
REMARK    6  A    between atoms: C_20  and  C_22
REMARK    7  A    between atoms: C_27  and  N_28
REMARK                            x       y       z     vdW  Elec       q    Type
REMARK                         _______ _______ _______ _____ _____    ______ ____
ROOT
ATOM      1  C   UNL     1      -0.422  11.708  22.271  0.00  0.00    +0.000 A 
ATOM      2  C   UNL     1      -1.641  11.921  22.894  0.00  0.00    +0.000 A 
ATOM      3  C   UNL     1      -2.358  13.086  22.630  0.00  0.00    +0.000 A 
ATOM      4  C   UNL     1      -1.921  14.022  21.680  0.00  0.00    +0.000 A 
ATOM      5  C   UNL     1      -0.657  13.847  21.081  0.00  0.00    +0.000 A 
ATOM      6  C   UNL     1       0.078  12.687  21.405  0.00  0.00    +0.000 A 
ATOM      7  C   UNL     1      -0.136  14.901  20.174  0.00  0.00    +0.000 A 
ATOM      8  C   UNL     1      -0.666  16.141  20.287  0.00  0.00    +0.000 A 
ATOM      9  S   UNL     1       0.017  17.411  19.291  0.00  0.00    +0.000 S 
ATOM     10  S   UNL     1       1.608  16.329  18.679  0.00  0.00    +0.000 S 
ATOM     11  C   UNL     1       0.960  14.760  19.151  0.00  0.00    +0.000 A 
ATOM     12  S   UNL     1       1.579  13.382  18.425  0.00  0.00    +0.000 S 
ATOM     13  C   UNL     1      -1.856  16.465  21.229  0.00  0.00    +0.000 C 
ATOM     14  C   UNL     1      -2.664  17.687  20.707  0.00  0.00    +0.000 C 
ATOM     15  C   UNL     1      -1.312  16.867  22.624  0.00  0.00    +0.000 C 
ATOM     16  N   UNL     1      -2.700  15.194  21.367  0.00  0.00    +0.000 N 
ATOM     17  C   UNL     1      -4.097  15.271  21.540  0.00  0.00    +0.000 C 
ATOM     18  O   UNL     1      -4.713  16.326  21.700  0.00  0.00    +0.000 OA
ENDROOT
BRANCH  17  19
ATOM     19  C   UNL     1      -4.988  14.065  21.520  0.00  0.00    +0.000 A 
ATOM     20  C   UNL     1      -5.058  13.351  20.306  0.00  0.00    +0.000 A 
ATOM     21  C   UNL     1      -5.934  12.275  20.150  0.00  0.00    +0.000 A 
ATOM     22  C   UNL     1      -6.755  11.883  21.207  0.00  0.00    +0.000 A 
ATOM     23 CL   UNL     1      -7.914  10.643  20.897  0.00  0.00    +0.000 Cl
ATOM     24  C   UNL     1      -6.630  12.546  22.428  0.00  0.00    +0.000 A 
ATOM     25  C   UNL     1      -5.740  13.623  22.610  0.00  0.00    +0.000 A 
BRANCH  24  26
ATOM     26  N   UNL     1      -7.467  12.166  23.544  0.00  0.00    +0.000 N 
ATOM     27  O   UNL     1      -7.641  10.957  23.735  0.00  0.00    +0.000 OA
ATOM     28  O   UNL     1      -7.915  13.085  24.240  0.00  0.00    +0.000 OA
ENDBRANCH  24  26
ENDBRANCH  17  19
BRANCH   1  29
ATOM     29  O   UNL     1       0.380  10.609  22.445  0.00  0.00    +0.000 OA
BRANCH  29  31
ATOM     30  C   UNL     1      -0.358   8.455  21.685  0.00  0.00    +0.000 C 
ATOM     31  C   UNL     1      -0.269   9.406  22.864  0.00  0.00    +0.000 C 
ENDBRANCH  29  31
ENDBRANCH   1  29
TORSDOF 4
ENDMDL
MODEL 6
REMARK VINA RESULT:      -7.5      1.914      2.463
REMARK  Name = 
REMARK  7 active torsions:
REMARK  status: ('A' for Active; 'I' for Inactive)
REMARK    1  A    between atoms: C_1  and  C_2
REMARK    2  A    between atoms: C_2  and  O_3
REMARK    3  A    between atoms: O_3  and  C_4
REMARK    4  A    between atoms: C_16  and  C_17
REMARK    5  A    between atoms: C_16  and  C_18
REMARK    6  A    between atoms: C_20  and  C_22
REMARK    7  A    between atoms: C_27  and  N_28
REMARK                            x       y       z     vdW  Elec       q    Type
REMARK                         _______ _______ _______ _____ _____    ______ ____
ROOT
ATOM      1  C   UNL     1      -4.727  11.936  18.965  0.00  0.00    +0.000 A 
ATOM      2  C   UNL     1      -3.371  11.748  18.750  0.00  0.00    +0.000 A 
ATOM      3  C   UNL     1      -2.448  12.281  19.648  0.00  0.00    +0.000 A 
ATOM      4  C   UNL     1      -2.853  12.938  20.820  0.00  0.00    +0.000 A 
ATOM      5  C   UNL     1      -4.226  13.186  21.023  0.00  0.00    +0.000 A 
ATOM      6  C   UNL     1      -5.141  12.685  20.072  0.00  0.00    +0.000 A 
ATOM      7  C   UNL     1      -4.647  13.993  22.196  0.00  0.00    +0.000 A 
ATOM      8  C   UNL     1      -3.722  14.800  22.765  0.00  0.00    +0.000 A 
ATOM      9  S   UNL     1      -4.242  15.830  24.084  0.00  0.00    +0.000 S 
ATOM     10  S   UNL     1      -6.213  15.483  23.823  0.00  0.00    +0.000 S 
ATOM     11  C   UNL     1      -6.019  14.051  22.816  0.00  0.00    +0.000 A 
ATOM     12  S   UNL     1      -7.294  12.969  22.699  0.00  0.00    +0.000 S 
ATOM     13  C   UNL     1      -2.236  14.823  22.318  0.00  0.00    +0.000 C 
ATOM     14  C   UNL     1      -1.310  15.274  23.483  0.00  0.00    +0.000 C 
ATOM     15  C   UNL     1      -2.055  15.868  21.188  0.00  0.00    +0.000 C 
ATOM     16  N   UNL     1      -1.893  13.432  21.775  0.00  0.00    +0.000 N 
ATOM     17  C   UNL     1      -0.595  12.900  21.921  0.00  0.00    +0.000 C 
ATOM     18  O   UNL     1       0.359  13.531  22.381  0.00  0.00    +0.000 OA
ENDROOT
BRANCH  17  19
ATOM     19  C   UNL     1      -0.247  11.489  21.553  0.00  0.00    +0.000 A 
ATOM     20  C   UNL     1      -0.397  10.517  22.564  0.00  0.00    +0.000 A 
ATOM     21  C   UNL     1      -0.004   9.193  22.357  0.00  0.00    +0.000 A 
ATOM     22  C   UNL     1       0.540   8.809  21.133  0.00  0.00    +0.000 A 
ATOM     23 CL   UNL     1       1.138   7.196  20.999  0.00  0.00    +0.000 Cl
ATOM     24  C   UNL     1       0.621   9.757  20.112  0.00  0.00    +0.000 A 
ATOM     25  C   UNL     1       0.214  11.093  20.296  0.00  0.00    +0.000 A 
BRANCH  24  26
ATOM     26  N   UNL     1       1.182   9.392  18.832  0.00  0.00    +0.000 N 
ATOM     27  O   UNL     1       2.302   8.868  18.832  0.00  0.00    +0.000 OA
ATOM     28  O   UNL     1       0.477   9.605  17.837  0.00  0.00    +0.000 OA
ENDBRANCH  24  26
ENDBRANCH  17  19
BRANCH   1  29
ATOM     29  O   UNL     1      -5.733  11.467  18.161  0.00  0.00    +0.000 OA
BRANCH  29  31
ATOM     30  C   UNL     1      -6.888   9.661  19.240  0.00  0.00    +0.000 C 
ATOM     31  C   UNL     1      -6.957  11.114  18.811  0.00  0.00    +0.000 C 
ENDBRANCH  29  31
ENDBRANCH   1  29
TORSDOF 4
ENDMDL
MODEL 7
REMARK VINA RESULT:      -7.5      4.529      7.003
REMARK  Name = 
REMARK  7 active torsions:
REMARK  status: ('A' for Active; 'I' for Inactive)
REMARK    1  A    between atoms: C_1  and  C_2
REMARK    2  A    between atoms: C_2  and  O_3
REMARK    3  A    between atoms: O_3  and  C_4
REMARK    4  A    between atoms: C_16  and  C_17
REMARK    5  A    between atoms: C_16  and  C_18
REMARK    6  A    between atoms: C_20  and  C_22
REMARK    7  A    between atoms: C_27  and  N_28
REMARK                            x       y       z     vdW  Elec       q    Type
REMARK                         _______ _______ _______ _____ _____    ______ ____
ROOT
ATOM      1  C   UNL     1      -1.335  12.231  23.004  0.00  0.00    +0.000 A 
ATOM      2  C   UNL     1      -2.673  11.876  23.054  0.00  0.00    +0.000 A 
ATOM      3  C   UNL     1      -3.655  12.861  22.961  0.00  0.00    +0.000 A 
ATOM      4  C   UNL     1      -3.329  14.207  22.732  0.00  0.00    +0.000 A 
ATOM      5  C   UNL     1      -1.972  14.591  22.735  0.00  0.00    +0.000 A 
ATOM      6  C   UNL     1      -0.996  13.583  22.887  0.00  0.00    +0.000 A 
ATOM      7  C   UNL     1      -1.630  16.031  22.623  0.00  0.00    +0.000 A 
ATOM      8  C   UNL     1      -2.588  16.930  22.948  0.00  0.00    +0.000 A 
ATOM      9  S   UNL     1      -2.156  18.627  22.915  0.00  0.00    +0.000 S 
ATOM     10  S   UNL     1      -0.173  18.309  22.711  0.00  0.00    +0.000 S 
ATOM     11  C   UNL     1      -0.304  16.622  22.219  0.00  0.00    +0.000 A 
ATOM     12  S   UNL     1       0.970  15.926  21.382  0.00  0.00    +0.000 S 
ATOM     13  C   UNL     1      -4.039  16.517  23.313  0.00  0.00    +0.000 C 
ATOM     14  C   UNL     1      -5.042  17.660  22.991  0.00  0.00    +0.000 C 
ATOM     15  C   UNL     1      -4.134  16.271  24.840  0.00  0.00    +0.000 C 
ATOM     16  N   UNL     1      -4.351  15.212  22.574  0.00  0.00    +0.000 N 
ATOM     17  C   UNL     1      -5.659  14.929  22.129  0.00  0.00    +0.000 C 
ATOM     18  O   UNL     1      -6.639  15.631  22.385  0.00  0.00    +0.000 OA
ENDROOT
BRANCH  17  19
ATOM     19  C   UNL     1      -5.988  13.748  21.265  0.00  0.00    +0.000 A 
ATOM     20  C   UNL     1      -6.939  12.840  21.773  0.00  0.00    +0.000 A 
ATOM     21  C   UNL     1      -7.241  11.656  21.097  0.00  0.00    +0.000 A 
ATOM     22  C   UNL     1      -6.605  11.358  19.893  0.00  0.00    +0.000 A 
ATOM     23 CL   UNL     1      -6.918   9.813  19.189  0.00  0.00    +0.000 Cl
ATOM     24  C   UNL     1      -5.718  12.293  19.358  0.00  0.00    +0.000 A 
ATOM     25  C   UNL     1      -5.413  13.500  20.017  0.00  0.00    +0.000 A 
BRANCH  24  26
ATOM     26  N   UNL     1      -5.040  12.014  18.113  0.00  0.00    +0.000 N 
ATOM     27  O   UNL     1      -5.639  12.290  17.068  0.00  0.00    +0.000 OA
ATOM     28  O   UNL     1      -3.896  11.550  18.196  0.00  0.00    +0.000 OA
ENDBRANCH  24  26
ENDBRANCH  17  19
BRANCH   1  29
ATOM     29  O   UNL     1      -0.278  11.362  23.085  0.00  0.00    +0.000 OA
BRANCH  29  31
ATOM     30  C   UNL     1       0.450   9.200  22.336  0.00  0.00    +0.000 C 
ATOM     31  C   UNL     1      -0.598   9.969  23.119  0.00  0.00    +0.000 C 
ENDBRANCH  29  31
ENDBRANCH   1  29
TORSDOF 4
ENDMDL
MODEL 8
REMARK VINA RESULT:      -7.4      4.814      7.449
REMARK  Name = 
REMARK  7 active torsions:
REMARK  status: ('A' for Active; 'I' for Inactive)
REMARK    1  A    between atoms: C_1  and  C_2
REMARK    2  A    between atoms: C_2  and  O_3
REMARK    3  A    between atoms: O_3  and  C_4
REMARK    4  A    between atoms: C_16  and  C_17
REMARK    5  A    between atoms: C_16  and  C_18
REMARK    6  A    between atoms: C_20  and  C_22
REMARK    7  A    between atoms: C_27  and  N_28
REMARK                            x       y       z     vdW  Elec       q    Type
REMARK                         _______ _______ _______ _____ _____    ______ ____
ROOT
ATOM      1  C   UNL     1      -0.342  10.496  22.399  0.00  0.00    +0.000 A 
ATOM      2  C   UNL     1      -1.489  10.972  23.016  0.00  0.00    +0.000 A 
ATOM      3  C   UNL     1      -1.940  12.261  22.737  0.00  0.00    +0.000 A 
ATOM      4  C   UNL     1      -1.311  13.071  21.779  0.00  0.00    +0.000 A 
ATOM      5  C   UNL     1      -0.113  12.623  21.187  0.00  0.00    +0.000 A 
ATOM      6  C   UNL     1       0.356  11.336  21.525  0.00  0.00    +0.000 A 
ATOM      7  C   UNL     1       0.622  13.532  20.271  0.00  0.00    +0.000 A 
ATOM      8  C   UNL     1       0.370  14.858  20.369  0.00  0.00    +0.000 A 
ATOM      9  S   UNL     1       1.310  15.941  19.363  0.00  0.00    +0.000 S 
ATOM     10  S   UNL     1       2.634  14.538  18.768  0.00  0.00    +0.000 S 
ATOM     11  C   UNL     1       1.665  13.149  19.253  0.00  0.00    +0.000 A 
ATOM     12  S   UNL     1       1.976  11.663  18.544  0.00  0.00    +0.000 S 
ATOM     13  C   UNL     1      -0.725  15.439  21.303  0.00  0.00    +0.000 C 
ATOM     14  C   UNL     1      -1.252  16.799  20.766  0.00  0.00    +0.000 C 
ATOM     15  C   UNL     1      -0.110  15.730  22.696  0.00  0.00    +0.000 C 
ATOM     16  N   UNL     1      -1.821  14.379  21.451  0.00  0.00    +0.000 N 
ATOM     17  C   UNL     1      -3.170  14.755  21.618  0.00  0.00    +0.000 C 
ATOM     18  O   UNL     1      -3.546  15.919  21.765  0.00  0.00    +0.000 OA
ENDROOT
BRANCH  17  19
ATOM     19  C   UNL     1      -4.298  13.767  21.607  0.00  0.00    +0.000 A 
ATOM     20  C   UNL     1      -4.501  13.054  20.408  0.00  0.00    +0.000 A 
ATOM     21  C   UNL     1      -5.585  12.186  20.258  0.00  0.00    +0.000 A 
ATOM     22  C   UNL     1      -6.486  12.006  21.307  0.00  0.00    +0.000 A 
ATOM     23 CL   UNL     1      -7.880  11.036  21.001  0.00  0.00    +0.000 Cl
ATOM     24  C   UNL     1      -6.241  12.659  22.516  0.00  0.00    +0.000 A 
ATOM     25  C   UNL     1      -5.143  13.525  22.692  0.00  0.00    +0.000 A 
BRANCH  24  26
ATOM     26  N   UNL     1      -7.155  12.495  23.622  0.00  0.00    +0.000 N 
ATOM     27  O   UNL     1      -7.915  13.438  23.874  0.00  0.00    +0.000 OA
ATOM     28  O   UNL     1      -7.127  11.407  24.209  0.00  0.00    +0.000 OA
ENDBRANCH  24  26
ENDBRANCH  17  19
BRANCH   1  29
ATOM     29  O   UNL     1       0.205   9.253  22.587  0.00  0.00    +0.000 OA
BRANCH  29  31
ATOM     30  C   UNL     1       1.237   7.771  21.007  0.00  0.00    +0.000 C 
ATOM     31  C   UNL     1       1.428   8.984  21.897  0.00  0.00    +0.000 C 
ENDBRANCH  29  31
ENDBRANCH   1  29
TORSDOF 4
ENDMDL
MODEL 9
REMARK VINA RESULT:      -7.4      1.809      2.223
REMARK  Name = 
REMARK  7 active torsions:
REMARK  status: ('A' for Active; 'I' for Inactive)
REMARK    1  A    between atoms: C_1  and  C_2
REMARK    2  A    between atoms: C_2  and  O_3
REMARK    3  A    between atoms: O_3  and  C_4
REMARK    4  A    between atoms: C_16  and  C_17
REMARK    5  A    between atoms: C_16  and  C_18
REMARK    6  A    between atoms: C_20  and  C_22
REMARK    7  A    between atoms: C_27  and  N_28
REMARK                            x       y       z     vdW  Elec       q    Type
REMARK                         _______ _______ _______ _____ _____    ______ ____
ROOT
ATOM      1  C   UNL     1      -4.890  11.735  18.867  0.00  0.00    +0.000 A 
ATOM      2  C   UNL     1      -3.539  11.725  18.561  0.00  0.00    +0.000 A 
ATOM      3  C   UNL     1      -2.634  12.372  19.402  0.00  0.00    +0.000 A 
ATOM      4  C   UNL     1      -3.043  12.969  20.604  0.00  0.00    +0.000 A 
ATOM      5  C   UNL     1      -4.420  13.037  20.900  0.00  0.00    +0.000 A 
ATOM      6  C   UNL     1      -5.323  12.423  20.006  0.00  0.00    +0.000 A 
ATOM      7  C   UNL     1      -4.863  13.781  22.105  0.00  0.00    +0.000 A 
ATOM      8  C   UNL     1      -4.013  14.701  22.621  0.00  0.00    +0.000 A 
ATOM      9  S   UNL     1      -4.574  15.653  23.981  0.00  0.00    +0.000 S 
ATOM     10  S   UNL     1      -6.497  15.054  23.846  0.00  0.00    +0.000 S 
ATOM     11  C   UNL     1      -6.186  13.660  22.814  0.00  0.00    +0.000 A 
ATOM     12  S   UNL     1      -7.316  12.422  22.771  0.00  0.00    +0.000 S 
ATOM     13  C   UNL     1      -2.576  14.915  22.078  0.00  0.00    +0.000 C 
ATOM     14  C   UNL     1      -1.640  15.482  23.183  0.00  0.00    +0.000 C 
ATOM     15  C   UNL     1      -2.607  15.977  20.948  0.00  0.00    +0.000 C 
ATOM     16  N   UNL     1      -2.093  13.582  21.499  0.00  0.00    +0.000 N 
ATOM     17  C   UNL     1      -0.730  13.223  21.555  0.00  0.00    +0.000 C 
ATOM     18  O   UNL     1       0.162  13.971  21.957  0.00  0.00    +0.000 OA
ENDROOT
BRANCH  17  19
ATOM     19  C   UNL     1      -0.228  11.868  21.151  0.00  0.00    +0.000 A 
ATOM     20  C   UNL     1      -0.320  10.846  22.118  0.00  0.00    +0.000 A 
ATOM     21  C   UNL     1       0.211   9.577  21.880  0.00  0.00    +0.000 A 
ATOM     22  C   UNL     1       0.840   9.299  20.668  0.00  0.00    +0.000 A 
ATOM     23 CL   UNL     1       1.601   7.759  20.501  0.00  0.00    +0.000 Cl
ATOM     24  C   UNL     1       0.866  10.291  19.687  0.00  0.00    +0.000 A 
ATOM     25  C   UNL     1       0.320  11.572  19.902  0.00  0.00    +0.000 A 
BRANCH  24  26
ATOM     26  N   UNL     1       1.511  10.036  18.420  0.00  0.00    +0.000 N 
ATOM     27  O   UNL     1       1.092   9.082  17.753  0.00  0.00    +0.000 OA
ATOM     28  O   UNL     1       2.411  10.817  18.088  0.00  0.00    +0.000 OA
ENDBRANCH  24  26
ENDBRANCH  17  19
BRANCH   1  29
ATOM     29  O   UNL     1      -5.878  11.141  18.126  0.00  0.00    +0.000 OA
BRANCH  29  31
ATOM     30  C   UNL     1      -6.710  13.063  16.952  0.00  0.00    +0.000 C 
ATOM     31  C   UNL     1      -7.054  11.920  17.889  0.00  0.00    +0.000 C 
ENDBRANCH  29  31
ENDBRANCH   1  29
TORSDOF 4
ENDMDL
