MODEL 1
REMARK VINA RESULT:      -7.3      0.000      0.000
REMARK  Name = 
REMARK  1 active torsions:
REMARK  status: ('A' for Active; 'I' for Inactive)
REMARK    1  A    between atoms: C_10  and  S_11
REMARK                            x       y       z     vdW  Elec       q    Type
REMARK                         _______ _______ _______ _____ _____    ______ ____
ROOT
ATOM      1  O   UNL     1       2.461   2.917  16.635  0.00  0.00    +0.000 OA
ATOM      2  C   UNL     1       2.976   3.587  17.533  0.00  0.00    +0.000 A 
ATOM      3  C   UNL     1       4.375   4.121  17.300  0.00  0.00    +0.000 A 
ATOM      4  C   UNL     1       4.973   3.860  16.053  0.00  0.00    +0.000 A 
ATOM      5  C   UNL     1       6.310   4.198  15.809  0.00  0.00    +0.000 A 
ATOM      6  C   UNL     1       7.087   4.755  16.820  0.00  0.00    +0.000 A 
ATOM      7  C   UNL     1       6.499   5.079  18.036  0.00  0.00    +0.000 A 
ATOM      8  C   UNL     1       5.138   4.843  18.253  0.00  0.00    +0.000 A 
ATOM      9  N   UNL     1       4.616   5.397  19.432  0.00  0.00    +0.000 NA
ATOM     10  C   UNL     1       3.419   5.879  19.321  0.00  0.00    +0.000 A 
ATOM     11  N   UNL     1       2.434   4.943  19.589  0.00  0.00    +0.000 N 
ATOM     12  C   UNL     1       1.769   4.774  20.778  0.00  0.00    +0.000 A 
ATOM     13  C   UNL     1       1.022   3.623  20.685  0.00  0.00    +0.000 A 
ATOM     14  C   UNL     1       1.285   3.053  19.411  0.00  0.00    +0.000 A 
ATOM     15  C   UNL     1       2.253   3.828  18.789  0.00  0.00    +0.000 A 
ENDROOT
BRANCH  10  16
ATOM     16  S   UNL     1       2.997   7.214  18.250  0.00  0.00    +0.000 S 
ATOM     17  H   UNL     1       1.941   7.659  18.952  0.00  0.00    +0.000 HD
ENDBRANCH  10  16
TORSDOF 1
ENDMDL
MODEL 2
REMARK VINA RESULT:      -6.5      2.255      2.913
REMARK  Name = 
REMARK  1 active torsions:
REMARK  status: ('A' for Active; 'I' for Inactive)
REMARK    1  A    between atoms: C_10  and  S_11
REMARK                            x       y       z     vdW  Elec       q    Type
REMARK                         _______ _______ _______ _____ _____    ______ ____
ROOT
ATOM      1  O   UNL     1       5.706   5.363  19.892  0.00  0.00    +0.000 OA
ATOM      2  C   UNL     1       4.875   4.891  19.113  0.00  0.00    +0.000 A 
ATOM      3  C   UNL     1       5.339   4.537  17.714  0.00  0.00    +0.000 A 
ATOM      4  C   UNL     1       6.701   4.723  17.414  0.00  0.00    +0.000 A 
ATOM      5  C   UNL     1       7.182   4.551  16.109  0.00  0.00    +0.000 A 
ATOM      6  C   UNL     1       6.305   4.242  15.075  0.00  0.00    +0.000 A 
ATOM      7  C   UNL     1       4.969   3.993  15.362  0.00  0.00    +0.000 A 
ATOM      8  C   UNL     1       4.499   4.056  16.677  0.00  0.00    +0.000 A 
ATOM      9  N   UNL     1       3.191   3.585  16.869  0.00  0.00    +0.000 NA
ATOM     10  C   UNL     1       3.009   2.927  17.969  0.00  0.00    +0.000 A 
ATOM     11  N   UNL     1       2.633   3.739  19.027  0.00  0.00    +0.000 N 
ATOM     12  C   UNL     1       1.354   3.959  19.474  0.00  0.00    +0.000 A 
ATOM     13  C   UNL     1       1.400   4.971  20.405  0.00  0.00    +0.000 A 
ATOM     14  C   UNL     1       2.748   5.409  20.484  0.00  0.00    +0.000 A 
ATOM     15  C   UNL     1       3.480   4.708  19.537  0.00  0.00    +0.000 A 
ENDROOT
BRANCH  10  16
ATOM     16  S   UNL     1       3.840   1.422  18.360  0.00  0.00    +0.000 S 
ATOM     17  H   UNL     1       4.496   1.290  17.193  0.00  0.00    +0.000 HD
ENDBRANCH  10  16
TORSDOF 1
ENDMDL
MODEL 3
REMARK VINA RESULT:      -6.3      2.395      4.211
REMARK  Name = 
REMARK  1 active torsions:
REMARK  status: ('A' for Active; 'I' for Inactive)
REMARK    1  A    between atoms: C_10  and  S_11
REMARK                            x       y       z     vdW  Elec       q    Type
REMARK                         _______ _______ _______ _____ _____    ______ ____
ROOT
ATOM      1  O   UNL     1       1.811   4.430  21.325  0.00  0.00    +0.000 OA
ATOM      2  C   UNL     1       2.293   4.636  20.209  0.00  0.00    +0.000 A 
ATOM      3  C   UNL     1       2.295   6.061  19.692  0.00  0.00    +0.000 A 
ATOM      4  C   UNL     1       1.792   7.062  20.543  0.00  0.00    +0.000 A 
ATOM      5  C   UNL     1       1.631   8.379  20.093  0.00  0.00    +0.000 A 
ATOM      6  C   UNL     1       1.921   8.706  18.772  0.00  0.00    +0.000 A 
ATOM      7  C   UNL     1       2.477   7.748  17.934  0.00  0.00    +0.000 A 
ATOM      8  C   UNL     1       2.742   6.458  18.406  0.00  0.00    +0.000 A 
ATOM      9  N   UNL     1       3.490   5.646  17.540  0.00  0.00    +0.000 NA
ATOM     10  C   UNL     1       4.354   4.881  18.126  0.00  0.00    +0.000 A 
ATOM     11  N   UNL     1       3.833   3.645  18.475  0.00  0.00    +0.000 N 
ATOM     12  C   UNL     1       3.955   2.478  17.763  0.00  0.00    +0.000 A 
ATOM     13  C   UNL     1       3.134   1.540  18.348  0.00  0.00    +0.000 A 
ATOM     14  C   UNL     1       2.459   2.182  19.419  0.00  0.00    +0.000 A 
ATOM     15  C   UNL     1       2.821   3.521  19.410  0.00  0.00    +0.000 A 
ENDROOT
BRANCH  10  16
ATOM     16  S   UNL     1       5.709   5.486  19.078  0.00  0.00    +0.000 S 
ATOM     17  H   UNL     1       6.015   4.324  19.683  0.00  0.00    +0.000 HD
ENDBRANCH  10  16
TORSDOF 1
ENDMDL
MODEL 4
REMARK VINA RESULT:      -6.2      1.702      4.565
REMARK  Name = 
REMARK  1 active torsions:
REMARK  status: ('A' for Active; 'I' for Inactive)
REMARK    1  A    between atoms: C_10  and  S_11
REMARK                            x       y       z     vdW  Elec       q    Type
REMARK                         _______ _______ _______ _____ _____    ______ ____
ROOT
ATOM      1  O   UNL     1       3.831   2.179  17.605  0.00  0.00    +0.000 OA
ATOM      2  C   UNL     1       4.055   3.392  17.593  0.00  0.00    +0.000 A 
ATOM      3  C   UNL     1       3.375   4.246  18.645  0.00  0.00    +0.000 A 
ATOM      4  C   UNL     1       2.574   3.590  19.597  0.00  0.00    +0.000 A 
ATOM      5  C   UNL     1       1.804   4.315  20.515  0.00  0.00    +0.000 A 
ATOM      6  C   UNL     1       1.780   5.705  20.464  0.00  0.00    +0.000 A 
ATOM      7  C   UNL     1       2.612   6.372  19.574  0.00  0.00    +0.000 A 
ATOM      8  C   UNL     1       3.465   5.659  18.726  0.00  0.00    +0.000 A 
ATOM      9  N   UNL     1       4.400   6.436  18.025  0.00  0.00    +0.000 NA
ATOM     10  C   UNL     1       5.569   5.894  17.899  0.00  0.00    +0.000 A 
ATOM     11  N   UNL     1       5.685   5.124  16.753  0.00  0.00    +0.000 N 
ATOM     12  C   UNL     1       6.234   5.516  15.557  0.00  0.00    +0.000 A 
ATOM     13  C   UNL     1       5.976   4.531  14.632  0.00  0.00    +0.000 A 
ATOM     14  C   UNL     1       5.202   3.534  15.283  0.00  0.00    +0.000 A 
ATOM     15  C   UNL     1       4.934   3.975  16.570  0.00  0.00    +0.000 A 
ENDROOT
BRANCH  10  16
ATOM     16  S   UNL     1       6.609   5.481  19.261  0.00  0.00    +0.000 S 
ATOM     17  H   UNL     1       7.680   6.195  18.870  0.00  0.00    +0.000 HD
ENDBRANCH  10  16
TORSDOF 1
ENDMDL
MODEL 5
REMARK VINA RESULT:      -6.2      1.350      1.965
REMARK  Name = 
REMARK  1 active torsions:
REMARK  status: ('A' for Active; 'I' for Inactive)
REMARK    1  A    between atoms: C_10  and  S_11
REMARK                            x       y       z     vdW  Elec       q    Type
REMARK                         _______ _______ _______ _____ _____    ______ ____
ROOT
ATOM      1  O   UNL     1       4.415   4.011  15.716  0.00  0.00    +0.000 OA
ATOM      2  C   UNL     1       4.436   4.119  16.945  0.00  0.00    +0.000 A 
ATOM      3  C   UNL     1       5.514   4.989  17.559  0.00  0.00    +0.000 A 
ATOM      4  C   UNL     1       6.389   5.657  16.683  0.00  0.00    +0.000 A 
ATOM      5  C   UNL     1       7.494   6.367  17.169  0.00  0.00    +0.000 A 
ATOM      6  C   UNL     1       7.773   6.380  18.532  0.00  0.00    +0.000 A 
ATOM      7  C   UNL     1       6.887   5.781  19.418  0.00  0.00    +0.000 A 
ATOM      8  C   UNL     1       5.724   5.161  18.951  0.00  0.00    +0.000 A 
ATOM      9  N   UNL     1       4.810   4.777  19.945  0.00  0.00    +0.000 NA
ATOM     10  C   UNL     1       3.566   4.944  19.630  0.00  0.00    +0.000 A 
ATOM     11  N   UNL     1       3.013   3.836  19.008  0.00  0.00    +0.000 N 
ATOM     12  C   UNL     1       2.263   2.854  19.605  0.00  0.00    +0.000 A 
ATOM     13  C   UNL     1       2.079   1.846  18.687  0.00  0.00    +0.000 A 
ATOM     14  C   UNL     1       2.786   2.214  17.511  0.00  0.00    +0.000 A 
ATOM     15  C   UNL     1       3.454   3.401  17.770  0.00  0.00    +0.000 A 
ENDROOT
BRANCH  10  16
ATOM     16  S   UNL     1       2.848   6.514  19.272  0.00  0.00    +0.000 S 
ATOM     17  H   UNL     1       1.809   6.059  18.551  0.00  0.00    +0.000 HD
ENDBRANCH  10  16
TORSDOF 1
ENDMDL
MODEL 6
REMARK VINA RESULT:      -6.2      2.292      4.828
REMARK  Name = 
REMARK  1 active torsions:
REMARK  status: ('A' for Active; 'I' for Inactive)
REMARK    1  A    between atoms: C_10  and  S_11
REMARK                            x       y       z     vdW  Elec       q    Type
REMARK                         _______ _______ _______ _____ _____    ______ ____
ROOT
ATOM      1  O   UNL     1       4.119   2.823  17.543  0.00  0.00    +0.000 OA
ATOM      2  C   UNL     1       4.445   3.951  17.167  0.00  0.00    +0.000 A 
ATOM      3  C   UNL     1       3.846   5.139  17.893  0.00  0.00    +0.000 A 
ATOM      4  C   UNL     1       2.996   4.874  18.982  0.00  0.00    +0.000 A 
ATOM      5  C   UNL     1       2.295   5.907  19.618  0.00  0.00    +0.000 A 
ATOM      6  C   UNL     1       2.390   7.211  19.145  0.00  0.00    +0.000 A 
ATOM      7  C   UNL     1       3.272   7.503  18.112  0.00  0.00    +0.000 A 
ATOM      8  C   UNL     1       4.057   6.496  17.541  0.00  0.00    +0.000 A 
ATOM      9  N   UNL     1       5.051   6.942  16.657  0.00  0.00    +0.000 NA
ATOM     10  C   UNL     1       6.169   6.293  16.728  0.00  0.00    +0.000 A 
ATOM     11  N   UNL     1       6.214   5.202  15.875  0.00  0.00    +0.000 N 
ATOM     12  C   UNL     1       6.789   5.162  14.629  0.00  0.00    +0.000 A 
ATOM     13  C   UNL     1       6.444   3.966  14.043  0.00  0.00    +0.000 A 
ATOM     14  C   UNL     1       5.590   3.284  14.950  0.00  0.00    +0.000 A 
ATOM     15  C   UNL     1       5.367   4.118  16.034  0.00  0.00    +0.000 A 
ENDROOT
BRANCH  10  16
ATOM     16  S   UNL     1       7.177   6.231  18.173  0.00  0.00    +0.000 S 
ATOM     17  H   UNL     1       7.943   7.298  17.884  0.00  0.00    +0.000 HD
ENDBRANCH  10  16
TORSDOF 1
ENDMDL
MODEL 7
REMARK VINA RESULT:      -6.1      1.793      4.713
REMARK  Name = 
REMARK  1 active torsions:
REMARK  status: ('A' for Active; 'I' for Inactive)
REMARK    1  A    between atoms: C_10  and  S_11
REMARK                            x       y       z     vdW  Elec       q    Type
REMARK                         _______ _______ _______ _____ _____    ______ ____
ROOT
ATOM      1  O   UNL     1       5.567   3.508  19.942  0.00  0.00    +0.000 OA
ATOM      2  C   UNL     1       4.729   3.949  19.153  0.00  0.00    +0.000 A 
ATOM      3  C   UNL     1       3.271   3.632  19.421  0.00  0.00    +0.000 A 
ATOM      4  C   UNL     1       2.968   2.897  20.582  0.00  0.00    +0.000 A 
ATOM      5  C   UNL     1       1.666   2.444  20.831  0.00  0.00    +0.000 A 
ATOM      6  C   UNL     1       0.657   2.673  19.901  0.00  0.00    +0.000 A 
ATOM      7  C   UNL     1       0.921   3.451  18.780  0.00  0.00    +0.000 A 
ATOM      8  C   UNL     1       2.192   3.997  18.577  0.00  0.00    +0.000 A 
ATOM      9  N   UNL     1       2.283   4.927  17.530  0.00  0.00    +0.000 NA
ATOM     10  C   UNL     1       3.060   5.935  17.767  0.00  0.00    +0.000 A 
ATOM     11  N   UNL     1       4.371   5.707  17.380  0.00  0.00    +0.000 N 
ATOM     12  C   UNL     1       4.958   6.107  16.205  0.00  0.00    +0.000 A 
ATOM     13  C   UNL     1       6.197   5.515  16.129  0.00  0.00    +0.000 A 
ATOM     14  C   UNL     1       6.341   4.691  17.277  0.00  0.00    +0.000 A 
ATOM     15  C   UNL     1       5.150   4.735  17.984  0.00  0.00    +0.000 A 
ENDROOT
BRANCH  10  16
ATOM     16  S   UNL     1       2.790   7.097  19.065  0.00  0.00    +0.000 S 
ATOM     17  H   UNL     1       1.576   6.651  19.433  0.00  0.00    +0.000 HD
ENDBRANCH  10  16
TORSDOF 1
ENDMDL
MODEL 8
REMARK VINA RESULT:      -6.1      2.067      2.456
REMARK  Name = 
REMARK  1 active torsions:
REMARK  status: ('A' for Active; 'I' for Inactive)
REMARK    1  A    between atoms: C_10  and  S_11
REMARK                            x       y       z     vdW  Elec       q    Type
REMARK                         _______ _______ _______ _____ _____    ______ ____
ROOT
ATOM      1  O   UNL     1       5.342   2.620  20.029  0.00  0.00    +0.000 OA
ATOM      2  C   UNL     1       4.467   3.418  19.685  0.00  0.00    +0.000 A 
ATOM      3  C   UNL     1       4.862   4.539  18.746  0.00  0.00    +0.000 A 
ATOM      4  C   UNL     1       6.192   4.565  18.287  0.00  0.00    +0.000 A 
ATOM      5  C   UNL     1       6.674   5.640  17.530  0.00  0.00    +0.000 A 
ATOM      6  C   UNL     1       5.852   6.730  17.261  0.00  0.00    +0.000 A 
ATOM      7  C   UNL     1       4.519   6.695  17.650  0.00  0.00    +0.000 A 
ATOM      8  C   UNL     1       4.000   5.579  18.313  0.00  0.00    +0.000 A 
ATOM      9  N   UNL     1       2.606   5.570  18.469  0.00  0.00    +0.000 NA
ATOM     10  C   UNL     1       2.053   4.408  18.329  0.00  0.00    +0.000 A 
ATOM     11  N   UNL     1       1.966   3.705  19.519  0.00  0.00    +0.000 N 
ATOM     12  C   UNL     1       0.872   3.627  20.344  0.00  0.00    +0.000 A 
ATOM     13  C   UNL     1       1.262   3.000  21.505  0.00  0.00    +0.000 A 
ATOM     14  C   UNL     1       2.653   2.736  21.393  0.00  0.00    +0.000 A 
ATOM     15  C   UNL     1       3.096   3.284  20.199  0.00  0.00    +0.000 A 
ENDROOT
BRANCH  10  16
ATOM     16  S   UNL     1       2.109   3.470  16.837  0.00  0.00    +0.000 S 
ATOM     17  H   UNL     1       1.038   4.033  16.250  0.00  0.00    +0.000 HD
ENDBRANCH  10  16
TORSDOF 1
ENDMDL
MODEL 9
REMARK VINA RESULT:      -6.1      2.528      3.404
REMARK  Name = 
REMARK  1 active torsions:
REMARK  status: ('A' for Active; 'I' for Inactive)
REMARK    1  A    between atoms: C_10  and  S_11
REMARK                            x       y       z     vdW  Elec       q    Type
REMARK                         _______ _______ _______ _____ _____    ______ ____
ROOT
ATOM      1  O   UNL     1       5.760   3.948  20.161  0.00  0.00    +0.000 OA
ATOM      2  C   UNL     1       5.345   4.477  19.127  0.00  0.00    +0.000 A 
ATOM      3  C   UNL     1       6.191   5.570  18.505  0.00  0.00    +0.000 A 
ATOM      4  C   UNL     1       7.419   5.873  19.121  0.00  0.00    +0.000 A 
ATOM      5  C   UNL     1       8.193   6.959  18.692  0.00  0.00    +0.000 A 
ATOM      6  C   UNL     1       7.731   7.790  17.677  0.00  0.00    +0.000 A 
ATOM      7  C   UNL     1       6.553   7.471  17.014  0.00  0.00    +0.000 A 
ATOM      8  C   UNL     1       5.826   6.328  17.363  0.00  0.00    +0.000 A 
ATOM      9  N   UNL     1       4.775   5.999  16.494  0.00  0.00    +0.000 NA
ATOM     10  C   UNL     1       4.620   4.730  16.288  0.00  0.00    +0.000 A 
ATOM     11  N   UNL     1       3.757   4.138  17.197  0.00  0.00    +0.000 N 
ATOM     12  C   UNL     1       2.424   3.874  17.005  0.00  0.00    +0.000 A 
ATOM     13  C   UNL     1       1.896   3.468  18.209  0.00  0.00    +0.000 A 
ATOM     14  C   UNL     1       2.940   3.538  19.170  0.00  0.00    +0.000 A 
ATOM     15  C   UNL     1       4.059   4.065  18.546  0.00  0.00    +0.000 A 
ENDROOT
BRANCH  10  16
ATOM     16  S   UNL     1       5.844   3.701  15.546  0.00  0.00    +0.000 S 
ATOM     17  H   UNL     1       5.002   2.780  15.046  0.00  0.00    +0.000 HD
ENDBRANCH  10  16
TORSDOF 1
ENDMDL
