MODEL 1
REMARK VINA RESULT:      -7.3      0.000      0.000
REMARK  Name = 
REMARK  4 active torsions:
REMARK  status: ('A' for Active; 'I' for Inactive)
REMARK    1  A    between atoms: C_1  and  O_2
REMARK    2  A    between atoms: O_2  and  C_3
REMARK    3  A    between atoms: C_8  and  S_9
REMARK    4  A    between atoms: S_9  and  C_10
REMARK                            x       y       z     vdW  Elec       q    Type
REMARK                         _______ _______ _______ _____ _____    ______ ____
ROOT
ATOM      1  C   UNL     1       7.993   8.056  17.981  0.00  0.00    +0.000 A 
ATOM      2  C   UNL     1       8.341   7.170  19.006  0.00  0.00    +0.000 A 
ATOM      3  C   UNL     1       7.699   5.935  19.127  0.00  0.00    +0.000 A 
ATOM      4  C   UNL     1       6.718   5.575  18.206  0.00  0.00    +0.000 A 
ATOM      5  O   UNL     1       6.140   4.340  18.354  0.00  0.00    +0.000 OA
ATOM      6  C   UNL     1       5.151   3.958  17.460  0.00  0.00    +0.000 A 
ATOM      7  C   UNL     1       4.714   4.729  16.457  0.00  0.00    +0.000 A 
ATOM      8  C   UNL     1       5.320   6.052  16.241  0.00  0.00    +0.000 A 
ATOM      9  O   UNL     1       4.952   6.777  15.328  0.00  0.00    +0.000 OA
ATOM     10  C   UNL     1       6.373   6.454  17.184  0.00  0.00    +0.000 A 
ATOM     11  C   UNL     1       7.010   7.694  17.061  0.00  0.00    +0.000 A 
ENDROOT
BRANCH   1  13
ATOM     12  C   UNL     1       9.059   9.758  19.223  0.00  0.00    +0.000 C 
ATOM     13  O   UNL     1       8.704   9.224  17.950  0.00  0.00    +0.000 OA
ENDBRANCH   1  13
BRANCH   6  14
ATOM     14  S   UNL     1       4.398   2.418  17.769  0.00  0.00    +0.000 S 
BRANCH  14  15
ATOM     15  C   UNL     1       3.029   2.902  18.809  0.00  0.00    +0.000 A 
ATOM     16  C   UNL     1       1.700   2.880  18.365  0.00  0.00    +0.000 A 
ATOM     17  C   UNL     1       0.652   3.223  19.230  0.00  0.00    +0.000 A 
ATOM     18  C   UNL     1       0.929   3.578  20.549  0.00  0.00    +0.000 A 
ATOM     19  C   UNL     1       2.244   3.574  20.994  0.00  0.00    +0.000 A 
ATOM     20  F   UNL     1       2.509   3.892  22.268  0.00  0.00    +0.000 F 
ATOM     21  C   UNL     1       3.292   3.238  20.141  0.00  0.00    +0.000 A 
ENDBRANCH  14  15
ENDBRANCH   6  14
TORSDOF 3
ENDMDL
MODEL 2
REMARK VINA RESULT:      -7.3      5.113      6.219
REMARK  Name = 
REMARK  4 active torsions:
REMARK  status: ('A' for Active; 'I' for Inactive)
REMARK    1  A    between atoms: C_1  and  O_2
REMARK    2  A    between atoms: O_2  and  C_3
REMARK    3  A    between atoms: C_8  and  S_9
REMARK    4  A    between atoms: S_9  and  C_10
REMARK                            x       y       z     vdW  Elec       q    Type
REMARK                         _______ _______ _______ _____ _____    ______ ____
ROOT
ATOM      1  C   UNL     1      -0.337  10.510  21.216  0.00  0.00    +0.000 A 
ATOM      2  C   UNL     1      -0.072   9.480  22.124  0.00  0.00    +0.000 A 
ATOM      3  C   UNL     1       0.744   8.406  21.762  0.00  0.00    +0.000 A 
ATOM      4  C   UNL     1       1.317   8.371  20.492  0.00  0.00    +0.000 A 
ATOM      5  O   UNL     1       2.132   7.309  20.200  0.00  0.00    +0.000 OA
ATOM      6  C   UNL     1       2.706   7.240  18.939  0.00  0.00    +0.000 A 
ATOM      7  C   UNL     1       2.507   8.150  17.978  0.00  0.00    +0.000 A 
ATOM      8  C   UNL     1       1.660   9.321  18.252  0.00  0.00    +0.000 A 
ATOM      9  O   UNL     1       1.465  10.176  17.399  0.00  0.00    +0.000 OA
ATOM     10  C   UNL     1       1.057   9.397  19.590  0.00  0.00    +0.000 A 
ATOM     11  C   UNL     1       0.236  10.474  19.945  0.00  0.00    +0.000 A 
ENDROOT
BRANCH   1  13
ATOM     12  C   UNL     1      -1.517  11.402  23.056  0.00  0.00    +0.000 C 
ATOM     13  O   UNL     1      -1.131  11.518  21.690  0.00  0.00    +0.000 OA
ENDBRANCH   1  13
BRANCH   6  14
ATOM     14  S   UNL     1       3.652   5.815  18.609  0.00  0.00    +0.000 S 
BRANCH  14  15
ATOM     15  C   UNL     1       2.706   4.564  19.464  0.00  0.00    +0.000 A 
ATOM     16  C   UNL     1       2.797   4.364  20.848  0.00  0.00    +0.000 A 
ATOM     17  C   UNL     1       2.001   3.402  21.484  0.00  0.00    +0.000 A 
ATOM     18  C   UNL     1       1.100   2.643  20.739  0.00  0.00    +0.000 A 
ATOM     19  C   UNL     1       0.994   2.860  19.372  0.00  0.00    +0.000 A 
ATOM     20  F   UNL     1       0.113   2.147  18.659  0.00  0.00    +0.000 F 
ATOM     21  C   UNL     1       1.783   3.811  18.731  0.00  0.00    +0.000 A 
ENDBRANCH  14  15
ENDBRANCH   6  14
TORSDOF 3
ENDMDL
MODEL 3
REMARK VINA RESULT:      -7.3      4.946      6.654
REMARK  Name = 
REMARK  4 active torsions:
REMARK  status: ('A' for Active; 'I' for Inactive)
REMARK    1  A    between atoms: C_1  and  O_2
REMARK    2  A    between atoms: O_2  and  C_3
REMARK    3  A    between atoms: C_8  and  S_9
REMARK    4  A    between atoms: S_9  and  C_10
REMARK                            x       y       z     vdW  Elec       q    Type
REMARK                         _______ _______ _______ _____ _____    ______ ____
ROOT
ATOM      1  C   UNL     1       0.245  10.332  21.297  0.00  0.00    +0.000 A 
ATOM      2  C   UNL     1       0.403   9.185  22.082  0.00  0.00    +0.000 A 
ATOM      3  C   UNL     1       1.055   8.059  21.572  0.00  0.00    +0.000 A 
ATOM      4  C   UNL     1       1.570   8.087  20.278  0.00  0.00    +0.000 A 
ATOM      5  O   UNL     1       2.225   6.966  19.838  0.00  0.00    +0.000 OA
ATOM      6  C   UNL     1       2.737   6.959  18.549  0.00  0.00    +0.000 A 
ATOM      7  C   UNL     1       2.626   7.984  17.696  0.00  0.00    +0.000 A 
ATOM      8  C   UNL     1       1.954   9.218  18.130  0.00  0.00    +0.000 A 
ATOM      9  O   UNL     1       1.843  10.178  17.380  0.00  0.00    +0.000 OA
ATOM     10  C   UNL     1       1.417   9.229  19.498  0.00  0.00    +0.000 A 
ATOM     11  C   UNL     1       0.760  10.358  20.001  0.00  0.00    +0.000 A 
ENDROOT
BRANCH   1  13
ATOM     12  C   UNL     1      -1.187  11.032  23.039  0.00  0.00    +0.000 C 
ATOM     13  O   UNL     1      -0.389  11.377  21.910  0.00  0.00    +0.000 OA
ENDBRANCH   1  13
BRANCH   6  14
ATOM     14  S   UNL     1       3.472   5.467  18.029  0.00  0.00    +0.000 S 
BRANCH  14  15
ATOM     15  C   UNL     1       5.207   5.879  18.130  0.00  0.00    +0.000 A 
ATOM     16  C   UNL     1       5.837   6.721  17.203  0.00  0.00    +0.000 A 
ATOM     17  C   UNL     1       7.190   7.055  17.347  0.00  0.00    +0.000 A 
ATOM     18  C   UNL     1       7.917   6.560  18.428  0.00  0.00    +0.000 A 
ATOM     19  C   UNL     1       7.284   5.746  19.359  0.00  0.00    +0.000 A 
ATOM     20  F   UNL     1       7.975   5.288  20.410  0.00  0.00    +0.000 F 
ATOM     21  C   UNL     1       5.941   5.406  19.222  0.00  0.00    +0.000 A 
ENDBRANCH  14  15
ENDBRANCH   6  14
TORSDOF 3
ENDMDL
MODEL 4
REMARK VINA RESULT:      -7.1      4.860      5.777
REMARK  Name = 
REMARK  4 active torsions:
REMARK  status: ('A' for Active; 'I' for Inactive)
REMARK    1  A    between atoms: C_1  and  O_2
REMARK    2  A    between atoms: O_2  and  C_3
REMARK    3  A    between atoms: C_8  and  S_9
REMARK    4  A    between atoms: S_9  and  C_10
REMARK                            x       y       z     vdW  Elec       q    Type
REMARK                         _______ _______ _______ _____ _____    ______ ____
ROOT
ATOM      1  C   UNL     1      -0.086  10.226  21.153  0.00  0.00    +0.000 A 
ATOM      2  C   UNL     1       0.090   9.085  21.941  0.00  0.00    +0.000 A 
ATOM      3  C   UNL     1       0.859   8.013  21.480  0.00  0.00    +0.000 A 
ATOM      4  C   UNL     1       1.472   8.092  20.231  0.00  0.00    +0.000 A 
ATOM      5  O   UNL     1       2.238   7.024  19.840  0.00  0.00    +0.000 OA
ATOM      6  C   UNL     1       2.851   7.068  18.597  0.00  0.00    +0.000 A 
ATOM      7  C   UNL     1       2.736   8.092  17.743  0.00  0.00    +0.000 A 
ATOM      8  C   UNL     1       1.945   9.271  18.128  0.00  0.00    +0.000 A 
ATOM      9  O   UNL     1       1.827  10.229  17.376  0.00  0.00    +0.000 OA
ATOM     10  C   UNL     1       1.301   9.228  19.448  0.00  0.00    +0.000 A 
ATOM     11  C   UNL     1       0.528  10.303  19.903  0.00  0.00    +0.000 A 
ENDROOT
BRANCH   1  13
ATOM     12  C   UNL     1      -1.058  12.363  20.899  0.00  0.00    +0.000 C 
ATOM     13  O   UNL     1      -0.840  11.218  21.718  0.00  0.00    +0.000 OA
ENDBRANCH   1  13
BRANCH   6  14
ATOM     14  S   UNL     1       3.729   5.637  18.129  0.00  0.00    +0.000 S 
BRANCH  14  15
ATOM     15  C   UNL     1       2.717   4.356  18.854  0.00  0.00    +0.000 A 
ATOM     16  C   UNL     1       1.633   3.778  18.179  0.00  0.00    +0.000 A 
ATOM     17  C   UNL     1       0.896   2.743  18.768  0.00  0.00    +0.000 A 
ATOM     18  C   UNL     1       1.247   2.271  20.031  0.00  0.00    +0.000 A 
ATOM     19  C   UNL     1       2.336   2.828  20.688  0.00  0.00    +0.000 A 
ATOM     20  F   UNL     1       2.689   2.360  21.892  0.00  0.00    +0.000 F 
ATOM     21  C   UNL     1       3.073   3.859  20.112  0.00  0.00    +0.000 A 
ENDBRANCH  14  15
ENDBRANCH   6  14
TORSDOF 3
ENDMDL
MODEL 5
REMARK VINA RESULT:      -7.1      4.968      6.369
REMARK  Name = 
REMARK  4 active torsions:
REMARK  status: ('A' for Active; 'I' for Inactive)
REMARK    1  A    between atoms: C_1  and  O_2
REMARK    2  A    between atoms: O_2  and  C_3
REMARK    3  A    between atoms: C_8  and  S_9
REMARK    4  A    between atoms: S_9  and  C_10
REMARK                            x       y       z     vdW  Elec       q    Type
REMARK                         _______ _______ _______ _____ _____    ______ ____
ROOT
ATOM      1  C   UNL     1       0.365  10.426  20.635  0.00  0.00    +0.000 A 
ATOM      2  C   UNL     1       0.321   9.570  21.740  0.00  0.00    +0.000 A 
ATOM      3  C   UNL     1       0.879   8.291  21.672  0.00  0.00    +0.000 A 
ATOM      4  C   UNL     1       1.504   7.873  20.499  0.00  0.00    +0.000 A 
ATOM      5  O   UNL     1       2.060   6.620  20.496  0.00  0.00    +0.000 OA
ATOM      6  C   UNL     1       2.678   6.170  19.339  0.00  0.00    +0.000 A 
ATOM      7  C   UNL     1       2.760   6.885  18.210  0.00  0.00    +0.000 A 
ATOM      8  C   UNL     1       2.200   8.245  18.172  0.00  0.00    +0.000 A 
ATOM      9  O   UNL     1       2.267   8.930  17.161  0.00  0.00    +0.000 OA
ATOM     10  C   UNL     1       1.552   8.724  19.400  0.00  0.00    +0.000 A 
ATOM     11  C   UNL     1       0.990  10.005  19.461  0.00  0.00    +0.000 A 
ENDROOT
BRANCH   1  13
ATOM     12  C   UNL     1      -0.377  12.438  19.648  0.00  0.00    +0.000 C 
ATOM     13  O   UNL     1      -0.194  11.659  20.827  0.00  0.00    +0.000 OA
ENDBRANCH   1  13
BRANCH   6  14
ATOM     14  S   UNL     1       3.276   4.534  19.380  0.00  0.00    +0.000 S 
BRANCH  14  15
ATOM     15  C   UNL     1       4.851   4.719  18.558  0.00  0.00    +0.000 A 
ATOM     16  C   UNL     1       5.962   5.305  19.179  0.00  0.00    +0.000 A 
ATOM     17  C   UNL     1       7.192   5.387  18.512  0.00  0.00    +0.000 A 
ATOM     18  C   UNL     1       7.320   4.871  17.224  0.00  0.00    +0.000 A 
ATOM     19  C   UNL     1       6.224   4.268  16.620  0.00  0.00    +0.000 A 
ATOM     20  F   UNL     1       6.351   3.751  15.391  0.00  0.00    +0.000 F 
ATOM     21  C   UNL     1       4.997   4.185  17.273  0.00  0.00    +0.000 A 
ENDBRANCH  14  15
ENDBRANCH   6  14
TORSDOF 3
ENDMDL
MODEL 6
REMARK VINA RESULT:      -7.1      4.798      6.208
REMARK  Name = 
REMARK  4 active torsions:
REMARK  status: ('A' for Active; 'I' for Inactive)
REMARK    1  A    between atoms: C_1  and  O_2
REMARK    2  A    between atoms: O_2  and  C_3
REMARK    3  A    between atoms: C_8  and  S_9
REMARK    4  A    between atoms: S_9  and  C_10
REMARK                            x       y       z     vdW  Elec       q    Type
REMARK                         _______ _______ _______ _____ _____    ______ ____
ROOT
ATOM      1  C   UNL     1       0.379  10.317  20.508  0.00  0.00    +0.000 A 
ATOM      2  C   UNL     1       0.310   9.474  21.621  0.00  0.00    +0.000 A 
ATOM      3  C   UNL     1       0.881   8.199  21.584  0.00  0.00    +0.000 A 
ATOM      4  C   UNL     1       1.543   7.773  20.435  0.00  0.00    +0.000 A 
ATOM      5  O   UNL     1       2.109   6.524  20.463  0.00  0.00    +0.000 OA
ATOM      6  C   UNL     1       2.764   6.067  19.329  0.00  0.00    +0.000 A 
ATOM      7  C   UNL     1       2.873   6.770  18.195  0.00  0.00    +0.000 A 
ATOM      8  C   UNL     1       2.303   8.124  18.124  0.00  0.00    +0.000 A 
ATOM      9  O   UNL     1       2.394   8.798  17.108  0.00  0.00    +0.000 OA
ATOM     10  C   UNL     1       1.615   8.612  19.328  0.00  0.00    +0.000 A 
ATOM     11  C   UNL     1       1.041   9.888  19.358  0.00  0.00    +0.000 A 
ENDROOT
BRANCH   1  13
ATOM     12  C   UNL     1      -0.737  12.129  19.487  0.00  0.00    +0.000 C 
ATOM     13  O   UNL     1      -0.195  11.548  20.669  0.00  0.00    +0.000 OA
ENDBRANCH   1  13
BRANCH   6  14
ATOM     14  S   UNL     1       3.374   4.437  19.407  0.00  0.00    +0.000 S 
BRANCH  14  15
ATOM     15  C   UNL     1       4.938   4.610  18.561  0.00  0.00    +0.000 A 
ATOM     16  C   UNL     1       5.130   4.191  17.238  0.00  0.00    +0.000 A 
ATOM     17  C   UNL     1       6.361   4.390  16.598  0.00  0.00    +0.000 A 
ATOM     18  C   UNL     1       7.403   5.021  17.276  0.00  0.00    +0.000 A 
ATOM     19  C   UNL     1       7.202   5.458  18.578  0.00  0.00    +0.000 A 
ATOM     20  F   UNL     1       8.194   6.085  19.223  0.00  0.00    +0.000 F 
ATOM     21  C   UNL     1       5.984   5.262  19.223  0.00  0.00    +0.000 A 
ENDBRANCH  14  15
ENDBRANCH   6  14
TORSDOF 3
ENDMDL
MODEL 7
REMARK VINA RESULT:      -7.0      5.301      6.264
REMARK  Name = 
REMARK  4 active torsions:
REMARK  status: ('A' for Active; 'I' for Inactive)
REMARK    1  A    between atoms: C_1  and  O_2
REMARK    2  A    between atoms: O_2  and  C_3
REMARK    3  A    between atoms: C_8  and  S_9
REMARK    4  A    between atoms: S_9  and  C_10
REMARK                            x       y       z     vdW  Elec       q    Type
REMARK                         _______ _______ _______ _____ _____    ______ ____
ROOT
ATOM      1  C   UNL     1      -0.168  10.760  21.750  0.00  0.00    +0.000 A 
ATOM      2  C   UNL     1       0.328   9.733  22.558  0.00  0.00    +0.000 A 
ATOM      3  C   UNL     1       1.074   8.689  22.003  0.00  0.00    +0.000 A 
ATOM      4  C   UNL     1       1.342   8.684  20.636  0.00  0.00    +0.000 A 
ATOM      5  O   UNL     1       2.102   7.652  20.149  0.00  0.00    +0.000 OA
ATOM      6  C   UNL     1       2.375   7.612  18.790  0.00  0.00    +0.000 A 
ATOM      7  C   UNL     1       1.934   8.522  17.913  0.00  0.00    +0.000 A 
ATOM      8  C   UNL     1       1.135   9.662  18.390  0.00  0.00    +0.000 A 
ATOM      9  O   UNL     1       0.725  10.517  17.618  0.00  0.00    +0.000 OA
ATOM     10  C   UNL     1       0.852   9.707  19.832  0.00  0.00    +0.000 A 
ATOM     11  C   UNL     1       0.100  10.753  20.381  0.00  0.00    +0.000 A 
ENDROOT
BRANCH   1  13
ATOM     12  C   UNL     1      -1.912  11.277  23.255  0.00  0.00    +0.000 C 
ATOM     13  O   UNL     1      -0.864  11.737  22.407  0.00  0.00    +0.000 OA
ENDBRANCH   1  13
BRANCH   6  14
ATOM     14  S   UNL     1       3.264   6.222  18.231  0.00  0.00    +0.000 S 
BRANCH  14  15
ATOM     15  C   UNL     1       2.379   4.896  19.037  0.00  0.00    +0.000 A 
ATOM     16  C   UNL     1       1.520   4.032  18.343  0.00  0.00    +0.000 A 
ATOM     17  C   UNL     1       0.882   2.975  19.007  0.00  0.00    +0.000 A 
ATOM     18  C   UNL     1       1.110   2.770  20.367  0.00  0.00    +0.000 A 
ATOM     19  C   UNL     1       1.981   3.612  21.046  0.00  0.00    +0.000 A 
ATOM     20  F   UNL     1       2.219   3.402  22.347  0.00  0.00    +0.000 F 
ATOM     21  C   UNL     1       2.617   4.666  20.396  0.00  0.00    +0.000 A 
ENDBRANCH  14  15
ENDBRANCH   6  14
TORSDOF 3
ENDMDL
MODEL 8
REMARK VINA RESULT:      -7.0      1.046      1.096
REMARK  Name = 
REMARK  4 active torsions:
REMARK  status: ('A' for Active; 'I' for Inactive)
REMARK    1  A    between atoms: C_1  and  O_2
REMARK    2  A    between atoms: O_2  and  C_3
REMARK    3  A    between atoms: C_8  and  S_9
REMARK    4  A    between atoms: S_9  and  C_10
REMARK                            x       y       z     vdW  Elec       q    Type
REMARK                         _______ _______ _______ _____ _____    ______ ____
ROOT
ATOM      1  C   UNL     1       8.092   7.634  18.353  0.00  0.00    +0.000 A 
ATOM      2  C   UNL     1       8.180   6.649  19.342  0.00  0.00    +0.000 A 
ATOM      3  C   UNL     1       7.351   5.525  19.302  0.00  0.00    +0.000 A 
ATOM      4  C   UNL     1       6.442   5.375  18.257  0.00  0.00    +0.000 A 
ATOM      5  O   UNL     1       5.673   4.240  18.251  0.00  0.00    +0.000 OA
ATOM      6  C   UNL     1       4.750   4.069  17.231  0.00  0.00    +0.000 A 
ATOM      7  C   UNL     1       4.554   4.952  16.245  0.00  0.00    +0.000 A 
ATOM      8  C   UNL     1       5.372   6.174  16.193  0.00  0.00    +0.000 A 
ATOM      9  O   UNL     1       5.227   6.998  15.301  0.00  0.00    +0.000 OA
ATOM     10  C   UNL     1       6.355   6.352  17.271  0.00  0.00    +0.000 A 
ATOM     11  C   UNL     1       7.180   7.483  17.308  0.00  0.00    +0.000 A 
ENDROOT
BRANCH   1  13
ATOM     12  C   UNL     1       8.489   9.939  18.034  0.00  0.00    +0.000 C 
ATOM     13  O   UNL     1       8.968   8.675  18.485  0.00  0.00    +0.000 OA
ENDBRANCH   1  13
BRANCH   6  14
ATOM     14  S   UNL     1       3.744   2.650  17.343  0.00  0.00    +0.000 S 
BRANCH  14  15
ATOM     15  C   UNL     1       2.676   3.088  18.706  0.00  0.00    +0.000 A 
ATOM     16  C   UNL     1       2.043   2.128  19.507  0.00  0.00    +0.000 A 
ATOM     17  C   UNL     1       1.251   2.516  20.596  0.00  0.00    +0.000 A 
ATOM     18  C   UNL     1       1.098   3.868  20.896  0.00  0.00    +0.000 A 
ATOM     19  C   UNL     1       1.746   4.817  20.116  0.00  0.00    +0.000 A 
ATOM     20  F   UNL     1       1.618   6.116  20.417  0.00  0.00    +0.000 F 
ATOM     21  C   UNL     1       2.532   4.441  19.031  0.00  0.00    +0.000 A 
ENDBRANCH  14  15
ENDBRANCH   6  14
TORSDOF 3
ENDMDL
MODEL 9
REMARK VINA RESULT:      -7.0      5.229      6.726
REMARK  Name = 
REMARK  4 active torsions:
REMARK  status: ('A' for Active; 'I' for Inactive)
REMARK    1  A    between atoms: C_1  and  O_2
REMARK    2  A    between atoms: O_2  and  C_3
REMARK    3  A    between atoms: C_8  and  S_9
REMARK    4  A    between atoms: S_9  and  C_10
REMARK                            x       y       z     vdW  Elec       q    Type
REMARK                         _______ _______ _______ _____ _____    ______ ____
ROOT
ATOM      1  C   UNL     1       0.266  10.308  21.329  0.00  0.00    +0.000 A 
ATOM      2  C   UNL     1       0.437   9.129  22.062  0.00  0.00    +0.000 A 
ATOM      3  C   UNL     1       1.087   8.029  21.497  0.00  0.00    +0.000 A 
ATOM      4  C   UNL     1       1.588   8.115  20.200  0.00  0.00    +0.000 A 
ATOM      5  O   UNL     1       2.243   7.017  19.705  0.00  0.00    +0.000 OA
ATOM      6  C   UNL     1       2.741   7.068  18.412  0.00  0.00    +0.000 A 
ATOM      7  C   UNL     1       2.617   8.128  17.605  0.00  0.00    +0.000 A 
ATOM      8  C   UNL     1       1.944   9.340  18.099  0.00  0.00    +0.000 A 
ATOM      9  O   UNL     1       1.822  10.330  17.392  0.00  0.00    +0.000 OA
ATOM     10  C   UNL     1       1.422   9.288  19.471  0.00  0.00    +0.000 A 
ATOM     11  C   UNL     1       0.766  10.392  20.030  0.00  0.00    +0.000 A 
ENDROOT
BRANCH   1  13
ATOM     12  C   UNL     1      -0.098  12.634  21.504  0.00  0.00    +0.000 C 
ATOM     13  O   UNL     1      -0.366  11.323  21.993  0.00  0.00    +0.000 OA
ENDBRANCH   1  13
BRANCH   6  14
ATOM     14  S   UNL     1       3.476   5.603  17.820  0.00  0.00    +0.000 S 
BRANCH  14  15
ATOM     15  C   UNL     1       5.192   5.885  18.228  0.00  0.00    +0.000 A 
ATOM     16  C   UNL     1       5.832   5.229  19.288  0.00  0.00    +0.000 A 
ATOM     17  C   UNL     1       7.193   5.445  19.543  0.00  0.00    +0.000 A 
ATOM     18  C   UNL     1       7.924   6.310  18.730  0.00  0.00    +0.000 A 
ATOM     19  C   UNL     1       7.293   6.939  17.665  0.00  0.00    +0.000 A 
ATOM     20  F   UNL     1       7.999   7.752  16.869  0.00  0.00    +0.000 F 
ATOM     21  C   UNL     1       5.940   6.733  17.406  0.00  0.00    +0.000 A 
ENDBRANCH  14  15
ENDBRANCH   6  14
TORSDOF 3
ENDMDL
