MODEL 1
REMARK VINA RESULT:      -8.9      0.000      0.000
REMARK  Name = 
REMARK  5 active torsions:
REMARK  status: ('A' for Active; 'I' for Inactive)
REMARK    1  A    between atoms: C_1  and  N_2
REMARK    2  A    between atoms: C_3  and  C_5
REMARK    3  A    between atoms: C_15  and  C_17
REMARK    4  A    between atoms: C_20  and  C_21
REMARK    5  A    between atoms: C_22  and  C_23
REMARK                            x       y       z     vdW  Elec       q    Type
REMARK                         _______ _______ _______ _____ _____    ______ ____
ROOT
ATOM      1  C   UNL     1       5.742   3.626  12.593  0.00  0.00    +0.000 A 
ATOM      2  C   UNL     1       7.016   4.032  12.142  0.00  0.00    +0.000 A 
ATOM      3  C   UNL     1       7.869   4.775  12.972  0.00  0.00    +0.000 A 
ATOM      4  C   UNL     1       7.419   5.110  14.233  0.00  0.00    +0.000 A 
ATOM      5  C   UNL     1       6.173   4.716  14.685  0.00  0.00    +0.000 A 
ATOM      6  C   UNL     1       5.349   3.929  13.898  0.00  0.00    +0.000 A 
ATOM      7  C   UNL     1       5.887   5.348  16.010  0.00  0.00    +0.000 C 
ATOM      8  C   UNL     1       5.034   6.612  15.787  0.00  0.00    +0.000 C 
ATOM      9  C   UNL     1       4.576   7.256  17.091  0.00  0.00    +0.000 C 
ATOM     10  N   UNL     1       3.919   6.284  17.960  0.00  0.00    +0.000 N 
ATOM     11  C   UNL     1       2.686   6.478  18.608  0.00  0.00    +0.000 C 
ATOM     12  O   UNL     1       2.149   5.543  19.207  0.00  0.00    +0.000 OA
ATOM     13  C   UNL     1       4.695   5.085  18.260  0.00  0.00    +0.000 C 
ATOM     14  C   UNL     1       5.198   4.394  16.996  0.00  0.00    +0.000 C 
ATOM     15  C   UNL     1       7.346   5.700  16.375  0.00  0.00    +0.000 C 
ATOM     16  O   UNL     1       8.103   5.874  15.143  0.00  0.00    +0.000 OA
ENDROOT
BRANCH   1  19
ATOM     17  C   UNL     1       6.304   0.981  11.263  0.00  0.00    +0.000 C 
ATOM     18  N   UNL     1       5.091   1.753  11.067  0.00  0.00    +0.000 NA
ATOM     19  C   UNL     1       4.832   2.859  11.684  0.00  0.00    +0.000 C 
ATOM     20  N   UNL     1       3.580   3.367  11.453  0.00  0.00    +0.000 N 
ATOM     21  H   UNL     1       3.143   2.912  10.655  0.00  0.00    +0.000 HD
ATOM     22  H   UNL     1       3.489   4.375  11.441  0.00  0.00    +0.000 HD
ENDBRANCH   1  19
BRANCH  11  23
ATOM     23  C   UNL     1       2.030   7.776  18.546  0.00  0.00    +0.000 A 
ATOM     24  C   UNL     1       1.794   8.602  17.455  0.00  0.00    +0.000 A 
ATOM     25  C   UNL     1       1.106   9.743  17.936  0.00  0.00    +0.000 A 
ATOM     26  C   UNL     1       0.924   9.531  19.280  0.00  0.00    +0.000 A 
ATOM     27  O   UNL     1       1.447   8.337  19.658  0.00  0.00    +0.000 OA
BRANCH  26  28
ATOM     28  C   UNL     1       0.314  10.328  20.273  0.00  0.00    +0.000 C 
ATOM     29  C   UNL     1      -0.185  11.048  21.101  0.00  0.00    +0.000 C 
BRANCH  29  30
ATOM     30  C   UNL     1      -0.778  11.940  22.046  0.00  0.00    +0.000 A 
ATOM     31  C   UNL     1      -0.304  13.249  22.177  0.00  0.00    +0.000 A 
ATOM     32  C   UNL     1      -0.910  14.123  23.081  0.00  0.00    +0.000 A 
ATOM     33  C   UNL     1      -1.988  13.692  23.856  0.00  0.00    +0.000 A 
ATOM     34  C   UNL     1      -2.457  12.385  23.730  0.00  0.00    +0.000 A 
ATOM     35  C   UNL     1      -1.853  11.510  22.827  0.00  0.00    +0.000 A 
ENDBRANCH  29  30
ENDBRANCH  26  28
ENDBRANCH  11  23
TORSDOF 4
ENDMDL
MODEL 2
REMARK VINA RESULT:      -8.5      4.194     13.049
REMARK  Name = 
REMARK  5 active torsions:
REMARK  status: ('A' for Active; 'I' for Inactive)
REMARK    1  A    between atoms: C_1  and  N_2
REMARK    2  A    between atoms: C_3  and  C_5
REMARK    3  A    between atoms: C_15  and  C_17
REMARK    4  A    between atoms: C_20  and  C_21
REMARK    5  A    between atoms: C_22  and  C_23
REMARK                            x       y       z     vdW  Elec       q    Type
REMARK                         _______ _______ _______ _____ _____    ______ ____
ROOT
ATOM      1  C   UNL     1      -4.169  13.701  24.018  0.00  0.00    +0.000 A 
ATOM      2  C   UNL     1      -3.642  14.598  24.972  0.00  0.00    +0.000 A 
ATOM      3  C   UNL     1      -2.354  15.132  24.818  0.00  0.00    +0.000 A 
ATOM      4  C   UNL     1      -1.614  14.742  23.720  0.00  0.00    +0.000 A 
ATOM      5  C   UNL     1      -2.123  13.865  22.780  0.00  0.00    +0.000 A 
ATOM      6  C   UNL     1      -3.416  13.381  22.888  0.00  0.00    +0.000 A 
ATOM      7  C   UNL     1      -1.059  13.498  21.795  0.00  0.00    +0.000 C 
ATOM      8  C   UNL     1      -0.430  12.155  22.216  0.00  0.00    +0.000 C 
ATOM      9  C   UNL     1       0.576  11.627  21.200  0.00  0.00    +0.000 C 
ATOM     10  N   UNL     1       0.001  11.580  19.860  0.00  0.00    +0.000 N 
ATOM     11  C   UNL     1       0.067  10.479  18.987  0.00  0.00    +0.000 C 
ATOM     12  O   UNL     1      -0.571  10.489  17.930  0.00  0.00    +0.000 OA
ATOM     13  C   UNL     1      -0.562  12.836  19.373  0.00  0.00    +0.000 C 
ATOM     14  C   UNL     1      -1.572  13.429  20.351  0.00  0.00    +0.000 C 
ATOM     15  C   UNL     1      -0.113  14.685  22.082  0.00  0.00    +0.000 C 
ATOM     16  O   UNL     1      -0.326  15.128  23.453  0.00  0.00    +0.000 OA
ENDROOT
BRANCH   1  19
ATOM     17  C   UNL     1      -6.797  14.872  23.118  0.00  0.00    +0.000 C 
ATOM     18  N   UNL     1      -6.667  13.642  23.877  0.00  0.00    +0.000 NA
ATOM     19  C   UNL     1      -5.535  13.116  24.212  0.00  0.00    +0.000 C 
ATOM     20  N   UNL     1      -5.627  11.890  24.818  0.00  0.00    +0.000 N 
ATOM     21  H   UNL     1      -6.582  11.699  25.111  0.00  0.00    +0.000 HD
ATOM     22  H   UNL     1      -4.937  11.676  25.526  0.00  0.00    +0.000 HD
ENDBRANCH   1  19
BRANCH  11  23
ATOM     23  C   UNL     1       0.867   9.317  19.344  0.00  0.00    +0.000 A 
ATOM     24  C   UNL     1       0.885   8.578  20.519  0.00  0.00    +0.000 A 
ATOM     25  C   UNL     1       1.832   7.538  20.344  0.00  0.00    +0.000 A 
ATOM     26  C   UNL     1       2.305   7.675  19.062  0.00  0.00    +0.000 A 
ATOM     27  O   UNL     1       1.711   8.722  18.436  0.00  0.00    +0.000 OA
BRANCH  26  28
ATOM     28  C   UNL     1       3.267   6.935  18.343  0.00  0.00    +0.000 C 
ATOM     29  C   UNL     1       4.056   6.294  17.693  0.00  0.00    +0.000 C 
BRANCH  29  30
ATOM     30  C   UNL     1       4.966   5.552  16.881  0.00  0.00    +0.000 A 
ATOM     31  C   UNL     1       4.617   4.285  16.404  0.00  0.00    +0.000 A 
ATOM     32  C   UNL     1       5.500   3.580  15.583  0.00  0.00    +0.000 A 
ATOM     33  C   UNL     1       6.732   4.138  15.240  0.00  0.00    +0.000 A 
ATOM     34  C   UNL     1       7.084   5.400  15.720  0.00  0.00    +0.000 A 
ATOM     35  C   UNL     1       6.203   6.106  16.539  0.00  0.00    +0.000 A 
ENDBRANCH  29  30
ENDBRANCH  26  28
ENDBRANCH  11  23
TORSDOF 4
ENDMDL
MODEL 3
REMARK VINA RESULT:      -8.2      4.161      5.781
REMARK  Name = 
REMARK  5 active torsions:
REMARK  status: ('A' for Active; 'I' for Inactive)
REMARK    1  A    between atoms: C_1  and  N_2
REMARK    2  A    between atoms: C_3  and  C_5
REMARK    3  A    between atoms: C_15  and  C_17
REMARK    4  A    between atoms: C_20  and  C_21
REMARK    5  A    between atoms: C_22  and  C_23
REMARK                            x       y       z     vdW  Elec       q    Type
REMARK                         _______ _______ _______ _____ _____    ______ ____
ROOT
ATOM      1  C   UNL     1       6.205   5.547  18.806  0.00  0.00    +0.000 A 
ATOM      2  C   UNL     1       5.941   4.178  18.583  0.00  0.00    +0.000 A 
ATOM      3  C   UNL     1       4.652   3.742  18.242  0.00  0.00    +0.000 A 
ATOM      4  C   UNL     1       3.649   4.687  18.149  0.00  0.00    +0.000 A 
ATOM      5  C   UNL     1       3.898   6.029  18.366  0.00  0.00    +0.000 A 
ATOM      6  C   UNL     1       5.180   6.478  18.640  0.00  0.00    +0.000 A 
ATOM      7  C   UNL     1       2.613   6.795  18.358  0.00  0.00    +0.000 C 
ATOM      8  C   UNL     1       2.141   6.993  19.812  0.00  0.00    +0.000 C 
ATOM      9  C   UNL     1       0.906   7.880  19.919  0.00  0.00    +0.000 C 
ATOM     10  N   UNL     1       1.099   9.144  19.215  0.00  0.00    +0.000 N 
ATOM     11  C   UNL     1       0.815  10.417  19.743  0.00  0.00    +0.000 C 
ATOM     12  O   UNL     1       1.145  11.431  19.121  0.00  0.00    +0.000 OA
ATOM     13  C   UNL     1       1.492   9.030  17.814  0.00  0.00    +0.000 C 
ATOM     14  C   UNL     1       2.719   8.143  17.632  0.00  0.00    +0.000 C 
ATOM     15  C   UNL     1       1.763   5.737  17.621  0.00  0.00    +0.000 C 
ATOM     16  O   UNL     1       2.332   4.421  17.881  0.00  0.00    +0.000 OA
ENDROOT
BRANCH   1  19
ATOM     17  C   UNL     1       7.777   7.839  17.642  0.00  0.00    +0.000 C 
ATOM     18  N   UNL     1       8.279   6.939  18.663  0.00  0.00    +0.000 NA
ATOM     19  C   UNL     1       7.580   5.992  19.199  0.00  0.00    +0.000 C 
ATOM     20  N   UNL     1       8.197   5.336  20.232  0.00  0.00    +0.000 N 
ATOM     21  H   UNL     1       9.191   5.548  20.258  0.00  0.00    +0.000 HD
ATOM     22  H   UNL     1       7.993   4.350  20.335  0.00  0.00    +0.000 HD
ENDBRANCH   1  19
BRANCH  11  23
ATOM     23  C   UNL     1       0.158  10.537  21.036  0.00  0.00    +0.000 A 
ATOM     24  C   UNL     1       0.503   9.986  22.262  0.00  0.00    +0.000 A 
ATOM     25  C   UNL     1      -0.459  10.427  23.203  0.00  0.00    +0.000 A 
ATOM     26  C   UNL     1      -1.309  11.253  22.510  0.00  0.00    +0.000 A 
ATOM     27  O   UNL     1      -0.933  11.355  21.211  0.00  0.00    +0.000 OA
BRANCH  26  28
ATOM     28  C   UNL     1      -2.454  11.967  22.924  0.00  0.00    +0.000 C 
ATOM     29  C   UNL     1      -3.436  12.596  23.233  0.00  0.00    +0.000 C 
BRANCH  29  30
ATOM     30  C   UNL     1      -4.615  13.336  23.550  0.00  0.00    +0.000 A 
ATOM     31  C   UNL     1      -4.596  14.734  23.537  0.00  0.00    +0.000 A 
ATOM     32  C   UNL     1      -5.762  15.450  23.816  0.00  0.00    +0.000 A 
ATOM     33  C   UNL     1      -6.946  14.773  24.110  0.00  0.00    +0.000 A 
ATOM     34  C   UNL     1      -6.964  13.378  24.129  0.00  0.00    +0.000 A 
ATOM     35  C   UNL     1      -5.800  12.661  23.849  0.00  0.00    +0.000 A 
ENDBRANCH  29  30
ENDBRANCH  26  28
ENDBRANCH  11  23
TORSDOF 4
ENDMDL
MODEL 4
REMARK VINA RESULT:      -8.1      4.160      5.737
REMARK  Name = 
REMARK  5 active torsions:
REMARK  status: ('A' for Active; 'I' for Inactive)
REMARK    1  A    between atoms: C_1  and  N_2
REMARK    2  A    between atoms: C_3  and  C_5
REMARK    3  A    between atoms: C_15  and  C_17
REMARK    4  A    between atoms: C_20  and  C_21
REMARK    5  A    between atoms: C_22  and  C_23
REMARK                            x       y       z     vdW  Elec       q    Type
REMARK                         _______ _______ _______ _____ _____    ______ ____
ROOT
ATOM      1  C   UNL     1       6.214   5.530  18.840  0.00  0.00    +0.000 A 
ATOM      2  C   UNL     1       5.945   4.154  18.681  0.00  0.00    +0.000 A 
ATOM      3  C   UNL     1       4.646   3.706  18.395  0.00  0.00    +0.000 A 
ATOM      4  C   UNL     1       3.641   4.647  18.291  0.00  0.00    +0.000 A 
ATOM      5  C   UNL     1       3.897   5.997  18.445  0.00  0.00    +0.000 A 
ATOM      6  C   UNL     1       5.185   6.456  18.664  0.00  0.00    +0.000 A 
ATOM      7  C   UNL     1       2.612   6.763  18.441  0.00  0.00    +0.000 C 
ATOM      8  C   UNL     1       2.180   7.022  19.898  0.00  0.00    +0.000 C 
ATOM      9  C   UNL     1       0.949   7.914  20.003  0.00  0.00    +0.000 C 
ATOM     10  N   UNL     1       1.122   9.148  19.243  0.00  0.00    +0.000 N 
ATOM     11  C   UNL     1       0.853  10.442  19.724  0.00  0.00    +0.000 C 
ATOM     12  O   UNL     1       1.166  11.428  19.052  0.00  0.00    +0.000 OA
ATOM     13  C   UNL     1       1.476   8.975  17.837  0.00  0.00    +0.000 C 
ATOM     14  C   UNL     1       2.697   8.080  17.657  0.00  0.00    +0.000 C 
ATOM     15  C   UNL     1       1.741   5.676  17.773  0.00  0.00    +0.000 C 
ATOM     16  O   UNL     1       2.317   4.372  18.071  0.00  0.00    +0.000 OA
ENDROOT
BRANCH   1  19
ATOM     17  C   UNL     1       7.708   7.847  17.621  0.00  0.00    +0.000 C 
ATOM     18  N   UNL     1       8.264   6.948  18.615  0.00  0.00    +0.000 NA
ATOM     19  C   UNL     1       7.600   5.990  19.174  0.00  0.00    +0.000 C 
ATOM     20  N   UNL     1       8.269   5.336  20.176  0.00  0.00    +0.000 N 
ATOM     21  H   UNL     1       9.260   5.560  20.160  0.00  0.00    +0.000 HD
ATOM     22  H   UNL     1       8.081   4.348  20.283  0.00  0.00    +0.000 HD
ENDBRANCH   1  19
BRANCH  11  23
ATOM     23  C   UNL     1       0.233  10.616  21.029  0.00  0.00    +0.000 A 
ATOM     24  C   UNL     1       0.283   9.802  22.152  0.00  0.00    +0.000 A 
ATOM     25  C   UNL     1      -0.479  10.438  23.163  0.00  0.00    +0.000 A 
ATOM     26  C   UNL     1      -0.914  11.620  22.616  0.00  0.00    +0.000 A 
ATOM     27  O   UNL     1      -0.467  11.757  21.342  0.00  0.00    +0.000 OA
BRANCH  26  28
ATOM     28  C   UNL     1      -1.716  12.651  23.149  0.00  0.00    +0.000 C 
ATOM     29  C   UNL     1      -2.399  13.556  23.562  0.00  0.00    +0.000 C 
BRANCH  29  30
ATOM     30  C   UNL     1      -3.226  14.634  24.002  0.00  0.00    +0.000 A 
ATOM     31  C   UNL     1      -2.684  15.675  24.762  0.00  0.00    +0.000 A 
ATOM     32  C   UNL     1      -3.493  16.741  25.162  0.00  0.00    +0.000 A 
ATOM     33  C   UNL     1      -4.842  16.768  24.804  0.00  0.00    +0.000 A 
ATOM     34  C   UNL     1      -5.384  15.727  24.051  0.00  0.00    +0.000 A 
ATOM     35  C   UNL     1      -4.577  14.661  23.650  0.00  0.00    +0.000 A 
ENDBRANCH  29  30
ENDBRANCH  26  28
ENDBRANCH  11  23
TORSDOF 4
ENDMDL
MODEL 5
REMARK VINA RESULT:      -8.0      5.818     10.985
REMARK  Name = 
REMARK  5 active torsions:
REMARK  status: ('A' for Active; 'I' for Inactive)
REMARK    1  A    between atoms: C_1  and  N_2
REMARK    2  A    between atoms: C_3  and  C_5
REMARK    3  A    between atoms: C_15  and  C_17
REMARK    4  A    between atoms: C_20  and  C_21
REMARK    5  A    between atoms: C_22  and  C_23
REMARK                            x       y       z     vdW  Elec       q    Type
REMARK                         _______ _______ _______ _____ _____    ______ ____
ROOT
ATOM      1  C   UNL     1       7.692  15.448  21.074  0.00  0.00    +0.000 A 
ATOM      2  C   UNL     1       8.177  16.377  20.130  0.00  0.00    +0.000 A 
ATOM      3  C   UNL     1       7.300  17.033  19.253  0.00  0.00    +0.000 A 
ATOM      4  C   UNL     1       5.955  16.729  19.330  0.00  0.00    +0.000 A 
ATOM      5  C   UNL     1       5.471  15.821  20.252  0.00  0.00    +0.000 A 
ATOM      6  C   UNL     1       6.319  15.215  21.165  0.00  0.00    +0.000 A 
ATOM      7  C   UNL     1       4.017  15.569  20.006  0.00  0.00    +0.000 C 
ATOM      8  C   UNL     1       3.867  14.286  19.166  0.00  0.00    +0.000 C 
ATOM      9  C   UNL     1       2.413  13.869  18.974  0.00  0.00    +0.000 C 
ATOM     10  N   UNL     1       1.713  13.786  20.252  0.00  0.00    +0.000 N 
ATOM     11  C   UNL     1       0.911  12.709  20.669  0.00  0.00    +0.000 C 
ATOM     12  O   UNL     1       0.476  12.673  21.823  0.00  0.00    +0.000 OA
ATOM     13  C   UNL     1       1.765  14.990  21.076  0.00  0.00    +0.000 C 
ATOM     14  C   UNL     1       3.195  15.472  21.299  0.00  0.00    +0.000 C 
ATOM     15  C   UNL     1       3.741  16.837  19.168  0.00  0.00    +0.000 C 
ATOM     16  O   UNL     1       4.979  17.239  18.513  0.00  0.00    +0.000 OA
ENDROOT
BRANCH   1  19
ATOM     17  C   UNL     1       9.162  12.877  20.515  0.00  0.00    +0.000 C 
ATOM     18  N   UNL     1       9.233  13.603  21.769  0.00  0.00    +0.000 NA
ATOM     19  C   UNL     1       8.644  14.734  21.984  0.00  0.00    +0.000 C 
ATOM     20  N   UNL     1       8.937  15.314  23.190  0.00  0.00    +0.000 N 
ATOM     21  H   UNL     1       9.389  14.652  23.814  0.00  0.00    +0.000 HD
ATOM     22  H   UNL     1       8.200  15.847  23.634  0.00  0.00    +0.000 HD
ENDBRANCH   1  19
BRANCH  11  23
ATOM     23  C   UNL     1       0.618  11.622  19.745  0.00  0.00    +0.000 A 
ATOM     24  C   UNL     1      -0.475  11.435  18.912  0.00  0.00    +0.000 A 
ATOM     25  C   UNL     1      -0.261  10.224  18.208  0.00  0.00    +0.000 A 
ATOM     26  C   UNL     1       0.966   9.765  18.618  0.00  0.00    +0.000 A 
ATOM     27  O   UNL     1       1.523  10.612  19.520  0.00  0.00    +0.000 OA
BRANCH  26  28
ATOM     28  C   UNL     1       1.689   8.606  18.266  0.00  0.00    +0.000 C 
ATOM     29  C   UNL     1       2.308   7.602  18.012  0.00  0.00    +0.000 C 
BRANCH  29  30
ATOM     30  C   UNL     1       3.018   6.391  17.752  0.00  0.00    +0.000 A 
ATOM     31  C   UNL     1       2.391   5.153  17.926  0.00  0.00    +0.000 A 
ATOM     32  C   UNL     1       3.083   3.974  17.638  0.00  0.00    +0.000 A 
ATOM     33  C   UNL     1       4.399   4.030  17.179  0.00  0.00    +0.000 A 
ATOM     34  C   UNL     1       5.027   5.264  17.011  0.00  0.00    +0.000 A 
ATOM     35  C   UNL     1       4.338   6.443  17.297  0.00  0.00    +0.000 A 
ENDBRANCH  29  30
ENDBRANCH  26  28
ENDBRANCH  11  23
TORSDOF 4
ENDMDL
MODEL 6
REMARK VINA RESULT:      -8.0      5.591     11.246
REMARK  Name = 
REMARK  5 active torsions:
REMARK  status: ('A' for Active; 'I' for Inactive)
REMARK    1  A    between atoms: C_1  and  N_2
REMARK    2  A    between atoms: C_3  and  C_5
REMARK    3  A    between atoms: C_15  and  C_17
REMARK    4  A    between atoms: C_20  and  C_21
REMARK    5  A    between atoms: C_22  and  C_23
REMARK                            x       y       z     vdW  Elec       q    Type
REMARK                         _______ _______ _______ _____ _____    ______ ____
ROOT
ATOM      1  C   UNL     1       7.073  15.824  21.475  0.00  0.00    +0.000 A 
ATOM      2  C   UNL     1       7.461  16.850  20.588  0.00  0.00    +0.000 A 
ATOM      3  C   UNL     1       6.529  17.442  19.722  0.00  0.00    +0.000 A 
ATOM      4  C   UNL     1       5.229  16.979  19.752  0.00  0.00    +0.000 A 
ATOM      5  C   UNL     1       4.839  15.974  20.618  0.00  0.00    +0.000 A 
ATOM      6  C   UNL     1       5.736  15.428  21.521  0.00  0.00    +0.000 A 
ATOM      7  C   UNL     1       3.430  15.566  20.325  0.00  0.00    +0.000 C 
ATOM      8  C   UNL     1       3.449  14.319  19.421  0.00  0.00    +0.000 C 
ATOM      9  C   UNL     1       2.059  13.744  19.174  0.00  0.00    +0.000 C 
ATOM     10  N   UNL     1       1.349  13.515  20.429  0.00  0.00    +0.000 N 
ATOM     11  C   UNL     1       0.673  12.331  20.775  0.00  0.00    +0.000 C 
ATOM     12  O   UNL     1       0.225  12.186  21.916  0.00  0.00    +0.000 OA
ATOM     13  C   UNL     1       1.244  14.673  21.312  0.00  0.00    +0.000 C 
ATOM     14  C   UNL     1       2.602  15.308  21.592  0.00  0.00    +0.000 C 
ATOM     15  C   UNL     1       3.021  16.833  19.542  0.00  0.00    +0.000 C 
ATOM     16  O   UNL     1       4.215  17.410  18.937  0.00  0.00    +0.000 OA
ENDROOT
BRANCH   1  19
ATOM     17  C   UNL     1       8.771  13.410  20.867  0.00  0.00    +0.000 C 
ATOM     18  N   UNL     1       8.776  14.114  22.136  0.00  0.00    +0.000 NA
ATOM     19  C   UNL     1       8.087  15.182  22.371  0.00  0.00    +0.000 C 
ATOM     20  N   UNL     1       8.326  15.763  23.589  0.00  0.00    +0.000 N 
ATOM     21  H   UNL     1       8.836  15.133  24.201  0.00  0.00    +0.000 HD
ATOM     22  H   UNL     1       7.543  16.218  24.042  0.00  0.00    +0.000 HD
ENDBRANCH   1  19
BRANCH  11  23
ATOM     23  C   UNL     1       0.529  11.265  19.794  0.00  0.00    +0.000 A 
ATOM     24  C   UNL     1      -0.512  11.002  18.915  0.00  0.00    +0.000 A 
ATOM     25  C   UNL     1      -0.147   9.857  18.165  0.00  0.00    +0.000 A 
ATOM     26  C   UNL     1       1.110   9.513  18.597  0.00  0.00    +0.000 A 
ATOM     27  O   UNL     1       1.544  10.370  19.555  0.00  0.00    +0.000 OA
BRANCH  26  28
ATOM     28  C   UNL     1       1.966   8.457  18.218  0.00  0.00    +0.000 C 
ATOM     29  C   UNL     1       2.658   7.526  17.886  0.00  0.00    +0.000 C 
BRANCH  29  30
ATOM     30  C   UNL     1       3.440   6.410  17.459  0.00  0.00    +0.000 A 
ATOM     31  C   UNL     1       4.599   6.608  16.703  0.00  0.00    +0.000 A 
ATOM     32  C   UNL     1       5.375   5.512  16.317  0.00  0.00    +0.000 A 
ATOM     33  C   UNL     1       4.994   4.221  16.684  0.00  0.00    +0.000 A 
ATOM     34  C   UNL     1       3.835   4.023  17.434  0.00  0.00    +0.000 A 
ATOM     35  C   UNL     1       3.058   5.116  17.821  0.00  0.00    +0.000 A 
ENDBRANCH  29  30
ENDBRANCH  26  28
ENDBRANCH  11  23
TORSDOF 4
ENDMDL
MODEL 7
REMARK VINA RESULT:      -8.0      7.100     12.704
REMARK  Name = 
REMARK  5 active torsions:
REMARK  status: ('A' for Active; 'I' for Inactive)
REMARK    1  A    between atoms: C_1  and  N_2
REMARK    2  A    between atoms: C_3  and  C_5
REMARK    3  A    between atoms: C_15  and  C_17
REMARK    4  A    between atoms: C_20  and  C_21
REMARK    5  A    between atoms: C_22  and  C_23
REMARK                            x       y       z     vdW  Elec       q    Type
REMARK                         _______ _______ _______ _____ _____    ______ ____
ROOT
ATOM      1  C   UNL     1       2.793  16.938  19.987  0.00  0.00    +0.000 A 
ATOM      2  C   UNL     1       2.393  17.201  21.315  0.00  0.00    +0.000 A 
ATOM      3  C   UNL     1       3.343  17.325  22.340  0.00  0.00    +0.000 A 
ATOM      4  C   UNL     1       4.675  17.164  22.014  0.00  0.00    +0.000 A 
ATOM      5  C   UNL     1       5.076  16.906  20.717  0.00  0.00    +0.000 A 
ATOM      6  C   UNL     1       4.152  16.845  19.687  0.00  0.00    +0.000 A 
ATOM      7  C   UNL     1       6.544  16.621  20.683  0.00  0.00    +0.000 C 
ATOM      8  C   UNL     1       6.758  15.095  20.696  0.00  0.00    +0.000 C 
ATOM      9  C   UNL     1       8.220  14.699  20.528  0.00  0.00    +0.000 C 
ATOM     10  N   UNL     1       8.812  15.338  19.356  0.00  0.00    +0.000 N 
ATOM     11  C   UNL     1       9.571  14.680  18.371  0.00  0.00    +0.000 C 
ATOM     12  O   UNL     1       9.907  15.282  17.347  0.00  0.00    +0.000 OA
ATOM     13  C   UNL     1       8.696  16.792  19.308  0.00  0.00    +0.000 C 
ATOM     14  C   UNL     1       7.255  17.260  19.482  0.00  0.00    +0.000 C 
ATOM     15  C   UNL     1       6.895  17.258  22.046  0.00  0.00    +0.000 C 
ATOM     16  O   UNL     1       5.718  17.199  22.903  0.00  0.00    +0.000 OA
ENDROOT
BRANCH   1  19
ATOM     17  C   UNL     1       1.309  14.423  19.243  0.00  0.00    +0.000 C 
ATOM     18  N   UNL     1       1.167  15.690  18.551  0.00  0.00    +0.000 NA
ATOM     19  C   UNL     1       1.764  16.779  18.910  0.00  0.00    +0.000 C 
ATOM     20  N   UNL     1       1.401  17.894  18.201  0.00  0.00    +0.000 N 
ATOM     21  H   UNL     1       0.892  17.641  17.358  0.00  0.00    +0.000 HD
ATOM     22  H   UNL     1       2.117  18.592  18.045  0.00  0.00    +0.000 HD
ENDBRANCH   1  19
BRANCH  11  23
ATOM     23  C   UNL     1       9.934  13.282  18.548  0.00  0.00    +0.000 A 
ATOM     24  C   UNL     1      11.124  12.723  18.993  0.00  0.00    +0.000 A 
ATOM     25  C   UNL     1      10.949  11.317  18.996  0.00  0.00    +0.000 A 
ATOM     26  C   UNL     1       9.654  11.101  18.594  0.00  0.00    +0.000 A 
ATOM     27  O   UNL     1       9.019  12.275  18.351  0.00  0.00    +0.000 OA
BRANCH  26  28
ATOM     28  C   UNL     1       8.928   9.906  18.402  0.00  0.00    +0.000 C 
ATOM     29  C   UNL     1       8.345   8.867  18.211  0.00  0.00    +0.000 C 
BRANCH  29  30
ATOM     30  C   UNL     1       7.701   7.613  17.984  0.00  0.00    +0.000 A 
ATOM     31  C   UNL     1       6.713   7.494  17.001  0.00  0.00    +0.000 A 
ATOM     32  C   UNL     1       6.111   6.256  16.763  0.00  0.00    +0.000 A 
ATOM     33  C   UNL     1       6.493   5.139  17.507  0.00  0.00    +0.000 A 
ATOM     34  C   UNL     1       7.474   5.258  18.491  0.00  0.00    +0.000 A 
ATOM     35  C   UNL     1       8.077   6.493  18.730  0.00  0.00    +0.000 A 
ENDBRANCH  29  30
ENDBRANCH  26  28
ENDBRANCH  11  23
TORSDOF 4
ENDMDL
MODEL 8
REMARK VINA RESULT:      -7.9      6.823     12.730
REMARK  Name = 
REMARK  5 active torsions:
REMARK  status: ('A' for Active; 'I' for Inactive)
REMARK    1  A    between atoms: C_1  and  N_2
REMARK    2  A    between atoms: C_3  and  C_5
REMARK    3  A    between atoms: C_15  and  C_17
REMARK    4  A    between atoms: C_20  and  C_21
REMARK    5  A    between atoms: C_22  and  C_23
REMARK                            x       y       z     vdW  Elec       q    Type
REMARK                         _______ _______ _______ _____ _____    ______ ____
ROOT
ATOM      1  C   UNL     1       2.167  16.444  20.136  0.00  0.00    +0.000 A 
ATOM      2  C   UNL     1       1.721  16.627  21.463  0.00  0.00    +0.000 A 
ATOM      3  C   UNL     1       2.639  16.781  22.513  0.00  0.00    +0.000 A 
ATOM      4  C   UNL     1       3.985  16.730  22.212  0.00  0.00    +0.000 A 
ATOM      5  C   UNL     1       4.431  16.553  20.916  0.00  0.00    +0.000 A 
ATOM      6  C   UNL     1       3.535  16.464  19.863  0.00  0.00    +0.000 A 
ATOM      7  C   UNL     1       5.916  16.378  20.906  0.00  0.00    +0.000 C 
ATOM      8  C   UNL     1       6.242  14.872  20.867  0.00  0.00    +0.000 C 
ATOM      9  C   UNL     1       7.733  14.592  20.719  0.00  0.00    +0.000 C 
ATOM     10  N   UNL     1       8.299  15.316  19.585  0.00  0.00    +0.000 N 
ATOM     11  C   UNL     1       9.125  14.755  18.595  0.00  0.00    +0.000 C 
ATOM     12  O   UNL     1       9.436  15.418  17.601  0.00  0.00    +0.000 OA
ATOM     13  C   UNL     1       8.077  16.759  19.588  0.00  0.00    +0.000 C 
ATOM     14  C   UNL     1       6.602  17.113  19.746  0.00  0.00    +0.000 C 
ATOM     15  C   UNL     1       6.191  16.986  22.299  0.00  0.00    +0.000 C 
ATOM     16  O   UNL     1       5.005  16.809  23.125  0.00  0.00    +0.000 OA
ENDROOT
BRANCH   1  19
ATOM     17  C   UNL     1       0.874  18.587  18.456  0.00  0.00    +0.000 C 
ATOM     18  N   UNL     1       0.576  17.171  18.346  0.00  0.00    +0.000 NA
ATOM     19  C   UNL     1       1.175  16.252  19.030  0.00  0.00    +0.000 C 
ATOM     20  N   UNL     1       0.835  14.969  18.689  0.00  0.00    +0.000 N 
ATOM     21  H   UNL     1      -0.001  14.953  18.111  0.00  0.00    +0.000 HD
ATOM     22  H   UNL     1       0.822  14.284  19.434  0.00  0.00    +0.000 HD
ENDBRANCH   1  19
BRANCH  11  23
ATOM     23  C   UNL     1       9.587  13.381  18.728  0.00  0.00    +0.000 A 
ATOM     24  C   UNL     1      10.791  12.893  19.216  0.00  0.00    +0.000 A 
ATOM     25  C   UNL     1      10.728  11.479  19.145  0.00  0.00    +0.000 A 
ATOM     26  C   UNL     1       9.478  11.185  18.659  0.00  0.00    +0.000 A 
ATOM     27  O   UNL     1       8.767  12.318  18.433  0.00  0.00    +0.000 OA
BRANCH  26  28
ATOM     28  C   UNL     1       8.861   9.949  18.370  0.00  0.00    +0.000 C 
ATOM     29  C   UNL     1       8.357   8.873  18.161  0.00  0.00    +0.000 C 
BRANCH  29  30
ATOM     30  C   UNL     1       7.763   7.590  17.965  0.00  0.00    +0.000 A 
ATOM     31  C   UNL     1       6.856   7.383  16.921  0.00  0.00    +0.000 A 
ATOM     32  C   UNL     1       6.305   6.116  16.716  0.00  0.00    +0.000 A 
ATOM     33  C   UNL     1       6.656   5.057  17.554  0.00  0.00    +0.000 A 
ATOM     34  C   UNL     1       7.555   5.264  18.599  0.00  0.00    +0.000 A 
ATOM     35  C   UNL     1       8.109   6.528  18.805  0.00  0.00    +0.000 A 
ENDBRANCH  29  30
ENDBRANCH  26  28
ENDBRANCH  11  23
TORSDOF 4
ENDMDL
MODEL 9
REMARK VINA RESULT:      -7.8      6.388     12.349
REMARK  Name = 
REMARK  5 active torsions:
REMARK  status: ('A' for Active; 'I' for Inactive)
REMARK    1  A    between atoms: C_1  and  N_2
REMARK    2  A    between atoms: C_3  and  C_5
REMARK    3  A    between atoms: C_15  and  C_17
REMARK    4  A    between atoms: C_20  and  C_21
REMARK    5  A    between atoms: C_22  and  C_23
REMARK                            x       y       z     vdW  Elec       q    Type
REMARK                         _______ _______ _______ _____ _____    ______ ____
ROOT
ATOM      1  C   UNL     1       1.171  15.555  20.118  0.00  0.00    +0.000 A 
ATOM      2  C   UNL     1       0.734  15.726  21.448  0.00  0.00    +0.000 A 
ATOM      3  C   UNL     1       1.635  16.098  22.457  0.00  0.00    +0.000 A 
ATOM      4  C   UNL     1       2.960  16.275  22.113  0.00  0.00    +0.000 A 
ATOM      5  C   UNL     1       3.397  16.111  20.812  0.00  0.00    +0.000 A 
ATOM      6  C   UNL     1       2.505  15.806  19.797  0.00  0.00    +0.000 A 
ATOM      7  C   UNL     1       4.888  16.207  20.758  0.00  0.00    +0.000 C 
ATOM      8  C   UNL     1       5.481  14.784  20.781  0.00  0.00    +0.000 C 
ATOM      9  C   UNL     1       6.994  14.769  20.595  0.00  0.00    +0.000 C 
ATOM     10  N   UNL     1       7.390  15.522  19.408  0.00  0.00    +0.000 N 
ATOM     11  C   UNL     1       8.278  15.066  18.418  0.00  0.00    +0.000 C 
ATOM     12  O   UNL     1       8.438  15.720  17.383  0.00  0.00    +0.000 OA
ATOM     13  C   UNL     1       6.909  16.899  19.349  0.00  0.00    +0.000 C 
ATOM     14  C   UNL     1       5.399  16.990  19.541  0.00  0.00    +0.000 C 
ATOM     15  C   UNL     1       5.084  16.928  22.110  0.00  0.00    +0.000 C 
ATOM     16  O   UNL     1       3.971  16.584  22.985  0.00  0.00    +0.000 OA
ENDROOT
BRANCH   1  19
ATOM     17  C   UNL     1       0.738  12.765  19.064  0.00  0.00    +0.000 C 
ATOM     18  N   UNL     1       0.054  13.943  18.564  0.00  0.00    +0.000 NA
ATOM     19  C   UNL     1       0.202  15.128  19.058  0.00  0.00    +0.000 C 
ATOM     20  N   UNL     1      -0.627  16.080  18.524  0.00  0.00    +0.000 N 
ATOM     21  H   UNL     1      -1.063  15.748  17.669  0.00  0.00    +0.000 HD
ATOM     22  H   UNL     1      -0.258  17.020  18.450  0.00  0.00    +0.000 HD
ENDBRANCH   1  19
BRANCH  11  23
ATOM     23  C   UNL     1       8.986  13.808  18.601  0.00  0.00    +0.000 A 
ATOM     24  C   UNL     1      10.267  13.570  19.079  0.00  0.00    +0.000 A 
ATOM     25  C   UNL     1      10.462  12.167  19.073  0.00  0.00    +0.000 A 
ATOM     26  C   UNL     1       9.278  11.627  18.634  0.00  0.00    +0.000 A 
ATOM     27  O   UNL     1       8.368  12.600  18.376  0.00  0.00    +0.000 OA
BRANCH  26  28
ATOM     28  C   UNL     1       8.891  10.287  18.417  0.00  0.00    +0.000 C 
ATOM     29  C   UNL     1       8.528   9.147  18.268  0.00  0.00    +0.000 C 
BRANCH  29  30
ATOM     30  C   UNL     1       8.049   7.811  18.104  0.00  0.00    +0.000 A 
ATOM     31  C   UNL     1       8.345   6.833  19.058  0.00  0.00    +0.000 A 
ATOM     32  C   UNL     1       7.845   5.537  18.907  0.00  0.00    +0.000 A 
ATOM     33  C   UNL     1       7.052   5.218  17.804  0.00  0.00    +0.000 A 
ATOM     34  C   UNL     1       6.761   6.192  16.850  0.00  0.00    +0.000 A 
ATOM     35  C   UNL     1       7.258   7.487  16.999  0.00  0.00    +0.000 A 
ENDBRANCH  29  30
ENDBRANCH  26  28
ENDBRANCH  11  23
TORSDOF 4
ENDMDL
