MODEL 1
REMARK VINA RESULT:      -6.1      0.000      0.000
REMARK  Name = 
REMARK  7 active torsions:
REMARK  status: ('A' for Active; 'I' for Inactive)
REMARK    1  A    between atoms: C_1  and  N_2
REMARK    2  A    between atoms: C_5  and  O_6
REMARK    3  A    between atoms: N_10  and  C_11
REMARK    4  A    between atoms: C_11  and  O_12
REMARK    5  A    between atoms: O_12  and  C_13
REMARK    6  A    between atoms: C_13  and  C_14
REMARK    7  A    between atoms: C_14  and  O_15
REMARK                            x       y       z     vdW  Elec       q    Type
REMARK                         _______ _______ _______ _____ _____    ______ ____
ROOT
ATOM      1  C   UNL     1       0.539   2.389  19.189  0.00  0.00    +0.000 C 
ATOM      2  N   UNL     1       1.280   3.056  18.141  0.00  0.00    +0.000 N 
ATOM      3  C   UNL     1       2.597   3.372  18.446  0.00  0.00    +0.000 A 
ATOM      4  N   UNL     1       3.264   2.585  19.316  0.00  0.00    +0.000 NA
ATOM      5  C   UNL     1       4.553   2.860  19.562  0.00  0.00    +0.000 A 
ATOM      6  C   UNL     1       5.194   3.924  18.942  0.00  0.00    +0.000 A 
ATOM      7  N   UNL     1       6.475   4.425  18.992  0.00  0.00    +0.000 NA
ATOM      8  C   UNL     1       6.464   5.448  18.165  0.00  0.00    +0.000 A 
ATOM      9  N   UNL     1       5.228   5.641  17.602  0.00  0.00    +0.000 N 
ATOM     10  C   UNL     1       4.399   4.668  18.088  0.00  0.00    +0.000 A 
ATOM     11  N   UNL     1       3.096   4.453  17.811  0.00  0.00    +0.000 NA
ATOM     12  H   UNL     1       0.847   3.881  17.746  0.00  0.00    +0.000 HD
ENDROOT
BRANCH   5  13
ATOM     13  O   UNL     1       5.158   2.011  20.446  0.00  0.00    +0.000 OA
ATOM     14  H   UNL     1       4.385   1.679  20.933  0.00  0.00    +0.000 HD
ENDBRANCH   5  13
BRANCH   9  15
ATOM     15  C   UNL     1       4.880   6.731  16.714  0.00  0.00    +0.000 C 
BRANCH  15  16
ATOM     16  O   UNL     1       5.694   6.648  15.540  0.00  0.00    +0.000 OA
BRANCH  16  17
ATOM     17  C   UNL     1       5.419   5.454  14.794  0.00  0.00    +0.000 C 
BRANCH  17  18
ATOM     18  C   UNL     1       6.730   4.727  14.493  0.00  0.00    +0.000 C 
BRANCH  18  19
ATOM     19  O   UNL     1       7.849   5.566  14.760  0.00  0.00    +0.000 OA
ATOM     20  H   UNL     1       8.529   4.993  15.160  0.00  0.00    +0.000 HD
ENDBRANCH  18  19
ENDBRANCH  17  18
ENDBRANCH  16  17
ENDBRANCH  15  16
ENDBRANCH   9  15
TORSDOF 6
ENDMDL
MODEL 2
REMARK VINA RESULT:      -6.1      2.323      5.225
REMARK  Name = 
REMARK  7 active torsions:
REMARK  status: ('A' for Active; 'I' for Inactive)
REMARK    1  A    between atoms: C_1  and  N_2
REMARK    2  A    between atoms: C_5  and  O_6
REMARK    3  A    between atoms: N_10  and  C_11
REMARK    4  A    between atoms: C_11  and  O_12
REMARK    5  A    between atoms: O_12  and  C_13
REMARK    6  A    between atoms: C_13  and  C_14
REMARK    7  A    between atoms: C_14  and  O_15
REMARK                            x       y       z     vdW  Elec       q    Type
REMARK                         _______ _______ _______ _____ _____    ______ ____
ROOT
ATOM      1  C   UNL     1       6.267   3.593  13.172  0.00  0.00    +0.000 C 
ATOM      2  N   UNL     1       5.354   4.424  13.926  0.00  0.00    +0.000 N 
ATOM      3  C   UNL     1       5.560   4.449  15.300  0.00  0.00    +0.000 A 
ATOM      4  N   UNL     1       6.813   4.268  15.766  0.00  0.00    +0.000 NA
ATOM      5  C   UNL     1       7.017   4.351  17.089  0.00  0.00    +0.000 A 
ATOM      6  C   UNL     1       5.972   4.616  17.963  0.00  0.00    +0.000 A 
ATOM      7  N   UNL     1       5.886   4.765  19.329  0.00  0.00    +0.000 NA
ATOM      8  C   UNL     1       4.616   5.016  19.557  0.00  0.00    +0.000 A 
ATOM      9  N   UNL     1       3.876   5.014  18.402  0.00  0.00    +0.000 N 
ATOM     10  C   UNL     1       4.732   4.762  17.366  0.00  0.00    +0.000 A 
ATOM     11  N   UNL     1       4.460   4.675  16.047  0.00  0.00    +0.000 NA
ATOM     12  H   UNL     1       4.368   4.262  13.765  0.00  0.00    +0.000 HD
ENDROOT
BRANCH   5  13
ATOM     13  O   UNL     1       8.313   4.165  17.478  0.00  0.00    +0.000 OA
ATOM     14  H   UNL     1       8.649   3.632  16.737  0.00  0.00    +0.000 HD
ENDBRANCH   5  13
BRANCH   9  15
ATOM     15  C   UNL     1       2.438   5.179  18.335  0.00  0.00    +0.000 C 
BRANCH  15  16
ATOM     16  O   UNL     1       1.815   3.953  18.731  0.00  0.00    +0.000 OA
BRANCH  16  17
ATOM     17  C   UNL     1       1.255   4.049  20.048  0.00  0.00    +0.000 C 
BRANCH  17  18
ATOM     18  C   UNL     1       1.589   2.784  20.838  0.00  0.00    +0.000 C 
BRANCH  18  19
ATOM     19  O   UNL     1       2.052   3.109  22.145  0.00  0.00    +0.000 OA
ATOM     20  H   UNL     1       1.964   4.076  22.232  0.00  0.00    +0.000 HD
ENDBRANCH  18  19
ENDBRANCH  17  18
ENDBRANCH  16  17
ENDBRANCH  15  16
ENDBRANCH   9  15
TORSDOF 6
ENDMDL
MODEL 3
REMARK VINA RESULT:      -6.0      2.433      5.069
REMARK  Name = 
REMARK  7 active torsions:
REMARK  status: ('A' for Active; 'I' for Inactive)
REMARK    1  A    between atoms: C_1  and  N_2
REMARK    2  A    between atoms: C_5  and  O_6
REMARK    3  A    between atoms: N_10  and  C_11
REMARK    4  A    between atoms: C_11  and  O_12
REMARK    5  A    between atoms: O_12  and  C_13
REMARK    6  A    between atoms: C_13  and  C_14
REMARK    7  A    between atoms: C_14  and  O_15
REMARK                            x       y       z     vdW  Elec       q    Type
REMARK                         _______ _______ _______ _____ _____    ______ ____
ROOT
ATOM      1  C   UNL     1       7.242   4.590  13.328  0.00  0.00    +0.000 C 
ATOM      2  N   UNL     1       6.350   5.436  14.091  0.00  0.00    +0.000 N 
ATOM      3  C   UNL     1       6.306   5.185  15.456  0.00  0.00    +0.000 A 
ATOM      4  N   UNL     1       7.408   4.692  16.056  0.00  0.00    +0.000 NA
ATOM      5  C   UNL     1       7.380   4.506  17.385  0.00  0.00    +0.000 A 
ATOM      6  C   UNL     1       6.249   4.811  18.130  0.00  0.00    +0.000 A 
ATOM      7  N   UNL     1       5.942   4.736  19.470  0.00  0.00    +0.000 NA
ATOM      8  C   UNL     1       4.707   5.181  19.553  0.00  0.00    +0.000 A 
ATOM      9  N   UNL     1       4.198   5.519  18.325  0.00  0.00    +0.000 N 
ATOM     10  C   UNL     1       5.177   5.291  17.397  0.00  0.00    +0.000 A 
ATOM     11  N   UNL     1       5.138   5.484  16.062  0.00  0.00    +0.000 NA
ATOM     12  H   UNL     1       5.397   5.495  13.756  0.00  0.00    +0.000 HD
ENDROOT
BRANCH   5  13
ATOM     13  O   UNL     1       8.538   4.014  17.916  0.00  0.00    +0.000 OA
ATOM     14  H   UNL     1       9.037   3.816  17.106  0.00  0.00    +0.000 HD
ENDBRANCH   5  13
BRANCH   9  15
ATOM     15  C   UNL     1       2.841   5.963  18.081  0.00  0.00    +0.000 C 
BRANCH  15  16
ATOM     16  O   UNL     1       1.949   5.177  18.877  0.00  0.00    +0.000 OA
BRANCH  16  17
ATOM     17  C   UNL     1       1.540   3.987  18.188  0.00  0.00    +0.000 C 
BRANCH  17  18
ATOM     18  C   UNL     1       1.489   2.819  19.173  0.00  0.00    +0.000 C 
BRANCH  18  19
ATOM     19  O   UNL     1       1.182   1.602  18.500  0.00  0.00    +0.000 OA
ATOM     20  H   UNL     1       0.229   1.636  18.297  0.00  0.00    +0.000 HD
ENDBRANCH  18  19
ENDBRANCH  17  18
ENDBRANCH  16  17
ENDBRANCH  15  16
ENDBRANCH   9  15
TORSDOF 6
ENDMDL
MODEL 4
REMARK VINA RESULT:      -5.9      2.216      5.516
REMARK  Name = 
REMARK  7 active torsions:
REMARK  status: ('A' for Active; 'I' for Inactive)
REMARK    1  A    between atoms: C_1  and  N_2
REMARK    2  A    between atoms: C_5  and  O_6
REMARK    3  A    between atoms: N_10  and  C_11
REMARK    4  A    between atoms: C_11  and  O_12
REMARK    5  A    between atoms: O_12  and  C_13
REMARK    6  A    between atoms: C_13  and  C_14
REMARK    7  A    between atoms: C_14  and  O_15
REMARK                            x       y       z     vdW  Elec       q    Type
REMARK                         _______ _______ _______ _____ _____    ______ ____
ROOT
ATOM      1  C   UNL     1       7.609   5.017  13.709  0.00  0.00    +0.000 C 
ATOM      2  N   UNL     1       6.296   5.168  14.296  0.00  0.00    +0.000 N 
ATOM      3  C   UNL     1       6.187   4.791  15.628  0.00  0.00    +0.000 A 
ATOM      4  N   UNL     1       7.271   4.906  16.421  0.00  0.00    +0.000 NA
ATOM      5  C   UNL     1       7.146   4.595  17.720  0.00  0.00    +0.000 A 
ATOM      6  C   UNL     1       5.933   4.166  18.243  0.00  0.00    +0.000 A 
ATOM      7  N   UNL     1       5.516   3.799  19.502  0.00  0.00    +0.000 NA
ATOM      8  C   UNL     1       4.243   3.501  19.356  0.00  0.00    +0.000 A 
ATOM      9  N   UNL     1       3.828   3.640  18.056  0.00  0.00    +0.000 N 
ATOM     10  C   UNL     1       4.901   4.071  17.326  0.00  0.00    +0.000 A 
ATOM     11  N   UNL     1       4.968   4.352  16.008  0.00  0.00    +0.000 NA
ATOM     12  H   UNL     1       5.530   4.742  13.790  0.00  0.00    +0.000 HD
ENDROOT
BRANCH   5  13
ATOM     13  O   UNL     1       8.287   4.747  18.455  0.00  0.00    +0.000 OA
ATOM     14  H   UNL     1       8.588   3.825  18.513  0.00  0.00    +0.000 HD
ENDBRANCH   5  13
BRANCH   9  15
ATOM     15  C   UNL     1       2.505   3.311  17.566  0.00  0.00    +0.000 C 
BRANCH  15  16
ATOM     16  O   UNL     1       1.955   2.275  18.385  0.00  0.00    +0.000 OA
BRANCH  16  17
ATOM     17  C   UNL     1       0.634   2.606  18.836  0.00  0.00    +0.000 C 
BRANCH  17  18
ATOM     18  C   UNL     1       0.727   3.519  20.059  0.00  0.00    +0.000 C 
BRANCH  18  19
ATOM     19  O   UNL     1       0.985   2.764  21.238  0.00  0.00    +0.000 OA
ATOM     20  H   UNL     1       1.944   2.587  21.243  0.00  0.00    +0.000 HD
ENDBRANCH  18  19
ENDBRANCH  17  18
ENDBRANCH  16  17
ENDBRANCH  15  16
ENDBRANCH   9  15
TORSDOF 6
ENDMDL
MODEL 5
REMARK VINA RESULT:      -5.9      2.353      5.706
REMARK  Name = 
REMARK  7 active torsions:
REMARK  status: ('A' for Active; 'I' for Inactive)
REMARK    1  A    between atoms: C_1  and  N_2
REMARK    2  A    between atoms: C_5  and  O_6
REMARK    3  A    between atoms: N_10  and  C_11
REMARK    4  A    between atoms: C_11  and  O_12
REMARK    5  A    between atoms: O_12  and  C_13
REMARK    6  A    between atoms: C_13  and  C_14
REMARK    7  A    between atoms: C_14  and  O_15
REMARK                            x       y       z     vdW  Elec       q    Type
REMARK                         _______ _______ _______ _____ _____    ______ ____
ROOT
ATOM      1  C   UNL     1       6.864   4.085  12.898  0.00  0.00    +0.000 C 
ATOM      2  N   UNL     1       5.750   3.909  13.804  0.00  0.00    +0.000 N 
ATOM      3  C   UNL     1       5.941   4.393  15.092  0.00  0.00    +0.000 A 
ATOM      4  N   UNL     1       6.763   5.447  15.268  0.00  0.00    +0.000 NA
ATOM      5  C   UNL     1       6.899   5.948  16.505  0.00  0.00    +0.000 A 
ATOM      6  C   UNL     1       6.215   5.401  17.582  0.00  0.00    +0.000 A 
ATOM      7  N   UNL     1       6.153   5.703  18.924  0.00  0.00    +0.000 NA
ATOM      8  C   UNL     1       5.316   4.820  19.424  0.00  0.00    +0.000 A 
ATOM      9  N   UNL     1       4.854   3.950  18.469  0.00  0.00    +0.000 N 
ATOM     10  C   UNL     1       5.419   4.311  17.277  0.00  0.00    +0.000 A 
ATOM     11  N   UNL     1       5.253   3.752  16.059  0.00  0.00    +0.000 NA
ATOM     12  H   UNL     1       5.381   2.969  13.878  0.00  0.00    +0.000 HD
ENDROOT
BRANCH   5  13
ATOM     13  O   UNL     1       7.741   7.020  16.596  0.00  0.00    +0.000 OA
ATOM     14  H   UNL     1       8.454   6.643  17.139  0.00  0.00    +0.000 HD
ENDBRANCH   5  13
BRANCH   9  15
ATOM     15  C   UNL     1       3.985   2.820  18.724  0.00  0.00    +0.000 C 
BRANCH  15  16
ATOM     16  O   UNL     1       2.872   3.263  19.508  0.00  0.00    +0.000 OA
BRANCH  16  17
ATOM     17  C   UNL     1       2.905   2.705  20.830  0.00  0.00    +0.000 C 
BRANCH  17  18
ATOM     18  C   UNL     1       1.490   2.677  21.407  0.00  0.00    +0.000 C 
BRANCH  18  19
ATOM     19  O   UNL     1       0.586   3.390  20.569  0.00  0.00    +0.000 OA
ATOM     20  H   UNL     1      -0.182   2.804  20.436  0.00  0.00    +0.000 HD
ENDBRANCH  18  19
ENDBRANCH  17  18
ENDBRANCH  16  17
ENDBRANCH  15  16
ENDBRANCH   9  15
TORSDOF 6
ENDMDL
MODEL 6
REMARK VINA RESULT:      -5.8      2.519      3.336
REMARK  Name = 
REMARK  7 active torsions:
REMARK  status: ('A' for Active; 'I' for Inactive)
REMARK    1  A    between atoms: C_1  and  N_2
REMARK    2  A    between atoms: C_5  and  O_6
REMARK    3  A    between atoms: N_10  and  C_11
REMARK    4  A    between atoms: C_11  and  O_12
REMARK    5  A    between atoms: O_12  and  C_13
REMARK    6  A    between atoms: C_13  and  C_14
REMARK    7  A    between atoms: C_14  and  O_15
REMARK                            x       y       z     vdW  Elec       q    Type
REMARK                         _______ _______ _______ _____ _____    ______ ____
ROOT
ATOM      1  C   UNL     1       1.628   7.777  21.134  0.00  0.00    +0.000 C 
ATOM      2  N   UNL     1       2.031   7.315  19.824  0.00  0.00    +0.000 N 
ATOM      3  C   UNL     1       2.196   5.942  19.696  0.00  0.00    +0.000 A 
ATOM      4  N   UNL     1       1.451   5.129  20.472  0.00  0.00    +0.000 NA
ATOM      5  C   UNL     1       1.571   3.804  20.305  0.00  0.00    +0.000 A 
ATOM      6  C   UNL     1       2.437   3.274  19.358  0.00  0.00    +0.000 A 
ATOM      7  N   UNL     1       2.753   1.992  18.967  0.00  0.00    +0.000 NA
ATOM      8  C   UNL     1       3.641   2.146  18.010  0.00  0.00    +0.000 A 
ATOM      9  N   UNL     1       3.928   3.468  17.782  0.00  0.00    +0.000 N 
ATOM     10  C   UNL     1       3.160   4.209  18.638  0.00  0.00    +0.000 A 
ATOM     11  N   UNL     1       3.096   5.550  18.770  0.00  0.00    +0.000 NA
ATOM     12  H   UNL     1       2.846   7.763  19.425  0.00  0.00    +0.000 HD
ENDROOT
BRANCH   5  13
ATOM     13  O   UNL     1       0.776   3.052  21.123  0.00  0.00    +0.000 OA
ATOM     14  H   UNL     1       0.721   3.630  21.902  0.00  0.00    +0.000 HD
ENDBRANCH   5  13
BRANCH   9  15
ATOM     15  C   UNL     1       4.923   3.955  16.848  0.00  0.00    +0.000 C 
BRANCH  15  16
ATOM     16  O   UNL     1       6.037   4.464  17.588  0.00  0.00    +0.000 OA
BRANCH  16  17
ATOM     17  C   UNL     1       7.224   4.513  16.783  0.00  0.00    +0.000 C 
BRANCH  17  18
ATOM     18  C   UNL     1       6.837   4.613  15.308  0.00  0.00    +0.000 C 
BRANCH  18  19
ATOM     19  O   UNL     1       7.748   5.448  14.599  0.00  0.00    +0.000 OA
ATOM     20  H   UNL     1       7.665   5.204  13.659  0.00  0.00    +0.000 HD
ENDBRANCH  18  19
ENDBRANCH  17  18
ENDBRANCH  16  17
ENDBRANCH  15  16
ENDBRANCH   9  15
TORSDOF 6
ENDMDL
MODEL 7
REMARK VINA RESULT:      -5.8      2.280      2.620
REMARK  Name = 
REMARK  7 active torsions:
REMARK  status: ('A' for Active; 'I' for Inactive)
REMARK    1  A    between atoms: C_1  and  N_2
REMARK    2  A    between atoms: C_5  and  O_6
REMARK    3  A    between atoms: N_10  and  C_11
REMARK    4  A    between atoms: C_11  and  O_12
REMARK    5  A    between atoms: O_12  and  C_13
REMARK    6  A    between atoms: C_13  and  C_14
REMARK    7  A    between atoms: C_14  and  O_15
REMARK                            x       y       z     vdW  Elec       q    Type
REMARK                         _______ _______ _______ _____ _____    ______ ____
ROOT
ATOM      1  C   UNL     1       1.098   2.091  18.749  0.00  0.00    +0.000 C 
ATOM      2  N   UNL     1       2.443   1.938  18.239  0.00  0.00    +0.000 N 
ATOM      3  C   UNL     1       3.198   3.102  18.178  0.00  0.00    +0.000 A 
ATOM      4  N   UNL     1       2.948   4.079  19.073  0.00  0.00    +0.000 NA
ATOM      5  C   UNL     1       3.718   5.177  19.048  0.00  0.00    +0.000 A 
ATOM      6  C   UNL     1       4.748   5.312  18.127  0.00  0.00    +0.000 A 
ATOM      7  N   UNL     1       5.682   6.293  17.879  0.00  0.00    +0.000 NA
ATOM      8  C   UNL     1       6.394   5.828  16.876  0.00  0.00    +0.000 A 
ATOM      9  N   UNL     1       5.948   4.601  16.454  0.00  0.00    +0.000 N 
ATOM     10  C   UNL     1       4.892   4.252  17.249  0.00  0.00    +0.000 A 
ATOM     11  N   UNL     1       4.142   3.131  17.214  0.00  0.00    +0.000 NA
ATOM     12  H   UNL     1       2.531   1.465  17.348  0.00  0.00    +0.000 HD
ENDROOT
BRANCH   5  13
ATOM     13  O   UNL     1       3.406   6.114  19.992  0.00  0.00    +0.000 OA
ATOM     14  H   UNL     1       2.497   5.850  20.214  0.00  0.00    +0.000 HD
ENDBRANCH   5  13
BRANCH   9  15
ATOM     15  C   UNL     1       6.476   3.869  15.321  0.00  0.00    +0.000 C 
BRANCH  15  16
ATOM     16  O   UNL     1       5.651   4.129  14.181  0.00  0.00    +0.000 OA
BRANCH  16  17
ATOM     17  C   UNL     1       6.312   3.766  12.960  0.00  0.00    +0.000 C 
BRANCH  17  18
ATOM     18  C   UNL     1       5.313   3.093  12.019  0.00  0.00    +0.000 C 
BRANCH  18  19
ATOM     19  O   UNL     1       5.780   1.810  11.617  0.00  0.00    +0.000 OA
ATOM     20  H   UNL     1       6.646   1.956  11.193  0.00  0.00    +0.000 HD
ENDBRANCH  18  19
ENDBRANCH  17  18
ENDBRANCH  16  17
ENDBRANCH  15  16
ENDBRANCH   9  15
TORSDOF 6
ENDMDL
MODEL 8
REMARK VINA RESULT:      -5.8      2.165      2.878
REMARK  Name = 
REMARK  7 active torsions:
REMARK  status: ('A' for Active; 'I' for Inactive)
REMARK    1  A    between atoms: C_1  and  N_2
REMARK    2  A    between atoms: C_5  and  O_6
REMARK    3  A    between atoms: N_10  and  C_11
REMARK    4  A    between atoms: C_11  and  O_12
REMARK    5  A    between atoms: O_12  and  C_13
REMARK    6  A    between atoms: C_13  and  C_14
REMARK    7  A    between atoms: C_14  and  O_15
REMARK                            x       y       z     vdW  Elec       q    Type
REMARK                         _______ _______ _______ _____ _____    ______ ____
ROOT
ATOM      1  C   UNL     1       2.220   4.001  21.692  0.00  0.00    +0.000 C 
ATOM      2  N   UNL     1       2.555   5.055  20.759  0.00  0.00    +0.000 N 
ATOM      3  C   UNL     1       3.089   4.637  19.547  0.00  0.00    +0.000 A 
ATOM      4  N   UNL     1       2.723   3.432  19.064  0.00  0.00    +0.000 NA
ATOM      5  C   UNL     1       3.194   3.058  17.865  0.00  0.00    +0.000 A 
ATOM      6  C   UNL     1       4.038   3.883  17.134  0.00  0.00    +0.000 A 
ATOM      7  N   UNL     1       4.652   3.771  15.907  0.00  0.00    +0.000 NA
ATOM      8  C   UNL     1       5.320   4.895  15.766  0.00  0.00    +0.000 A 
ATOM      9  N   UNL     1       5.181   5.716  16.856  0.00  0.00    +0.000 N 
ATOM     10  C   UNL     1       4.357   5.083  17.745  0.00  0.00    +0.000 A 
ATOM     11  N   UNL     1       3.929   5.509  18.952  0.00  0.00    +0.000 NA
ATOM     12  H   UNL     1       3.145   5.795  21.118  0.00  0.00    +0.000 HD
ENDROOT
BRANCH   5  13
ATOM     13  O   UNL     1       2.769   1.830  17.444  0.00  0.00    +0.000 OA
ATOM     14  H   UNL     1       2.894   1.916  16.484  0.00  0.00    +0.000 HD
ENDBRANCH   5  13
BRANCH   9  15
ATOM     15  C   UNL     1       5.857   6.985  17.033  0.00  0.00    +0.000 C 
BRANCH  15  16
ATOM     16  O   UNL     1       7.270   6.764  16.983  0.00  0.00    +0.000 OA
BRANCH  16  17
ATOM     17  C   UNL     1       7.887   7.018  18.253  0.00  0.00    +0.000 C 
BRANCH  17  18
ATOM     18  C   UNL     1       7.784   5.770  19.130  0.00  0.00    +0.000 C 
BRANCH  18  19
ATOM     19  O   UNL     1       7.984   4.590  18.358  0.00  0.00    +0.000 OA
ATOM     20  H   UNL     1       8.467   4.868  17.557  0.00  0.00    +0.000 HD
ENDBRANCH  18  19
ENDBRANCH  17  18
ENDBRANCH  16  17
ENDBRANCH  15  16
ENDBRANCH   9  15
TORSDOF 6
ENDMDL
MODEL 9
REMARK VINA RESULT:      -5.8      2.778      3.627
REMARK  Name = 
REMARK  7 active torsions:
REMARK  status: ('A' for Active; 'I' for Inactive)
REMARK    1  A    between atoms: C_1  and  N_2
REMARK    2  A    between atoms: C_5  and  O_6
REMARK    3  A    between atoms: N_10  and  C_11
REMARK    4  A    between atoms: C_11  and  O_12
REMARK    5  A    between atoms: O_12  and  C_13
REMARK    6  A    between atoms: C_13  and  C_14
REMARK    7  A    between atoms: C_14  and  O_15
REMARK                            x       y       z     vdW  Elec       q    Type
REMARK                         _______ _______ _______ _____ _____    ______ ____
ROOT
ATOM      1  C   UNL     1       1.414   7.966  21.371  0.00  0.00    +0.000 C 
ATOM      2  N   UNL     1       2.070   7.567  20.145  0.00  0.00    +0.000 N 
ATOM      3  C   UNL     1       2.301   6.205  20.004  0.00  0.00    +0.000 A 
ATOM      4  N   UNL     1       1.452   5.342  20.599  0.00  0.00    +0.000 NA
ATOM      5  C   UNL     1       1.646   4.028  20.412  0.00  0.00    +0.000 A 
ATOM      6  C   UNL     1       2.690   3.559  19.628  0.00  0.00    +0.000 A 
ATOM      7  N   UNL     1       3.116   2.302  19.259  0.00  0.00    +0.000 NA
ATOM      8  C   UNL     1       4.162   2.518  18.492  0.00  0.00    +0.000 A 
ATOM      9  N   UNL     1       4.442   3.855  18.367  0.00  0.00    +0.000 N 
ATOM     10  C   UNL     1       3.504   4.540  19.088  0.00  0.00    +0.000 A 
ATOM     11  N   UNL     1       3.371   5.873  19.251  0.00  0.00    +0.000 NA
ATOM     12  H   UNL     1       2.930   8.051  19.921  0.00  0.00    +0.000 HD
ENDROOT
BRANCH   5  13
ATOM     13  O   UNL     1       0.738   3.224  21.040  0.00  0.00    +0.000 OA
ATOM     14  H   UNL     1       0.573   2.562  20.347  0.00  0.00    +0.000 HD
ENDBRANCH   5  13
BRANCH   9  15
ATOM     15  C   UNL     1       5.577   4.404  17.654  0.00  0.00    +0.000 C 
BRANCH  15  16
ATOM     16  O   UNL     1       6.677   4.523  18.562  0.00  0.00    +0.000 OA
BRANCH  16  17
ATOM     17  C   UNL     1       7.201   5.859  18.581  0.00  0.00    +0.000 C 
BRANCH  17  18
ATOM     18  C   UNL     1       7.295   6.390  17.150  0.00  0.00    +0.000 C 
BRANCH  18  19
ATOM     19  O   UNL     1       7.581   7.785  17.145  0.00  0.00    +0.000 OA
ATOM     20  H   UNL     1       6.744   8.235  17.366  0.00  0.00    +0.000 HD
ENDBRANCH  18  19
ENDBRANCH  17  18
ENDBRANCH  16  17
ENDBRANCH  15  16
ENDBRANCH   9  15
TORSDOF 6
ENDMDL
