MODEL 1
REMARK VINA RESULT:      -7.5      0.000      0.000
REMARK  Name = 
REMARK  3 active torsions:
REMARK  status: ('A' for Active; 'I' for Inactive)
REMARK    1  A    between atoms: C_1  and  C_2
REMARK    2  A    between atoms: C_2  and  C_4
REMARK    3  A    between atoms: N_9  and  C_10
REMARK                            x       y       z     vdW  Elec       q    Type
REMARK                         _______ _______ _______ _____ _____    ______ ____
ROOT
ATOM      1  C   UNL     1       5.888   3.992  16.347  0.00  0.00    +0.000 C 
ATOM      2  C   UNL     1       6.745   4.559  17.418  0.00  0.00    +0.000 C 
ATOM      3  O   UNL     1       7.925   4.853  17.308  0.00  0.00    +0.000 OA
ATOM      4  C   UNL     1       5.960   4.650  18.633  0.00  0.00    +0.000 C 
ATOM      5  O   UNL     1       6.419   5.022  19.702  0.00  0.00    +0.000 OA
ATOM      6  N   UNL     1       4.696   4.194  18.437  0.00  0.00    +0.000 N 
ATOM      7  C   UNL     1       4.598   3.826  17.119  0.00  0.00    +0.000 C 
ATOM      8  O   UNL     1       3.580   3.389  16.605  0.00  0.00    +0.000 OA
ENDROOT
BRANCH   6   9
ATOM      9  C   UNL     1       3.673   4.060  19.462  0.00  0.00    +0.000 A 
ATOM     10  C   UNL     1       3.530   2.869  20.220  0.00  0.00    +0.000 A 
ATOM     11  C   UNL     1       2.505   2.721  21.160  0.00  0.00    +0.000 A 
ATOM     12  C   UNL     1       1.595   3.752  21.373  0.00  0.00    +0.000 A 
ATOM     13  C   UNL     1       1.714   4.938  20.656  0.00  0.00    +0.000 A 
ATOM     14  C   UNL     1       2.738   5.098  19.715  0.00  0.00    +0.000 A 
ENDBRANCH   6   9
BRANCH   1  16
ATOM     15  C   UNL     1       6.097   4.390  13.787  0.00  0.00    +0.000 C 
ATOM     16  C   UNL     1       5.799   4.918  15.161  0.00  0.00    +0.000 C 
ATOM     17  O   UNL     1       5.524   6.099  15.315  0.00  0.00    +0.000 OA
ENDBRANCH   1  16
TORSDOF 2
ENDMDL
MODEL 2
REMARK VINA RESULT:      -7.4      0.121      1.175
REMARK  Name = 
REMARK  3 active torsions:
REMARK  status: ('A' for Active; 'I' for Inactive)
REMARK    1  A    between atoms: C_1  and  C_2
REMARK    2  A    between atoms: C_2  and  C_4
REMARK    3  A    between atoms: N_9  and  C_10
REMARK                            x       y       z     vdW  Elec       q    Type
REMARK                         _______ _______ _______ _____ _____    ______ ____
ROOT
ATOM      1  C   UNL     1       5.892   3.983  16.307  0.00  0.00    +0.000 C 
ATOM      2  C   UNL     1       6.743   4.573  17.370  0.00  0.00    +0.000 C 
ATOM      3  O   UNL     1       7.917   4.889  17.252  0.00  0.00    +0.000 OA
ATOM      4  C   UNL     1       5.963   4.657  18.589  0.00  0.00    +0.000 C 
ATOM      5  O   UNL     1       6.420   5.044  19.653  0.00  0.00    +0.000 OA
ATOM      6  N   UNL     1       4.707   4.175  18.402  0.00  0.00    +0.000 N 
ATOM      7  C   UNL     1       4.609   3.797  17.087  0.00  0.00    +0.000 C 
ATOM      8  O   UNL     1       3.597   3.339  16.581  0.00  0.00    +0.000 OA
ENDROOT
BRANCH   6   9
ATOM      9  C   UNL     1       3.692   4.028  19.434  0.00  0.00    +0.000 A 
ATOM     10  C   UNL     1       2.844   5.106  19.803  0.00  0.00    +0.000 A 
ATOM     11  C   UNL     1       1.914   4.980  20.838  0.00  0.00    +0.000 A 
ATOM     12  C   UNL     1       1.799   3.782  21.536  0.00  0.00    +0.000 A 
ATOM     13  C   UNL     1       2.606   2.702  21.191  0.00  0.00    +0.000 A 
ATOM     14  C   UNL     1       3.538   2.816  20.155  0.00  0.00    +0.000 A 
ENDBRANCH   6   9
BRANCH   1  16
ATOM     15  C   UNL     1       5.934   4.338  13.733  0.00  0.00    +0.000 C 
ATOM     16  C   UNL     1       5.778   4.901  15.116  0.00  0.00    +0.000 C 
ATOM     17  O   UNL     1       5.599   6.100  15.271  0.00  0.00    +0.000 OA
ENDBRANCH   1  16
TORSDOF 2
ENDMDL
MODEL 3
REMARK VINA RESULT:      -7.3      2.059      5.896
REMARK  Name = 
REMARK  3 active torsions:
REMARK  status: ('A' for Active; 'I' for Inactive)
REMARK    1  A    between atoms: C_1  and  C_2
REMARK    2  A    between atoms: C_2  and  C_4
REMARK    3  A    between atoms: N_9  and  C_10
REMARK                            x       y       z     vdW  Elec       q    Type
REMARK                         _______ _______ _______ _____ _____    ______ ____
ROOT
ATOM      1  C   UNL     1       2.927   2.509  19.871  0.00  0.00    +0.000 C 
ATOM      2  C   UNL     1       1.857   2.679  18.856  0.00  0.00    +0.000 C 
ATOM      3  O   UNL     1       0.714   2.258  18.947  0.00  0.00    +0.000 OA
ATOM      4  C   UNL     1       2.414   3.376  17.715  0.00  0.00    +0.000 C 
ATOM      5  O   UNL     1       1.783   3.602  16.694  0.00  0.00    +0.000 OA
ATOM      6  N   UNL     1       3.728   3.661  17.905  0.00  0.00    +0.000 N 
ATOM      7  C   UNL     1       4.065   3.201  19.153  0.00  0.00    +0.000 C 
ATOM      8  O   UNL     1       5.176   3.317  19.647  0.00  0.00    +0.000 OA
ENDROOT
BRANCH   6   9
ATOM      9  C   UNL     1       4.614   4.273  16.928  0.00  0.00    +0.000 A 
ATOM     10  C   UNL     1       4.671   5.681  16.755  0.00  0.00    +0.000 A 
ATOM     11  C   UNL     1       5.477   6.263  15.772  0.00  0.00    +0.000 A 
ATOM     12  C   UNL     1       6.248   5.464  14.933  0.00  0.00    +0.000 A 
ATOM     13  C   UNL     1       6.226   4.081  15.085  0.00  0.00    +0.000 A 
ATOM     14  C   UNL     1       5.425   3.488  16.068  0.00  0.00    +0.000 A 
ENDBRANCH   6   9
BRANCH   1  16
ATOM     15  C   UNL     1       2.154   4.580  21.238  0.00  0.00    +0.000 C 
ATOM     16  C   UNL     1       2.543   3.131  21.190  0.00  0.00    +0.000 C 
ATOM     17  O   UNL     1       2.583   2.474  22.220  0.00  0.00    +0.000 OA
ENDBRANCH   1  16
TORSDOF 2
ENDMDL
MODEL 4
REMARK VINA RESULT:      -7.3      1.767      2.642
REMARK  Name = 
REMARK  3 active torsions:
REMARK  status: ('A' for Active; 'I' for Inactive)
REMARK    1  A    between atoms: C_1  and  C_2
REMARK    2  A    between atoms: C_2  and  C_4
REMARK    3  A    between atoms: N_9  and  C_10
REMARK                            x       y       z     vdW  Elec       q    Type
REMARK                         _______ _______ _______ _____ _____    ______ ____
ROOT
ATOM      1  C   UNL     1       6.501   5.265  18.364  0.00  0.00    +0.000 C 
ATOM      2  C   UNL     1       5.720   6.356  17.729  0.00  0.00    +0.000 C 
ATOM      3  O   UNL     1       6.187   7.352  17.198  0.00  0.00    +0.000 OA
ATOM      4  C   UNL     1       4.310   6.069  17.898  0.00  0.00    +0.000 C 
ATOM      5  O   UNL     1       3.423   6.825  17.534  0.00  0.00    +0.000 OA
ATOM      6  N   UNL     1       4.123   4.909  18.579  0.00  0.00    +0.000 N 
ATOM      7  C   UNL     1       5.365   4.391  18.847  0.00  0.00    +0.000 C 
ATOM      8  O   UNL     1       5.554   3.336  19.432  0.00  0.00    +0.000 OA
ENDROOT
BRANCH   6   9
ATOM      9  C   UNL     1       2.839   4.368  18.998  0.00  0.00    +0.000 A 
ATOM     10  C   UNL     1       2.284   4.670  20.270  0.00  0.00    +0.000 A 
ATOM     11  C   UNL     1       1.082   4.098  20.694  0.00  0.00    +0.000 A 
ATOM     12  C   UNL     1       0.396   3.212  19.870  0.00  0.00    +0.000 A 
ATOM     13  C   UNL     1       0.906   2.905  18.612  0.00  0.00    +0.000 A 
ATOM     14  C   UNL     1       2.107   3.473  18.175  0.00  0.00    +0.000 A 
ENDBRANCH   6   9
BRANCH   1  16
ATOM     15  C   UNL     1       7.020   4.492  15.937  0.00  0.00    +0.000 C 
ATOM     16  C   UNL     1       7.430   4.603  17.377  0.00  0.00    +0.000 C 
ATOM     17  O   UNL     1       8.492   4.125  17.749  0.00  0.00    +0.000 OA
ENDBRANCH   1  16
TORSDOF 2
ENDMDL
MODEL 5
REMARK VINA RESULT:      -7.2      2.069      5.789
REMARK  Name = 
REMARK  3 active torsions:
REMARK  status: ('A' for Active; 'I' for Inactive)
REMARK    1  A    between atoms: C_1  and  C_2
REMARK    2  A    between atoms: C_2  and  C_4
REMARK    3  A    between atoms: N_9  and  C_10
REMARK                            x       y       z     vdW  Elec       q    Type
REMARK                         _______ _______ _______ _____ _____    ______ ____
ROOT
ATOM      1  C   UNL     1       2.924   2.484  19.827  0.00  0.00    +0.000 C 
ATOM      2  C   UNL     1       1.860   2.691  18.812  0.00  0.00    +0.000 C 
ATOM      3  O   UNL     1       0.709   2.291  18.894  0.00  0.00    +0.000 OA
ATOM      4  C   UNL     1       2.434   3.394  17.684  0.00  0.00    +0.000 C 
ATOM      5  O   UNL     1       1.811   3.649  16.665  0.00  0.00    +0.000 OA
ATOM      6  N   UNL     1       3.753   3.649  17.882  0.00  0.00    +0.000 N 
ATOM      7  C   UNL     1       4.077   3.163  19.124  0.00  0.00    +0.000 C 
ATOM      8  O   UNL     1       5.189   3.249  19.622  0.00  0.00    +0.000 OA
ENDROOT
BRANCH   6   9
ATOM      9  C   UNL     1       4.655   4.259  16.918  0.00  0.00    +0.000 A 
ATOM     10  C   UNL     1       5.374   3.480  15.974  0.00  0.00    +0.000 A 
ATOM     11  C   UNL     1       6.287   4.063  15.091  0.00  0.00    +0.000 A 
ATOM     12  C   UNL     1       6.512   5.436  15.120  0.00  0.00    +0.000 A 
ATOM     13  C   UNL     1       5.815   6.231  16.024  0.00  0.00    +0.000 A 
ATOM     14  C   UNL     1       4.896   5.658  16.910  0.00  0.00    +0.000 A 
ENDBRANCH   6   9
BRANCH   1  16
ATOM     15  C   UNL     1       2.170   4.543  21.222  0.00  0.00    +0.000 C 
ATOM     16  C   UNL     1       2.548   3.092  21.155  0.00  0.00    +0.000 C 
ATOM     17  O   UNL     1       2.586   2.422  22.177  0.00  0.00    +0.000 OA
ENDBRANCH   1  16
TORSDOF 2
ENDMDL
MODEL 6
REMARK VINA RESULT:      -7.1      2.169      3.193
REMARK  Name = 
REMARK  3 active torsions:
REMARK  status: ('A' for Active; 'I' for Inactive)
REMARK    1  A    between atoms: C_1  and  C_2
REMARK    2  A    between atoms: C_2  and  C_4
REMARK    3  A    between atoms: N_9  and  C_10
REMARK                            x       y       z     vdW  Elec       q    Type
REMARK                         _______ _______ _______ _____ _____    ______ ____
ROOT
ATOM      1  C   UNL     1       6.138   6.629  16.724  0.00  0.00    +0.000 C 
ATOM      2  C   UNL     1       6.535   5.443  15.925  0.00  0.00    +0.000 C 
ATOM      3  O   UNL     1       7.408   5.416  15.072  0.00  0.00    +0.000 OA
ATOM      4  C   UNL     1       5.671   4.337  16.286  0.00  0.00    +0.000 C 
ATOM      5  O   UNL     1       5.720   3.243  15.745  0.00  0.00    +0.000 OA
ATOM      6  N   UNL     1       4.767   4.707  17.230  0.00  0.00    +0.000 N 
ATOM      7  C   UNL     1       5.016   6.021  17.536  0.00  0.00    +0.000 C 
ATOM      8  O   UNL     1       4.391   6.658  18.369  0.00  0.00    +0.000 OA
ENDROOT
BRANCH   6   9
ATOM      9  C   UNL     1       3.697   3.872  17.754  0.00  0.00    +0.000 A 
ATOM     10  C   UNL     1       2.332   4.166  17.498  0.00  0.00    +0.000 A 
ATOM     11  C   UNL     1       1.305   3.399  18.056  0.00  0.00    +0.000 A 
ATOM     12  C   UNL     1       1.604   2.320  18.882  0.00  0.00    +0.000 A 
ATOM     13  C   UNL     1       2.932   1.997  19.143  0.00  0.00    +0.000 A 
ATOM     14  C   UNL     1       3.968   2.756  18.588  0.00  0.00    +0.000 A 
ENDBRANCH   6   9
BRANCH   1  16
ATOM     15  C   UNL     1       7.836   6.334  18.669  0.00  0.00    +0.000 C 
ATOM     16  C   UNL     1       7.290   7.158  17.539  0.00  0.00    +0.000 C 
ATOM     17  O   UNL     1       7.756   8.266  17.310  0.00  0.00    +0.000 OA
ENDBRANCH   1  16
TORSDOF 2
ENDMDL
MODEL 7
REMARK VINA RESULT:      -7.1      1.729      2.478
REMARK  Name = 
REMARK  3 active torsions:
REMARK  status: ('A' for Active; 'I' for Inactive)
REMARK    1  A    between atoms: C_1  and  C_2
REMARK    2  A    between atoms: C_2  and  C_4
REMARK    3  A    between atoms: N_9  and  C_10
REMARK                            x       y       z     vdW  Elec       q    Type
REMARK                         _______ _______ _______ _____ _____    ______ ____
ROOT
ATOM      1  C   UNL     1       6.405   5.247  18.028  0.00  0.00    +0.000 C 
ATOM      2  C   UNL     1       5.532   6.293  17.440  0.00  0.00    +0.000 C 
ATOM      3  O   UNL     1       5.913   7.292  16.850  0.00  0.00    +0.000 OA
ATOM      4  C   UNL     1       4.153   5.960  17.737  0.00  0.00    +0.000 C 
ATOM      5  O   UNL     1       3.210   6.674  17.434  0.00  0.00    +0.000 OA
ATOM      6  N   UNL     1       4.069   4.811  18.456  0.00  0.00    +0.000 N 
ATOM      7  C   UNL     1       5.349   4.345  18.627  0.00  0.00    +0.000 C 
ATOM      8  O   UNL     1       5.627   3.313  19.216  0.00  0.00    +0.000 OA
ENDROOT
BRANCH   6   9
ATOM      9  C   UNL     1       2.848   4.235  18.996  0.00  0.00    +0.000 A 
ATOM     10  C   UNL     1       2.051   3.335  18.240  0.00  0.00    +0.000 A 
ATOM     11  C   UNL     1       0.845   2.834  18.739  0.00  0.00    +0.000 A 
ATOM     12  C   UNL     1       0.397   3.211  20.001  0.00  0.00    +0.000 A 
ATOM     13  C   UNL     1       1.160   4.081  20.773  0.00  0.00    +0.000 A 
ATOM     14  C   UNL     1       2.370   4.586  20.286  0.00  0.00    +0.000 A 
ENDBRANCH   6   9
BRANCH   1  16
ATOM     15  C   UNL     1       6.729   4.397  15.594  0.00  0.00    +0.000 C 
ATOM     16  C   UNL     1       7.271   4.595  16.980  0.00  0.00    +0.000 C 
ATOM     17  O   UNL     1       8.391   4.195  17.261  0.00  0.00    +0.000 OA
ENDBRANCH   1  16
TORSDOF 2
ENDMDL
MODEL 8
REMARK VINA RESULT:      -7.0      2.195      3.007
REMARK  Name = 
REMARK  3 active torsions:
REMARK  status: ('A' for Active; 'I' for Inactive)
REMARK    1  A    between atoms: C_1  and  C_2
REMARK    2  A    between atoms: C_2  and  C_4
REMARK    3  A    between atoms: N_9  and  C_10
REMARK                            x       y       z     vdW  Elec       q    Type
REMARK                         _______ _______ _______ _____ _____    ______ ____
ROOT
ATOM      1  C   UNL     1       6.113   6.637  16.714  0.00  0.00    +0.000 C 
ATOM      2  C   UNL     1       6.498   5.428  15.944  0.00  0.00    +0.000 C 
ATOM      3  O   UNL     1       7.373   5.373  15.093  0.00  0.00    +0.000 OA
ATOM      4  C   UNL     1       5.623   4.339  16.329  0.00  0.00    +0.000 C 
ATOM      5  O   UNL     1       5.661   3.233  15.814  0.00  0.00    +0.000 OA
ATOM      6  N   UNL     1       4.722   4.741  17.263  0.00  0.00    +0.000 N 
ATOM      7  C   UNL     1       4.983   6.059  17.538  0.00  0.00    +0.000 C 
ATOM      8  O   UNL     1       4.364   6.722  18.356  0.00  0.00    +0.000 OA
ENDROOT
BRANCH   6   9
ATOM      9  C   UNL     1       3.643   3.929  17.805  0.00  0.00    +0.000 A 
ATOM     10  C   UNL     1       3.901   2.754  18.558  0.00  0.00    +0.000 A 
ATOM     11  C   UNL     1       2.861   1.943  19.023  0.00  0.00    +0.000 A 
ATOM     12  C   UNL     1       1.537   2.275  18.752  0.00  0.00    +0.000 A 
ATOM     13  C   UNL     1       1.249   3.428  18.027  0.00  0.00    +0.000 A 
ATOM     14  C   UNL     1       2.281   4.248  17.560  0.00  0.00    +0.000 A 
ENDBRANCH   6   9
BRANCH   1  16
ATOM     15  C   UNL     1       7.811   6.366  18.663  0.00  0.00    +0.000 C 
ATOM     16  C   UNL     1       7.270   7.173  17.518  0.00  0.00    +0.000 C 
ATOM     17  O   UNL     1       7.742   8.273  17.269  0.00  0.00    +0.000 OA
ENDBRANCH   1  16
TORSDOF 2
ENDMDL
MODEL 9
REMARK VINA RESULT:      -6.8      1.467      2.435
REMARK  Name = 
REMARK  3 active torsions:
REMARK  status: ('A' for Active; 'I' for Inactive)
REMARK    1  A    between atoms: C_1  and  C_2
REMARK    2  A    between atoms: C_2  and  C_4
REMARK    3  A    between atoms: N_9  and  C_10
REMARK                            x       y       z     vdW  Elec       q    Type
REMARK                         _______ _______ _______ _____ _____    ______ ____
ROOT
ATOM      1  C   UNL     1       5.483   5.455  16.843  0.00  0.00    +0.000 C 
ATOM      2  C   UNL     1       5.240   4.092  16.308  0.00  0.00    +0.000 C 
ATOM      3  O   UNL     1       5.666   3.653  15.251  0.00  0.00    +0.000 OA
ATOM      4  C   UNL     1       4.362   3.390  17.223  0.00  0.00    +0.000 C 
ATOM      5  O   UNL     1       3.935   2.265  17.012  0.00  0.00    +0.000 OA
ATOM      6  N   UNL     1       4.024   4.174  18.279  0.00  0.00    +0.000 N 
ATOM      7  C   UNL     1       4.672   5.372  18.117  0.00  0.00    +0.000 C 
ATOM      8  O   UNL     1       4.599   6.300  18.907  0.00  0.00    +0.000 OA
ENDROOT
BRANCH   6   9
ATOM      9  C   UNL     1       3.092   3.817  19.337  0.00  0.00    +0.000 A 
ATOM     10  C   UNL     1       3.495   3.040  20.454  0.00  0.00    +0.000 A 
ATOM     11  C   UNL     1       2.582   2.646  21.436  0.00  0.00    +0.000 A 
ATOM     12  C   UNL     1       1.243   3.012  21.337  0.00  0.00    +0.000 A 
ATOM     13  C   UNL     1       0.817   3.784  20.261  0.00  0.00    +0.000 A 
ATOM     14  C   UNL     1       1.723   4.187  19.274  0.00  0.00    +0.000 A 
ENDBRANCH   6   9
BRANCH   1  16
ATOM     15  C   UNL     1       7.702   4.941  18.093  0.00  0.00    +0.000 C 
ATOM     16  C   UNL     1       6.953   5.715  17.047  0.00  0.00    +0.000 C 
ATOM     17  O   UNL     1       7.528   6.575  16.395  0.00  0.00    +0.000 OA
ENDBRANCH   1  16
TORSDOF 2
ENDMDL
