MODEL 1
REMARK VINA RESULT:      -8.0      0.000      0.000
REMARK  Name = 
REMARK  11 active torsions:
REMARK  status: ('A' for Active; 'I' for Inactive)
REMARK    1  A    between atoms: C_1  and  C_2
REMARK    2  A    between atoms: C_2  and  O_3
REMARK    3  A    between atoms: O_3  and  C_4
REMARK    4  A    between atoms: C_7  and  C_8
REMARK    5  A    between atoms: C_8  and  C_9
REMARK    6  A    between atoms: C_11  and  C_12
REMARK    7  A    between atoms: C_14  and  C_15
REMARK    8  A    between atoms: C_15  and  O_16
REMARK    9  A    between atoms: C_17  and  O_18
REMARK   10  A    between atoms: C_19  and  O_20
REMARK   11  A    between atoms: C_21  and  O_22
REMARK                            x       y       z     vdW  Elec       q    Type
REMARK                         _______ _______ _______ _____ _____    ______ ____
ROOT
ATOM      1  C   UNL     1       4.810   4.767  19.060  0.00  0.00    +0.000 A 
ATOM      2  C   UNL     1       4.229   6.060  19.143  0.00  0.00    +0.000 A 
ATOM      3  C   UNL     1       2.920   6.272  19.625  0.00  0.00    +0.000 A 
ATOM      4  C   UNL     1       2.189   5.129  19.934  0.00  0.00    +0.000 A 
ATOM      5  C   UNL     1       2.793   3.872  19.959  0.00  0.00    +0.000 A 
ATOM      6  C   UNL     1       4.102   3.668  19.566  0.00  0.00    +0.000 A 
ATOM      7 CL   UNL     1       4.787   2.089  19.671  0.00  0.00    +0.000 Cl
ATOM      8  O   UNL     1       1.942   2.875  20.381  0.00  0.00    +0.000 OA
ATOM      9  C   UNL     1       0.644   3.448  20.144  0.00  0.00    +0.000 C 
ATOM     10  C   UNL     1       0.760   4.963  20.297  0.00  0.00    +0.000 C 
ENDROOT
BRANCH   3  11
ATOM     11  C   UNL     1       2.393   7.694  19.764  0.00  0.00    +0.000 C 
ATOM     12  O   UNL     1       1.519   7.751  20.901  0.00  0.00    +0.000 OA
ATOM     13  C   UNL     1       1.008   9.062  21.185  0.00  0.00    +0.000 C 
ATOM     14  C   UNL     1       0.179   9.576  20.002  0.00  0.00    +0.000 C 
ATOM     15  C   UNL     1       1.051   9.572  18.739  0.00  0.00    +0.000 C 
ATOM     16  C   UNL     1       1.692   8.195  18.483  0.00  0.00    +0.000 C 
BRANCH  14  17
ATOM     17  O   UNL     1      -0.315  10.890  20.281  0.00  0.00    +0.000 OA
ATOM     18  H   UNL     1       0.431  11.474  20.505  0.00  0.00    +0.000 HD
ENDBRANCH  14  17
BRANCH  15  19
ATOM     19  O   UNL     1       0.293  10.000  17.601  0.00  0.00    +0.000 OA
ATOM     20  H   UNL     1       0.137   9.228  17.026  0.00  0.00    +0.000 HD
ENDBRANCH  15  19
BRANCH  16  21
ATOM     21  O   UNL     1       2.625   8.282  17.395  0.00  0.00    +0.000 OA
ATOM     22  H   UNL     1       2.152   8.138  16.557  0.00  0.00    +0.000 HD
ENDBRANCH  16  21
BRANCH  13  23
ATOM     23  C   UNL     1       0.162   8.960  22.462  0.00  0.00    +0.000 C 
BRANCH  23  24
ATOM     24  O   UNL     1       0.204  10.192  23.184  0.00  0.00    +0.000 OA
ATOM     25  H   UNL     1       0.084   9.942  24.118  0.00  0.00    +0.000 HD
ENDBRANCH  23  24
ENDBRANCH  13  23
ENDBRANCH   3  11
BRANCH   1  26
ATOM     26  C   UNL     1       6.170   4.619  18.413  0.00  0.00    +0.000 C 
BRANCH  26  30
ATOM     27  C   UNL     1       6.224   4.170  14.122  0.00  0.00    +0.000 A 
ATOM     28  C   UNL     1       7.224   4.907  14.747  0.00  0.00    +0.000 A 
ATOM     29  C   UNL     1       7.216   5.078  16.129  0.00  0.00    +0.000 A 
ATOM     30  C   UNL     1       6.183   4.535  16.905  0.00  0.00    +0.000 A 
ATOM     31  C   UNL     1       5.167   3.806  16.262  0.00  0.00    +0.000 A 
ATOM     32  C   UNL     1       5.183   3.634  14.874  0.00  0.00    +0.000 A 
BRANCH  27  33
ATOM     33  O   UNL     1       6.368   4.044  12.769  0.00  0.00    +0.000 OA
BRANCH  33  35
ATOM     34  C   UNL     1       4.463   3.394  11.512  0.00  0.00    +0.000 C 
ATOM     35  C   UNL     1       5.734   2.907  12.179  0.00  0.00    +0.000 C 
ENDBRANCH  33  35
ENDBRANCH  27  33
ENDBRANCH  26  30
ENDBRANCH   1  26
TORSDOF 10
ENDMDL
MODEL 2
REMARK VINA RESULT:      -7.4      4.942      8.530
REMARK  Name = 
REMARK  11 active torsions:
REMARK  status: ('A' for Active; 'I' for Inactive)
REMARK    1  A    between atoms: C_1  and  C_2
REMARK    2  A    between atoms: C_2  and  O_3
REMARK    3  A    between atoms: O_3  and  C_4
REMARK    4  A    between atoms: C_7  and  C_8
REMARK    5  A    between atoms: C_8  and  C_9
REMARK    6  A    between atoms: C_11  and  C_12
REMARK    7  A    between atoms: C_14  and  C_15
REMARK    8  A    between atoms: C_15  and  O_16
REMARK    9  A    between atoms: C_17  and  O_18
REMARK   10  A    between atoms: C_19  and  O_20
REMARK   11  A    between atoms: C_21  and  O_22
REMARK                            x       y       z     vdW  Elec       q    Type
REMARK                         _______ _______ _______ _____ _____    ______ ____
ROOT
ATOM      1  C   UNL     1      -0.958  11.403  18.834  0.00  0.00    +0.000 A 
ATOM      2  C   UNL     1      -1.279  12.248  19.930  0.00  0.00    +0.000 A 
ATOM      3  C   UNL     1      -2.605  12.620  20.235  0.00  0.00    +0.000 A 
ATOM      4  C   UNL     1      -3.583  12.184  19.346  0.00  0.00    +0.000 A 
ATOM      5  C   UNL     1      -3.285  11.267  18.339  0.00  0.00    +0.000 A 
ATOM      6  C   UNL     1      -1.997  10.833  18.086  0.00  0.00    +0.000 A 
ATOM      7 CL   UNL     1      -1.720   9.661  16.851  0.00  0.00    +0.000 Cl
ATOM      8  O   UNL     1      -4.394  10.876  17.621  0.00  0.00    +0.000 OA
ATOM      9  C   UNL     1      -5.322  11.945  17.871  0.00  0.00    +0.000 C 
ATOM     10  C   UNL     1      -5.027  12.517  19.256  0.00  0.00    +0.000 C 
ENDROOT
BRANCH   3  11
ATOM     11  C   UNL     1      -2.882  13.461  21.473  0.00  0.00    +0.000 C 
ATOM     12  O   UNL     1      -3.663  12.683  22.393  0.00  0.00    +0.000 OA
ATOM     13  C   UNL     1      -3.934  13.342  23.639  0.00  0.00    +0.000 C 
ATOM     14  C   UNL     1      -4.738  14.625  23.398  0.00  0.00    +0.000 C 
ATOM     15  C   UNL     1      -3.958  15.533  22.438  0.00  0.00    +0.000 C 
ATOM     16  C   UNL     1      -3.569  14.803  21.139  0.00  0.00    +0.000 C 
BRANCH  14  17
ATOM     17  O   UNL     1      -4.991  15.287  24.641  0.00  0.00    +0.000 OA
ATOM     18  H   UNL     1      -4.218  15.827  24.882  0.00  0.00    +0.000 HD
ENDBRANCH  14  17
BRANCH  15  19
ATOM     19  O   UNL     1      -4.704  16.721  22.150  0.00  0.00    +0.000 OA
ATOM     20  H   UNL     1      -5.353  16.517  21.450  0.00  0.00    +0.000 HD
ENDBRANCH  15  19
BRANCH  16  21
ATOM     21  O   UNL     1      -2.703  15.633  20.349  0.00  0.00    +0.000 OA
ATOM     22  H   UNL     1      -2.752  16.548  20.678  0.00  0.00    +0.000 HD
ENDBRANCH  16  21
BRANCH  13  23
ATOM     23  C   UNL     1      -4.704  12.353  24.525  0.00  0.00    +0.000 C 
BRANCH  23  24
ATOM     24  O   UNL     1      -4.391  12.572  25.901  0.00  0.00    +0.000 OA
ATOM     25  H   UNL     1      -3.430  12.426  25.969  0.00  0.00    +0.000 HD
ENDBRANCH  23  24
ENDBRANCH  13  23
ENDBRANCH   3  11
BRANCH   1  26
ATOM     26  C   UNL     1       0.498  11.158  18.505  0.00  0.00    +0.000 C 
BRANCH  26  30
ATOM     27  C   UNL     1       2.166   7.342  19.634  0.00  0.00    +0.000 A 
ATOM     28  C   UNL     1       2.288   7.782  18.320  0.00  0.00    +0.000 A 
ATOM     29  C   UNL     1       1.743   9.003  17.931  0.00  0.00    +0.000 A 
ATOM     30  C   UNL     1       1.037   9.790  18.851  0.00  0.00    +0.000 A 
ATOM     31  C   UNL     1       0.905   9.329  20.173  0.00  0.00    +0.000 A 
ATOM     32  C   UNL     1       1.458   8.104  20.559  0.00  0.00    +0.000 A 
BRANCH  27  33
ATOM     33  O   UNL     1       2.778   6.149  19.896  0.00  0.00    +0.000 OA
BRANCH  33  35
ATOM     34  C   UNL     1       1.477   4.174  19.696  0.00  0.00    +0.000 C 
ATOM     35  C   UNL     1       2.015   5.212  20.660  0.00  0.00    +0.000 C 
ENDBRANCH  33  35
ENDBRANCH  27  33
ENDBRANCH  26  30
ENDBRANCH   1  26
TORSDOF 10
ENDMDL
MODEL 3
REMARK VINA RESULT:      -7.4      2.513      3.761
REMARK  Name = 
REMARK  11 active torsions:
REMARK  status: ('A' for Active; 'I' for Inactive)
REMARK    1  A    between atoms: C_1  and  C_2
REMARK    2  A    between atoms: C_2  and  O_3
REMARK    3  A    between atoms: O_3  and  C_4
REMARK    4  A    between atoms: C_7  and  C_8
REMARK    5  A    between atoms: C_8  and  C_9
REMARK    6  A    between atoms: C_11  and  C_12
REMARK    7  A    between atoms: C_14  and  C_15
REMARK    8  A    between atoms: C_15  and  O_16
REMARK    9  A    between atoms: C_17  and  O_18
REMARK   10  A    between atoms: C_19  and  O_20
REMARK   11  A    between atoms: C_21  and  O_22
REMARK                            x       y       z     vdW  Elec       q    Type
REMARK                         _______ _______ _______ _____ _____    ______ ____
ROOT
ATOM      1  C   UNL     1       4.659   4.668  19.071  0.00  0.00    +0.000 A 
ATOM      2  C   UNL     1       4.089   5.963  19.195  0.00  0.00    +0.000 A 
ATOM      3  C   UNL     1       2.792   6.174  19.708  0.00  0.00    +0.000 A 
ATOM      4  C   UNL     1       2.059   5.030  20.008  0.00  0.00    +0.000 A 
ATOM      5  C   UNL     1       2.653   3.769  19.992  0.00  0.00    +0.000 A 
ATOM      6  C   UNL     1       3.952   3.564  19.567  0.00  0.00    +0.000 A 
ATOM      7 CL   UNL     1       4.627   1.977  19.623  0.00  0.00    +0.000 Cl
ATOM      8  O   UNL     1       1.803   2.768  20.409  0.00  0.00    +0.000 OA
ATOM      9  C   UNL     1       0.505   3.356  20.212  0.00  0.00    +0.000 C 
ATOM     10  C   UNL     1       0.636   4.867  20.397  0.00  0.00    +0.000 C 
ENDROOT
BRANCH   3  11
ATOM     11  C   UNL     1       2.280   7.596  19.890  0.00  0.00    +0.000 C 
ATOM     12  O   UNL     1       1.376   7.621  21.005  0.00  0.00    +0.000 OA
ATOM     13  C   UNL     1       0.873   8.927  21.326  0.00  0.00    +0.000 C 
ATOM     14  C   UNL     1       0.084   9.498  20.143  0.00  0.00    +0.000 C 
ATOM     15  C   UNL     1       0.990   9.532  18.905  0.00  0.00    +0.000 C 
ATOM     16  C   UNL     1       1.620   8.158  18.612  0.00  0.00    +0.000 C 
BRANCH  14  17
ATOM     17  O   UNL     1      -0.401  10.806  20.461  0.00  0.00    +0.000 OA
ATOM     18  H   UNL     1       0.166  11.203  21.146  0.00  0.00    +0.000 HD
ENDBRANCH  14  17
BRANCH  15  19
ATOM     19  O   UNL     1       0.269  10.015  17.765  0.00  0.00    +0.000 OA
ATOM     20  H   UNL     1       0.131  10.975  17.870  0.00  0.00    +0.000 HD
ENDBRANCH  15  19
BRANCH  16  21
ATOM     21  O   UNL     1       2.584   8.274  17.553  0.00  0.00    +0.000 OA
ATOM     22  H   UNL     1       2.901   9.194  17.511  0.00  0.00    +0.000 HD
ENDBRANCH  16  21
BRANCH  13  23
ATOM     23  C   UNL     1      -0.008   8.786  22.576  0.00  0.00    +0.000 C 
BRANCH  23  24
ATOM     24  O   UNL     1       0.155   9.920  23.428  0.00  0.00    +0.000 OA
ATOM     25  H   UNL     1       0.756  10.516  22.945  0.00  0.00    +0.000 HD
ENDBRANCH  23  24
ENDBRANCH  13  23
ENDBRANCH   3  11
BRANCH   1  26
ATOM     26  C   UNL     1       6.003   4.524  18.393  0.00  0.00    +0.000 C 
BRANCH  26  30
ATOM     27  C   UNL     1       8.186   8.229  18.037  0.00  0.00    +0.000 A 
ATOM     28  C   UNL     1       7.202   7.921  17.105  0.00  0.00    +0.000 A 
ATOM     29  C   UNL     1       6.497   6.724  17.192  0.00  0.00    +0.000 A 
ATOM     30  C   UNL     1       6.791   5.799  18.203  0.00  0.00    +0.000 A 
ATOM     31  C   UNL     1       7.801   6.112  19.131  0.00  0.00    +0.000 A 
ATOM     32  C   UNL     1       8.502   7.318  19.041  0.00  0.00    +0.000 A 
BRANCH  27  33
ATOM     33  O   UNL     1       8.776   9.450  17.864  0.00  0.00    +0.000 OA
BRANCH  33  35
ATOM     34  C   UNL     1      10.113  11.238  18.667  0.00  0.00    +0.000 C 
ATOM     35  C   UNL     1       9.151  10.135  19.061  0.00  0.00    +0.000 C 
ENDBRANCH  33  35
ENDBRANCH  27  33
ENDBRANCH  26  30
ENDBRANCH   1  26
TORSDOF 10
ENDMDL
MODEL 4
REMARK VINA RESULT:      -7.4      4.916      8.816
REMARK  Name = 
REMARK  11 active torsions:
REMARK  status: ('A' for Active; 'I' for Inactive)
REMARK    1  A    between atoms: C_1  and  C_2
REMARK    2  A    between atoms: C_2  and  O_3
REMARK    3  A    between atoms: O_3  and  C_4
REMARK    4  A    between atoms: C_7  and  C_8
REMARK    5  A    between atoms: C_8  and  C_9
REMARK    6  A    between atoms: C_11  and  C_12
REMARK    7  A    between atoms: C_14  and  C_15
REMARK    8  A    between atoms: C_15  and  O_16
REMARK    9  A    between atoms: C_17  and  O_18
REMARK   10  A    between atoms: C_19  and  O_20
REMARK   11  A    between atoms: C_21  and  O_22
REMARK                            x       y       z     vdW  Elec       q    Type
REMARK                         _______ _______ _______ _____ _____    ______ ____
ROOT
ATOM      1  C   UNL     1      -1.387  11.713  18.939  0.00  0.00    +0.000 A 
ATOM      2  C   UNL     1      -1.821  12.502  20.037  0.00  0.00    +0.000 A 
ATOM      3  C   UNL     1      -3.182  12.792  20.270  0.00  0.00    +0.000 A 
ATOM      4  C   UNL     1      -4.079  12.332  19.310  0.00  0.00    +0.000 A 
ATOM      5  C   UNL     1      -3.669  11.465  18.298  0.00  0.00    +0.000 A 
ATOM      6  C   UNL     1      -2.346  11.112  18.112  0.00  0.00    +0.000 A 
ATOM      7 CL   UNL     1      -1.929   9.998  16.862  0.00  0.00    +0.000 Cl
ATOM      8  O   UNL     1      -4.709  11.038  17.501  0.00  0.00    +0.000 OA
ATOM      9  C   UNL     1      -5.710  12.046  17.724  0.00  0.00    +0.000 C 
ATOM     10  C   UNL     1      -5.531  12.587  19.141  0.00  0.00    +0.000 C 
ENDROOT
BRANCH   3  11
ATOM     11  C   UNL     1      -3.580  13.575  21.513  0.00  0.00    +0.000 C 
ATOM     12  O   UNL     1      -2.439  14.310  21.979  0.00  0.00    +0.000 OA
ATOM     13  C   UNL     1      -2.702  15.150  23.113  0.00  0.00    +0.000 C 
ATOM     14  C   UNL     1      -3.162  14.304  24.306  0.00  0.00    +0.000 C 
ATOM     15  C   UNL     1      -4.403  13.498  23.901  0.00  0.00    +0.000 C 
ATOM     16  C   UNL     1      -4.165  12.673  22.622  0.00  0.00    +0.000 C 
BRANCH  14  17
ATOM     17  O   UNL     1      -3.440  15.146  25.429  0.00  0.00    +0.000 OA
ATOM     18  H   UNL     1      -3.642  16.045  25.115  0.00  0.00    +0.000 HD
ENDBRANCH  14  17
BRANCH  15  19
ATOM     19  O   UNL     1      -4.831  12.655  24.977  0.00  0.00    +0.000 OA
ATOM     20  H   UNL     1      -5.663  13.014  25.339  0.00  0.00    +0.000 HD
ENDBRANCH  15  19
BRANCH  16  21
ATOM     21  O   UNL     1      -5.395  12.071  22.189  0.00  0.00    +0.000 OA
ATOM     22  H   UNL     1      -5.254  11.643  21.326  0.00  0.00    +0.000 HD
ENDBRANCH  16  21
BRANCH  13  23
ATOM     23  C   UNL     1      -1.409  15.915  23.430  0.00  0.00    +0.000 C 
BRANCH  23  24
ATOM     24  O   UNL     1      -0.600  15.166  24.338  0.00  0.00    +0.000 OA
ATOM     25  H   UNL     1       0.296  15.189  23.956  0.00  0.00    +0.000 HD
ENDBRANCH  23  24
ENDBRANCH  13  23
ENDBRANCH   3  11
BRANCH   1  26
ATOM     26  C   UNL     1       0.097  11.559  18.693  0.00  0.00    +0.000 C 
BRANCH  26  30
ATOM     27  C   UNL     1       1.889   7.757  19.668  0.00  0.00    +0.000 A 
ATOM     28  C   UNL     1       2.016   8.265  18.379  0.00  0.00    +0.000 A 
ATOM     29  C   UNL     1       1.432   9.482  18.040  0.00  0.00    +0.000 A 
ATOM     30  C   UNL     1       0.682  10.197  18.983  0.00  0.00    +0.000 A 
ATOM     31  C   UNL     1       0.545   9.668  20.279  0.00  0.00    +0.000 A 
ATOM     32  C   UNL     1       1.138   8.447  20.616  0.00  0.00    +0.000 A 
BRANCH  27  33
ATOM     33  O   UNL     1       2.541   6.575  19.884  0.00  0.00    +0.000 OA
BRANCH  33  35
ATOM     34  C   UNL     1       1.575   4.409  19.829  0.00  0.00    +0.000 C 
ATOM     35  C   UNL     1       1.850   5.622  20.694  0.00  0.00    +0.000 C 
ENDBRANCH  33  35
ENDBRANCH  27  33
ENDBRANCH  26  30
ENDBRANCH   1  26
TORSDOF 10
ENDMDL
MODEL 5
REMARK VINA RESULT:      -7.3      5.049      8.551
REMARK  Name = 
REMARK  11 active torsions:
REMARK  status: ('A' for Active; 'I' for Inactive)
REMARK    1  A    between atoms: C_1  and  C_2
REMARK    2  A    between atoms: C_2  and  O_3
REMARK    3  A    between atoms: O_3  and  C_4
REMARK    4  A    between atoms: C_7  and  C_8
REMARK    5  A    between atoms: C_8  and  C_9
REMARK    6  A    between atoms: C_11  and  C_12
REMARK    7  A    between atoms: C_14  and  C_15
REMARK    8  A    between atoms: C_15  and  O_16
REMARK    9  A    between atoms: C_17  and  O_18
REMARK   10  A    between atoms: C_19  and  O_20
REMARK   11  A    between atoms: C_21  and  O_22
REMARK                            x       y       z     vdW  Elec       q    Type
REMARK                         _______ _______ _______ _____ _____    ______ ____
ROOT
ATOM      1  C   UNL     1      -1.029  11.547  18.849  0.00  0.00    +0.000 A 
ATOM      2  C   UNL     1      -1.419  12.397  19.918  0.00  0.00    +0.000 A 
ATOM      3  C   UNL     1      -2.770  12.696  20.194  0.00  0.00    +0.000 A 
ATOM      4  C   UNL     1      -3.705  12.180  19.303  0.00  0.00    +0.000 A 
ATOM      5  C   UNL     1      -3.335  11.258  18.324  0.00  0.00    +0.000 A 
ATOM      6  C   UNL     1      -2.020  10.898  18.100  0.00  0.00    +0.000 A 
ATOM      7 CL   UNL     1      -1.653   9.715  16.899  0.00  0.00    +0.000 Cl
ATOM      8  O   UNL     1      -4.407  10.784  17.599  0.00  0.00    +0.000 OA
ATOM      9  C   UNL     1      -5.402  11.801  17.808  0.00  0.00    +0.000 C 
ATOM     10  C   UNL     1      -5.165  12.422  19.183  0.00  0.00    +0.000 C 
ENDROOT
BRANCH   3  11
ATOM     11  C   UNL     1      -3.117  13.548  21.407  0.00  0.00    +0.000 C 
ATOM     12  O   UNL     1      -3.854  12.743  22.339  0.00  0.00    +0.000 OA
ATOM     13  C   UNL     1      -4.183  13.414  23.565  0.00  0.00    +0.000 C 
ATOM     14  C   UNL     1      -5.069  14.632  23.282  0.00  0.00    +0.000 C 
ATOM     15  C   UNL     1      -4.341  15.567  22.306  0.00  0.00    +0.000 C 
ATOM     16  C   UNL     1      -3.889  14.831  21.031  0.00  0.00    +0.000 C 
BRANCH  14  17
ATOM     17  O   UNL     1      -5.381  15.308  24.504  0.00  0.00    +0.000 OA
ATOM     18  H   UNL     1      -5.697  14.662  25.160  0.00  0.00    +0.000 HD
ENDBRANCH  14  17
BRANCH  15  19
ATOM     19  O   UNL     1      -5.162  16.694  21.979  0.00  0.00    +0.000 OA
ATOM     20  H   UNL     1      -4.629  17.504  22.081  0.00  0.00    +0.000 HD
ENDBRANCH  15  19
BRANCH  16  21
ATOM     21  O   UNL     1      -3.071  15.697  20.227  0.00  0.00    +0.000 OA
ATOM     22  H   UNL     1      -2.880  16.509  20.728  0.00  0.00    +0.000 HD
ENDBRANCH  16  21
BRANCH  13  23
ATOM     23  C   UNL     1      -4.895  12.398  24.470  0.00  0.00    +0.000 C 
BRANCH  23  24
ATOM     24  O   UNL     1      -4.446  12.534  25.818  0.00  0.00    +0.000 OA
ATOM     25  H   UNL     1      -3.490  12.348  25.787  0.00  0.00    +0.000 HD
ENDBRANCH  23  24
ENDBRANCH  13  23
ENDBRANCH   3  11
BRANCH   1  26
ATOM     26  C   UNL     1       0.444  11.384  18.547  0.00  0.00    +0.000 C 
BRANCH  26  30
ATOM     27  C   UNL     1       2.081   7.512  19.524  0.00  0.00    +0.000 A 
ATOM     28  C   UNL     1       1.419   8.245  20.504  0.00  0.00    +0.000 A 
ATOM     29  C   UNL     1       0.898   9.502  20.214  0.00  0.00    +0.000 A 
ATOM     30  C   UNL     1       1.060  10.061  18.940  0.00  0.00    +0.000 A 
ATOM     31  C   UNL     1       1.745   9.321  17.959  0.00  0.00    +0.000 A 
ATOM     32  C   UNL     1       2.263   8.056  18.255  0.00  0.00    +0.000 A 
BRANCH  27  33
ATOM     33  O   UNL     1       2.510   6.278  19.924  0.00  0.00    +0.000 OA
BRANCH  33  35
ATOM     34  C   UNL     1       3.191   4.470  18.545  0.00  0.00    +0.000 C 
ATOM     35  C   UNL     1       3.637   5.752  19.219  0.00  0.00    +0.000 C 
ENDBRANCH  33  35
ENDBRANCH  27  33
ENDBRANCH  26  30
ENDBRANCH   1  26
TORSDOF 10
ENDMDL
MODEL 6
REMARK VINA RESULT:      -7.1      5.399      9.013
REMARK  Name = 
REMARK  11 active torsions:
REMARK  status: ('A' for Active; 'I' for Inactive)
REMARK    1  A    between atoms: C_1  and  C_2
REMARK    2  A    between atoms: C_2  and  O_3
REMARK    3  A    between atoms: O_3  and  C_4
REMARK    4  A    between atoms: C_7  and  C_8
REMARK    5  A    between atoms: C_8  and  C_9
REMARK    6  A    between atoms: C_11  and  C_12
REMARK    7  A    between atoms: C_14  and  C_15
REMARK    8  A    between atoms: C_15  and  O_16
REMARK    9  A    between atoms: C_17  and  O_18
REMARK   10  A    between atoms: C_19  and  O_20
REMARK   11  A    between atoms: C_21  and  O_22
REMARK                            x       y       z     vdW  Elec       q    Type
REMARK                         _______ _______ _______ _____ _____    ______ ____
ROOT
ATOM      1  C   UNL     1      -1.440  11.677  18.907  0.00  0.00    +0.000 A 
ATOM      2  C   UNL     1      -1.926  12.473  19.978  0.00  0.00    +0.000 A 
ATOM      3  C   UNL     1      -3.304  12.661  20.217  0.00  0.00    +0.000 A 
ATOM      4  C   UNL     1      -4.169  12.092  19.288  0.00  0.00    +0.000 A 
ATOM      5  C   UNL     1      -3.700  11.222  18.305  0.00  0.00    +0.000 A 
ATOM      6  C   UNL     1      -2.354  10.968  18.116  0.00  0.00    +0.000 A 
ATOM      7 CL   UNL     1      -1.861   9.842  16.907  0.00  0.00    +0.000 Cl
ATOM      8  O   UNL     1      -4.709  10.681  17.539  0.00  0.00    +0.000 OA
ATOM      9  C   UNL     1      -5.787  11.613  17.735  0.00  0.00    +0.000 C 
ATOM     10  C   UNL     1      -5.639  12.223  19.127  0.00  0.00    +0.000 C 
ENDROOT
BRANCH   3  11
ATOM     11  C   UNL     1      -3.752  13.460  21.433  0.00  0.00    +0.000 C 
ATOM     12  O   UNL     1      -4.585  12.624  22.251  0.00  0.00    +0.000 OA
ATOM     13  C   UNL     1      -5.019  13.241  23.473  0.00  0.00    +0.000 C 
ATOM     14  C   UNL     1      -5.857  14.488  23.169  0.00  0.00    +0.000 C 
ATOM     15  C   UNL     1      -5.027  15.455  22.313  0.00  0.00    +0.000 C 
ATOM     16  C   UNL     1      -4.467  14.774  21.051  0.00  0.00    +0.000 C 
BRANCH  14  17
ATOM     17  O   UNL     1      -6.274  15.110  24.389  0.00  0.00    +0.000 OA
ATOM     18  H   UNL     1      -7.201  14.875  24.571  0.00  0.00    +0.000 HD
ENDBRANCH  14  17
BRANCH  15  19
ATOM     19  O   UNL     1      -5.798  16.612  21.967  0.00  0.00    +0.000 OA
ATOM     20  H   UNL     1      -6.739  16.357  21.932  0.00  0.00    +0.000 HD
ENDBRANCH  15  19
BRANCH  16  21
ATOM     21  O   UNL     1      -3.565  15.662  20.372  0.00  0.00    +0.000 OA
ATOM     22  H   UNL     1      -3.491  16.489  20.879  0.00  0.00    +0.000 HD
ENDBRANCH  16  21
BRANCH  13  23
ATOM     23  C   UNL     1      -5.827  12.196  24.254  0.00  0.00    +0.000 C 
BRANCH  23  24
ATOM     24  O   UNL     1      -7.227  12.428  24.091  0.00  0.00    +0.000 OA
ATOM     25  H   UNL     1      -7.530  12.765  24.954  0.00  0.00    +0.000 HD
ENDBRANCH  23  24
ENDBRANCH  13  23
ENDBRANCH   3  11
BRANCH   1  26
ATOM     26  C   UNL     1       0.050  11.634  18.649  0.00  0.00    +0.000 C 
BRANCH  26  30
ATOM     27  C   UNL     1       1.937   7.860  19.551  0.00  0.00    +0.000 A 
ATOM     28  C   UNL     1       1.226   8.526  20.544  0.00  0.00    +0.000 A 
ATOM     29  C   UNL     1       0.623   9.752  20.278  0.00  0.00    +0.000 A 
ATOM     30  C   UNL     1       0.751  10.347  19.016  0.00  0.00    +0.000 A 
ATOM     31  C   UNL     1       1.486   9.674  18.023  0.00  0.00    +0.000 A 
ATOM     32  C   UNL     1       2.085   8.440  18.295  0.00  0.00    +0.000 A 
BRANCH  27  33
ATOM     33  O   UNL     1       2.445   6.648  19.928  0.00  0.00    +0.000 OA
BRANCH  33  35
ATOM     34  C   UNL     1       1.450   4.497  20.039  0.00  0.00    +0.000 C 
ATOM     35  C   UNL     1       1.589   5.836  20.734  0.00  0.00    +0.000 C 
ENDBRANCH  33  35
ENDBRANCH  27  33
ENDBRANCH  26  30
ENDBRANCH   1  26
TORSDOF 10
ENDMDL
MODEL 7
REMARK VINA RESULT:      -7.0      5.232      9.057
REMARK  Name = 
REMARK  11 active torsions:
REMARK  status: ('A' for Active; 'I' for Inactive)
REMARK    1  A    between atoms: C_1  and  C_2
REMARK    2  A    between atoms: C_2  and  O_3
REMARK    3  A    between atoms: O_3  and  C_4
REMARK    4  A    between atoms: C_7  and  C_8
REMARK    5  A    between atoms: C_8  and  C_9
REMARK    6  A    between atoms: C_11  and  C_12
REMARK    7  A    between atoms: C_14  and  C_15
REMARK    8  A    between atoms: C_15  and  O_16
REMARK    9  A    between atoms: C_17  and  O_18
REMARK   10  A    between atoms: C_19  and  O_20
REMARK   11  A    between atoms: C_21  and  O_22
REMARK                            x       y       z     vdW  Elec       q    Type
REMARK                         _______ _______ _______ _____ _____    ______ ____
ROOT
ATOM      1  C   UNL     1      -1.677  11.843  18.838  0.00  0.00    +0.000 A 
ATOM      2  C   UNL     1      -2.159  12.643  19.908  0.00  0.00    +0.000 A 
ATOM      3  C   UNL     1      -3.535  12.852  20.138  0.00  0.00    +0.000 A 
ATOM      4  C   UNL     1      -4.402  12.299  19.200  0.00  0.00    +0.000 A 
ATOM      5  C   UNL     1      -3.939  11.424  18.218  0.00  0.00    +0.000 A 
ATOM      6  C   UNL     1      -2.597  11.151  18.038  0.00  0.00    +0.000 A 
ATOM      7 CL   UNL     1      -2.112  10.020  16.829  0.00  0.00    +0.000 Cl
ATOM      8  O   UNL     1      -4.952  10.902  17.443  0.00  0.00    +0.000 OA
ATOM      9  C   UNL     1      -6.016  11.850  17.634  0.00  0.00    +0.000 C 
ATOM     10  C   UNL     1      -5.868  12.454  19.030  0.00  0.00    +0.000 C 
ENDROOT
BRANCH   3  11
ATOM     11  C   UNL     1      -3.979  13.653  21.353  0.00  0.00    +0.000 C 
ATOM     12  O   UNL     1      -2.902  14.510  21.758  0.00  0.00    +0.000 OA
ATOM     13  C   UNL     1      -3.219  15.376  22.859  0.00  0.00    +0.000 C 
ATOM     14  C   UNL     1      -3.575  14.548  24.099  0.00  0.00    +0.000 C 
ATOM     15  C   UNL     1      -4.745  13.613  23.761  0.00  0.00    +0.000 C 
ATOM     16  C   UNL     1      -4.457  12.754  22.515  0.00  0.00    +0.000 C 
BRANCH  14  17
ATOM     17  O   UNL     1      -3.908  15.413  25.189  0.00  0.00    +0.000 OA
ATOM     18  H   UNL     1      -3.513  16.290  25.038  0.00  0.00    +0.000 HD
ENDBRANCH  14  17
BRANCH  15  19
ATOM     19  O   UNL     1      -5.073  12.787  24.884  0.00  0.00    +0.000 OA
ATOM     20  H   UNL     1      -6.043  12.770  24.982  0.00  0.00    +0.000 HD
ENDBRANCH  15  19
BRANCH  16  21
ATOM     21  O   UNL     1      -5.634  12.023  22.139  0.00  0.00    +0.000 OA
ATOM     22  H   UNL     1      -5.378  11.124  21.869  0.00  0.00    +0.000 HD
ENDBRANCH  16  21
BRANCH  13  23
ATOM     23  C   UNL     1      -1.996  16.269  23.111  0.00  0.00    +0.000 C 
BRANCH  23  24
ATOM     24  O   UNL     1      -2.390  17.476  23.765  0.00  0.00    +0.000 OA
ATOM     25  H   UNL     1      -3.331  17.350  23.982  0.00  0.00    +0.000 HD
ENDBRANCH  23  24
ENDBRANCH  13  23
ENDBRANCH   3  11
BRANCH   1  26
ATOM     26  C   UNL     1      -0.186  11.776  18.590  0.00  0.00    +0.000 C 
BRANCH  26  30
ATOM     27  C   UNL     1       1.706   8.088  19.787  0.00  0.00    +0.000 A 
ATOM     28  C   UNL     1       0.896   8.769  20.691  0.00  0.00    +0.000 A 
ATOM     29  C   UNL     1       0.289   9.968  20.330  0.00  0.00    +0.000 A 
ATOM     30  C   UNL     1       0.511  10.523  19.062  0.00  0.00    +0.000 A 
ATOM     31  C   UNL     1       1.345   9.836  18.161  0.00  0.00    +0.000 A 
ATOM     32  C   UNL     1       1.949   8.629  18.528  0.00  0.00    +0.000 A 
BRANCH  27  33
ATOM     33  O   UNL     1       2.209   6.905  20.250  0.00  0.00    +0.000 OA
BRANCH  33  35
ATOM     34  C   UNL     1       3.934   5.516  19.395  0.00  0.00    +0.000 C 
ATOM     35  C   UNL     1       2.477   5.912  19.257  0.00  0.00    +0.000 C 
ENDBRANCH  33  35
ENDBRANCH  27  33
ENDBRANCH  26  30
ENDBRANCH   1  26
TORSDOF 10
ENDMDL
MODEL 8
REMARK VINA RESULT:      -6.8      5.470      8.964
REMARK  Name = 
REMARK  11 active torsions:
REMARK  status: ('A' for Active; 'I' for Inactive)
REMARK    1  A    between atoms: C_1  and  C_2
REMARK    2  A    between atoms: C_2  and  O_3
REMARK    3  A    between atoms: O_3  and  C_4
REMARK    4  A    between atoms: C_7  and  C_8
REMARK    5  A    between atoms: C_8  and  C_9
REMARK    6  A    between atoms: C_11  and  C_12
REMARK    7  A    between atoms: C_14  and  C_15
REMARK    8  A    between atoms: C_15  and  O_16
REMARK    9  A    between atoms: C_17  and  O_18
REMARK   10  A    between atoms: C_19  and  O_20
REMARK   11  A    between atoms: C_21  and  O_22
REMARK                            x       y       z     vdW  Elec       q    Type
REMARK                         _______ _______ _______ _____ _____    ______ ____
ROOT
ATOM      1  C   UNL     1      -1.473  11.647  18.939  0.00  0.00    +0.000 A 
ATOM      2  C   UNL     1      -1.957  12.389  20.048  0.00  0.00    +0.000 A 
ATOM      3  C   UNL     1      -3.331  12.634  20.254  0.00  0.00    +0.000 A 
ATOM      4  C   UNL     1      -4.189  12.182  19.257  0.00  0.00    +0.000 A 
ATOM      5  C   UNL     1      -3.730  11.360  18.229  0.00  0.00    +0.000 A 
ATOM      6  C   UNL     1      -2.393  11.047  18.067  0.00  0.00    +0.000 A 
ATOM      7 CL   UNL     1      -1.914   9.985  16.795  0.00  0.00    +0.000 Cl
ATOM      8  O   UNL     1      -4.737  10.931  17.392  0.00  0.00    +0.000 OA
ATOM      9  C   UNL     1      -5.771  11.905  17.620  0.00  0.00    +0.000 C 
ATOM     10  C   UNL     1      -5.644  12.404  19.058  0.00  0.00    +0.000 C 
ENDROOT
BRANCH   3  11
ATOM     11  C   UNL     1      -3.782  13.366  21.511  0.00  0.00    +0.000 C 
ATOM     12  O   UNL     1      -5.036  12.816  21.939  0.00  0.00    +0.000 OA
ATOM     13  C   UNL     1      -5.539  13.377  23.161  0.00  0.00    +0.000 C 
ATOM     14  C   UNL     1      -5.784  14.881  22.994  0.00  0.00    +0.000 C 
ATOM     15  C   UNL     1      -4.477  15.558  22.559  0.00  0.00    +0.000 C 
ATOM     16  C   UNL     1      -3.872  14.895  21.307  0.00  0.00    +0.000 C 
BRANCH  14  17
ATOM     17  O   UNL     1      -6.268  15.439  24.220  0.00  0.00    +0.000 OA
ATOM     18  H   UNL     1      -6.944  16.112  24.023  0.00  0.00    +0.000 HD
ENDBRANCH  14  17
BRANCH  15  19
ATOM     19  O   UNL     1      -4.681  16.959  22.344  0.00  0.00    +0.000 OA
ATOM     20  H   UNL     1      -4.444  17.168  21.421  0.00  0.00    +0.000 HD
ENDBRANCH  15  19
BRANCH  16  21
ATOM     21  O   UNL     1      -2.574  15.448  21.036  0.00  0.00    +0.000 OA
ATOM     22  H   UNL     1      -1.955  14.724  20.837  0.00  0.00    +0.000 HD
ENDBRANCH  16  21
BRANCH  13  23
ATOM     23  C   UNL     1      -6.834  12.631  23.512  0.00  0.00    +0.000 C 
BRANCH  23  24
ATOM     24  O   UNL     1      -7.290  13.013  24.810  0.00  0.00    +0.000 OA
ATOM     25  H   UNL     1      -7.503  13.961  24.735  0.00  0.00    +0.000 HD
ENDBRANCH  23  24
ENDBRANCH  13  23
ENDBRANCH   3  11
BRANCH   1  26
ATOM     26  C   UNL     1       0.021  11.540  18.727  0.00  0.00    +0.000 C 
BRANCH  26  30
ATOM     27  C   UNL     1       1.916   7.802  19.753  0.00  0.00    +0.000 A 
ATOM     28  C   UNL     1       2.019   8.290  18.454  0.00  0.00    +0.000 A 
ATOM     29  C   UNL     1       1.402   9.486  18.099  0.00  0.00    +0.000 A 
ATOM     30  C   UNL     1       0.642  10.198  19.036  0.00  0.00    +0.000 A 
ATOM     31  C   UNL     1       0.529   9.688  20.342  0.00  0.00    +0.000 A 
ATOM     32  C   UNL     1       1.155   8.489  20.695  0.00  0.00    +0.000 A 
BRANCH  27  33
ATOM     33  O   UNL     1       2.600   6.641  19.983  0.00  0.00    +0.000 OA
BRANCH  33  35
ATOM     34  C   UNL     1       4.460   5.485  19.069  0.00  0.00    +0.000 C 
ATOM     35  C   UNL     1       3.033   5.932  18.820  0.00  0.00    +0.000 C 
ENDBRANCH  33  35
ENDBRANCH  27  33
ENDBRANCH  26  30
ENDBRANCH   1  26
TORSDOF 10
ENDMDL
MODEL 9
REMARK VINA RESULT:      -6.8      5.910      9.885
REMARK  Name = 
REMARK  11 active torsions:
REMARK  status: ('A' for Active; 'I' for Inactive)
REMARK    1  A    between atoms: C_1  and  C_2
REMARK    2  A    between atoms: C_2  and  O_3
REMARK    3  A    between atoms: O_3  and  C_4
REMARK    4  A    between atoms: C_7  and  C_8
REMARK    5  A    between atoms: C_8  and  C_9
REMARK    6  A    between atoms: C_11  and  C_12
REMARK    7  A    between atoms: C_14  and  C_15
REMARK    8  A    between atoms: C_15  and  O_16
REMARK    9  A    between atoms: C_17  and  O_18
REMARK   10  A    between atoms: C_19  and  O_20
REMARK   11  A    between atoms: C_21  and  O_22
REMARK                            x       y       z     vdW  Elec       q    Type
REMARK                         _______ _______ _______ _____ _____    ______ ____
ROOT
ATOM      1  C   UNL     1      -2.537  12.090  19.166  0.00  0.00    +0.000 A 
ATOM      2  C   UNL     1      -3.063  12.800  20.277  0.00  0.00    +0.000 A 
ATOM      3  C   UNL     1      -4.447  12.891  20.532  0.00  0.00    +0.000 A 
ATOM      4  C   UNL     1      -5.283  12.316  19.581  0.00  0.00    +0.000 A 
ATOM      5  C   UNL     1      -4.770  11.525  18.554  0.00  0.00    +0.000 A 
ATOM      6  C   UNL     1      -3.413  11.365  18.345  0.00  0.00    +0.000 A 
ATOM      7 CL   UNL     1      -2.861  10.332  17.079  0.00  0.00    +0.000 Cl
ATOM      8  O   UNL     1      -5.750  10.961  17.767  0.00  0.00    +0.000 OA
ATOM      9  C   UNL     1      -6.882  11.814  18.015  0.00  0.00    +0.000 C 
ATOM     10  C   UNL     1      -6.760  12.363  19.435  0.00  0.00    +0.000 C 
ENDROOT
BRANCH   3  11
ATOM     11  C   UNL     1      -4.933  13.599  21.789  0.00  0.00    +0.000 C 
ATOM     12  O   UNL     1      -5.129  14.989  21.488  0.00  0.00    +0.000 OA
ATOM     13  C   UNL     1      -5.657  15.759  22.578  0.00  0.00    +0.000 C 
ATOM     14  C   UNL     1      -4.690  15.728  23.767  0.00  0.00    +0.000 C 
ATOM     15  C   UNL     1      -4.443  14.269  24.175  0.00  0.00    +0.000 C 
ATOM     16  C   UNL     1      -3.977  13.407  22.987  0.00  0.00    +0.000 C 
BRANCH  14  17
ATOM     17  O   UNL     1      -5.227  16.482  24.858  0.00  0.00    +0.000 OA
ATOM     18  H   UNL     1      -4.561  17.121  25.168  0.00  0.00    +0.000 HD
ENDBRANCH  14  17
BRANCH  15  19
ATOM     19  O   UNL     1      -3.503  14.199  25.254  0.00  0.00    +0.000 OA
ATOM     20  H   UNL     1      -3.899  13.674  25.975  0.00  0.00    +0.000 HD
ENDBRANCH  15  19
BRANCH  16  21
ATOM     21  O   UNL     1      -3.921  12.025  23.374  0.00  0.00    +0.000 OA
ATOM     22  H   UNL     1      -4.222  11.474  22.631  0.00  0.00    +0.000 HD
ENDBRANCH  16  21
BRANCH  13  23
ATOM     23  C   UNL     1      -5.875  17.191  22.067  0.00  0.00    +0.000 C 
BRANCH  23  24
ATOM     24  O   UNL     1      -4.751  18.009  22.391  0.00  0.00    +0.000 OA
ATOM     25  H   UNL     1      -4.175  17.444  22.937  0.00  0.00    +0.000 HD
ENDBRANCH  23  24
ENDBRANCH  13  23
ENDBRANCH   3  11
BRANCH   1  26
ATOM     26  C   UNL     1      -1.050  12.151  18.897  0.00  0.00    +0.000 C 
BRANCH  26  30
ATOM     27  C   UNL     1       1.201   8.737  20.274  0.00  0.00    +0.000 A 
ATOM     28  C   UNL     1       0.338   9.388  21.149  0.00  0.00    +0.000 A 
ATOM     29  C   UNL     1      -0.385  10.501  20.730  0.00  0.00    +0.000 A 
ATOM     30  C   UNL     1      -0.230  11.000  19.429  0.00  0.00    +0.000 A 
ATOM     31  C   UNL     1       0.657  10.345  18.556  0.00  0.00    +0.000 A 
ATOM     32  C   UNL     1       1.378   9.225  18.982  0.00  0.00    +0.000 A 
BRANCH  27  33
ATOM     33  O   UNL     1       1.821   7.636  20.795  0.00  0.00    +0.000 OA
BRANCH  33  35
ATOM     34  C   UNL     1       1.851   5.284  20.479  0.00  0.00    +0.000 C 
ATOM     35  C   UNL     1       2.186   6.624  19.854  0.00  0.00    +0.000 C 
ENDBRANCH  33  35
ENDBRANCH  27  33
ENDBRANCH  26  30
ENDBRANCH   1  26
TORSDOF 10
ENDMDL
