MODEL 1
REMARK VINA RESULT:      -7.6      0.000      0.000
REMARK  Name = 
REMARK  11 active torsions:
REMARK  status: ('A' for Active; 'I' for Inactive)
REMARK    1  A    between atoms: C_1  and  O_2
REMARK    2  A    between atoms: O_2  and  C_3
REMARK    3  A    between atoms: C_8  and  S_9
REMARK    4  A    between atoms: S_9  and  N_12
REMARK    5  A    between atoms: N_12  and  C_13
REMARK    6  A    between atoms: C_13  and  C_14
REMARK    7  A    between atoms: C_13  and  C_21
REMARK    8  A    between atoms: C_14  and  C_15
REMARK    9  A    between atoms: C_15  and  C_16
REMARK   10  A    between atoms: C_16  and  N_17
REMARK   11  A    between atoms: C_26  and  C_27
REMARK                            x       y       z     vdW  Elec       q    Type
REMARK                         _______ _______ _______ _____ _____    ______ ____
ROOT
ATOM      1  C   UNL     1       0.924   9.868  18.691  0.00  0.00    +0.000 C 
ENDROOT
BRANCH   1   2
ATOM      2  C   UNL     1       1.953   8.789  18.206  0.00  0.00    +0.000 C 
ATOM      3  O   UNL     1       2.570   8.965  17.147  0.00  0.00    +0.000 OA
ATOM      4  N   UNL     1       2.150   7.637  18.970  0.00  0.00    +0.000 N 
ATOM      5  C   UNL     1       3.065   6.605  18.472  0.00  0.00    +0.000 C 
ATOM      6  C   UNL     1       2.543   5.204  18.798  0.00  0.00    +0.000 C 
ATOM      7  C   UNL     1       2.285   5.049  20.303  0.00  0.00    +0.000 C 
ATOM      8  C   UNL     1       1.696   3.675  20.623  0.00  0.00    +0.000 C 
ATOM      9  C   UNL     1       1.360   6.171  20.797  0.00  0.00    +0.000 C 
ATOM     10  C   UNL     1       1.884   7.553  20.405  0.00  0.00    +0.000 C 
ENDBRANCH   1   2
BRANCH   1  11
ATOM     11  N   UNL     1       1.676  11.128  18.864  0.00  0.00    +0.000 NA
ATOM     12  H   UNL     1       2.637  11.131  18.511  0.00  0.00    +0.000 HD
BRANCH  11  13
ATOM     13  S   UNL     1       1.212  12.453  19.761  0.00  0.00    +0.000 S 
ATOM     14  O   UNL     1       0.381  13.291  18.928  0.00  0.00    +0.000 OA
ATOM     15  O   UNL     1       2.418  12.984  20.361  0.00  0.00    +0.000 OA
BRANCH  13  21
ATOM     16  C   UNL     1      -3.043  12.361  22.888  0.00  0.00    +0.000 A 
ATOM     17  C   UNL     1      -3.565  13.471  22.222  0.00  0.00    +0.000 A 
ATOM     18  C   UNL     1      -2.893  14.007  21.130  0.00  0.00    +0.000 A 
ATOM     19  C   UNL     1      -1.674  13.465  20.730  0.00  0.00    +0.000 A 
ATOM     20  C   UNL     1      -1.071  12.380  21.414  0.00  0.00    +0.000 A 
ATOM     21  C   UNL     1       0.195  11.822  21.085  0.00  0.00    +0.000 A 
ATOM     22  C   UNL     1       0.686  10.688  21.759  0.00  0.00    +0.000 A 
ATOM     23  C   UNL     1      -0.053  10.104  22.776  0.00  0.00    +0.000 A 
ATOM     24  C   UNL     1      -1.270  10.667  23.147  0.00  0.00    +0.000 A 
ATOM     25  C   UNL     1      -1.798  11.805  22.496  0.00  0.00    +0.000 A 
BRANCH  16  27
ATOM     26  C   UNL     1      -4.312  12.692  24.869  0.00  0.00    +0.000 C 
ATOM     27  O   UNL     1      -3.668  11.789  23.974  0.00  0.00    +0.000 OA
ENDBRANCH  16  27
ENDBRANCH  13  21
ENDBRANCH  11  13
ENDBRANCH   1  11
BRANCH   1  28
ATOM     28  C   UNL     1      -0.319  10.019  17.798  0.00  0.00    +0.000 C 
BRANCH  28  29
ATOM     29  C   UNL     1      -1.665  10.353  18.453  0.00  0.00    +0.000 C 
BRANCH  29  30
ATOM     30  C   UNL     1      -2.487  11.396  17.704  0.00  0.00    +0.000 C 
BRANCH  30  31
ATOM     31  N   UNL     1      -2.692  10.928  16.336  0.00  0.00    +0.000 NA
ATOM     32  C   UNL     1      -3.889  10.849  15.894  0.00  0.00    +0.000 C 
ATOM     33  N   UNL     1      -5.062  11.169  16.481  0.00  0.00    +0.000 N 
ATOM     34  N   UNL     1      -4.118  10.362  14.657  0.00  0.00    +0.000 N 
ATOM     35  H   UNL     1      -4.986  11.720  17.324  0.00  0.00    +0.000 HD
ATOM     36  H   UNL     1      -5.726  11.575  15.834  0.00  0.00    +0.000 HD
ATOM     37  H   UNL     1      -3.271   9.920  14.309  0.00  0.00    +0.000 HD
ATOM     38  H   UNL     1      -4.887   9.703  14.648  0.00  0.00    +0.000 HD
ENDBRANCH  30  31
ENDBRANCH  29  30
ENDBRANCH  28  29
ENDBRANCH   1  28
TORSDOF 9
ENDMDL
MODEL 2
REMARK VINA RESULT:      -7.5      2.812      5.320
REMARK  Name = 
REMARK  11 active torsions:
REMARK  status: ('A' for Active; 'I' for Inactive)
REMARK    1  A    between atoms: C_1  and  O_2
REMARK    2  A    between atoms: O_2  and  C_3
REMARK    3  A    between atoms: C_8  and  S_9
REMARK    4  A    between atoms: S_9  and  N_12
REMARK    5  A    between atoms: N_12  and  C_13
REMARK    6  A    between atoms: C_13  and  C_14
REMARK    7  A    between atoms: C_13  and  C_21
REMARK    8  A    between atoms: C_14  and  C_15
REMARK    9  A    between atoms: C_15  and  C_16
REMARK   10  A    between atoms: C_16  and  N_17
REMARK   11  A    between atoms: C_26  and  C_27
REMARK                            x       y       z     vdW  Elec       q    Type
REMARK                         _______ _______ _______ _____ _____    ______ ____
ROOT
ATOM      1  C   UNL     1       2.162   7.523  18.340  0.00  0.00    +0.000 C 
ENDROOT
BRANCH   1   2
ATOM      2  C   UNL     1       2.145   6.452  19.485  0.00  0.00    +0.000 C 
ATOM      3  O   UNL     1       2.087   6.820  20.666  0.00  0.00    +0.000 OA
ATOM      4  N   UNL     1       2.209   5.097  19.157  0.00  0.00    +0.000 N 
ATOM      5  C   UNL     1       2.259   4.108  20.239  0.00  0.00    +0.000 C 
ATOM      6  C   UNL     1       3.181   2.941  19.874  0.00  0.00    +0.000 C 
ATOM      7  C   UNL     1       2.758   2.300  18.545  0.00  0.00    +0.000 C 
ATOM      8  C   UNL     1       3.717   1.181  18.142  0.00  0.00    +0.000 C 
ATOM      9  C   UNL     1       2.671   3.372  17.448  0.00  0.00    +0.000 C 
ATOM     10  C   UNL     1       1.790   4.547  17.870  0.00  0.00    +0.000 C 
ENDBRANCH   1   2
BRANCH   1  11
ATOM     11  N   UNL     1       2.154   8.848  18.995  0.00  0.00    +0.000 NA
ATOM     12  H   UNL     1       2.847   8.989  19.735  0.00  0.00    +0.000 HD
BRANCH  11  13
ATOM     13  S   UNL     1       1.007  10.043  18.816  0.00  0.00    +0.000 S 
ATOM     14  O   UNL     1      -0.024   9.548  17.933  0.00  0.00    +0.000 OA
ATOM     15  O   UNL     1       1.727  11.256  18.491  0.00  0.00    +0.000 OA
BRANCH  13  21
ATOM     16  C   UNL     1      -2.292  12.260  22.294  0.00  0.00    +0.000 A 
ATOM     17  C   UNL     1      -2.804  13.086  21.291  0.00  0.00    +0.000 A 
ATOM     18  C   UNL     1      -2.361  12.948  19.982  0.00  0.00    +0.000 A 
ATOM     19  C   UNL     1      -1.370  12.018  19.677  0.00  0.00    +0.000 A 
ATOM     20  C   UNL     1      -0.772  11.202  20.671  0.00  0.00    +0.000 A 
ATOM     21  C   UNL     1       0.278  10.275  20.429  0.00  0.00    +0.000 A 
ATOM     22  C   UNL     1       0.760   9.439  21.453  0.00  0.00    +0.000 A 
ATOM     23  C   UNL     1       0.227   9.519  22.730  0.00  0.00    +0.000 A 
ATOM     24  C   UNL     1      -0.766  10.456  22.998  0.00  0.00    +0.000 A 
ATOM     25  C   UNL     1      -1.276  11.314  21.998  0.00  0.00    +0.000 A 
BRANCH  16  27
ATOM     26  C   UNL     1      -4.078  12.641  23.813  0.00  0.00    +0.000 C 
ATOM     27  O   UNL     1      -2.697  12.353  23.606  0.00  0.00    +0.000 OA
ENDBRANCH  16  27
ENDBRANCH  13  21
ENDBRANCH  11  13
ENDBRANCH   1  11
BRANCH   1  28
ATOM     28  C   UNL     1       3.299   7.355  17.319  0.00  0.00    +0.000 C 
BRANCH  28  29
ATOM     29  C   UNL     1       4.738   7.208  17.831  0.00  0.00    +0.000 C 
BRANCH  29  30
ATOM     30  C   UNL     1       5.408   5.893  17.453  0.00  0.00    +0.000 C 
BRANCH  30  31
ATOM     31  N   UNL     1       6.251   6.123  16.282  0.00  0.00    +0.000 NA
ATOM     32  C   UNL     1       6.698   5.108  15.647  0.00  0.00    +0.000 C 
ATOM     33  N   UNL     1       6.497   3.788  15.851  0.00  0.00    +0.000 N 
ATOM     34  N   UNL     1       7.530   5.284  14.598  0.00  0.00    +0.000 N 
ATOM     35  H   UNL     1       5.742   3.560  16.482  0.00  0.00    +0.000 HD
ATOM     36  H   UNL     1       6.427   3.264  14.988  0.00  0.00    +0.000 HD
ATOM     37  H   UNL     1       7.853   6.248  14.587  0.00  0.00    +0.000 HD
ATOM     38  H   UNL     1       8.317   4.648  14.632  0.00  0.00    +0.000 HD
ENDBRANCH  30  31
ENDBRANCH  29  30
ENDBRANCH  28  29
ENDBRANCH   1  28
TORSDOF 9
ENDMDL
MODEL 3
REMARK VINA RESULT:      -7.4      3.028      5.769
REMARK  Name = 
REMARK  11 active torsions:
REMARK  status: ('A' for Active; 'I' for Inactive)
REMARK    1  A    between atoms: C_1  and  O_2
REMARK    2  A    between atoms: O_2  and  C_3
REMARK    3  A    between atoms: C_8  and  S_9
REMARK    4  A    between atoms: S_9  and  N_12
REMARK    5  A    between atoms: N_12  and  C_13
REMARK    6  A    between atoms: C_13  and  C_14
REMARK    7  A    between atoms: C_13  and  C_21
REMARK    8  A    between atoms: C_14  and  C_15
REMARK    9  A    between atoms: C_15  and  C_16
REMARK   10  A    between atoms: C_16  and  N_17
REMARK   11  A    between atoms: C_26  and  C_27
REMARK                            x       y       z     vdW  Elec       q    Type
REMARK                         _______ _______ _______ _____ _____    ______ ____
ROOT
ATOM      1  C   UNL     1       2.385   7.334  18.567  0.00  0.00    +0.000 C 
ENDROOT
BRANCH   1   2
ATOM      2  C   UNL     1       2.110   6.251  19.667  0.00  0.00    +0.000 C 
ATOM      3  O   UNL     1       1.820   6.607  20.817  0.00  0.00    +0.000 OA
ATOM      4  N   UNL     1       2.206   4.898  19.337  0.00  0.00    +0.000 N 
ATOM      5  C   UNL     1       2.011   3.896  20.389  0.00  0.00    +0.000 C 
ATOM      6  C   UNL     1       2.958   2.709  20.201  0.00  0.00    +0.000 C 
ATOM      7  C   UNL     1       2.800   2.095  18.803  0.00  0.00    +0.000 C 
ATOM      8  C   UNL     1       3.794   0.955  18.585  0.00  0.00    +0.000 C 
ATOM      9  C   UNL     1       2.965   3.180  17.729  0.00  0.00    +0.000 C 
ATOM     10  C   UNL     1       2.045   4.374  17.981  0.00  0.00    +0.000 C 
ENDBRANCH   1   2
BRANCH   1  11
ATOM     11  N   UNL     1       1.830   8.606  19.073  0.00  0.00    +0.000 NA
ATOM     12  H   UNL     1       1.702   8.671  20.087  0.00  0.00    +0.000 HD
BRANCH  11  13
ATOM     13  S   UNL     1       1.187   9.846  18.164  0.00  0.00    +0.000 S 
ATOM     14  O   UNL     1      -0.003   9.354  17.511  0.00  0.00    +0.000 OA
ATOM     15  O   UNL     1       2.278  10.390  17.383  0.00  0.00    +0.000 OA
BRANCH  13  21
ATOM     16  C   UNL     1      -0.788  11.619  22.731  0.00  0.00    +0.000 A 
ATOM     17  C   UNL     1      -0.992  10.307  23.160  0.00  0.00    +0.000 A 
ATOM     18  C   UNL     1      -0.579   9.243  22.367  0.00  0.00    +0.000 A 
ATOM     19  C   UNL     1      -0.006   9.486  21.121  0.00  0.00    +0.000 A 
ATOM     20  C   UNL     1       0.162  10.799  20.612  0.00  0.00    +0.000 A 
ATOM     21  C   UNL     1       0.689  11.105  19.328  0.00  0.00    +0.000 A 
ATOM     22  C   UNL     1       0.905  12.437  18.930  0.00  0.00    +0.000 A 
ATOM     23  C   UNL     1       0.585  13.482  19.783  0.00  0.00    +0.000 A 
ATOM     24  C   UNL     1       0.020  13.204  21.024  0.00  0.00    +0.000 A 
ATOM     25  C   UNL     1      -0.213  11.880  21.460  0.00  0.00    +0.000 A 
BRANCH  16  27
ATOM     26  C   UNL     1      -2.578  12.945  23.556  0.00  0.00    +0.000 C 
ATOM     27  O   UNL     1      -1.174  12.709  23.478  0.00  0.00    +0.000 OA
ENDBRANCH  16  27
ENDBRANCH  13  21
ENDBRANCH  11  13
ENDBRANCH   1  11
BRANCH   1  28
ATOM     28  C   UNL     1       3.854   7.443  18.126  0.00  0.00    +0.000 C 
BRANCH  28  29
ATOM     29  C   UNL     1       4.246   6.948  16.728  0.00  0.00    +0.000 C 
BRANCH  29  30
ATOM     30  C   UNL     1       5.293   5.841  16.723  0.00  0.00    +0.000 C 
BRANCH  30  31
ATOM     31  N   UNL     1       6.120   5.982  17.919  0.00  0.00    +0.000 NA
ATOM     32  C   UNL     1       7.255   6.559  17.807  0.00  0.00    +0.000 C 
ATOM     33  N   UNL     1       7.849   7.123  16.733  0.00  0.00    +0.000 N 
ATOM     34  N   UNL     1       8.071   6.651  18.878  0.00  0.00    +0.000 N 
ATOM     35  H   UNL     1       7.245   7.280  15.939  0.00  0.00    +0.000 HD
ATOM     36  H   UNL     1       8.373   7.957  16.968  0.00  0.00    +0.000 HD
ATOM     37  H   UNL     1       7.727   6.039  19.614  0.00  0.00    +0.000 HD
ATOM     38  H   UNL     1       9.028   6.415  18.643  0.00  0.00    +0.000 HD
ENDBRANCH  30  31
ENDBRANCH  29  30
ENDBRANCH  28  29
ENDBRANCH   1  28
TORSDOF 9
ENDMDL
MODEL 4
REMARK VINA RESULT:      -7.4      3.447      6.432
REMARK  Name = 
REMARK  11 active torsions:
REMARK  status: ('A' for Active; 'I' for Inactive)
REMARK    1  A    between atoms: C_1  and  O_2
REMARK    2  A    between atoms: O_2  and  C_3
REMARK    3  A    between atoms: C_8  and  S_9
REMARK    4  A    between atoms: S_9  and  N_12
REMARK    5  A    between atoms: N_12  and  C_13
REMARK    6  A    between atoms: C_13  and  C_14
REMARK    7  A    between atoms: C_13  and  C_21
REMARK    8  A    between atoms: C_14  and  C_15
REMARK    9  A    between atoms: C_15  and  C_16
REMARK   10  A    between atoms: C_16  and  N_17
REMARK   11  A    between atoms: C_26  and  C_27
REMARK                            x       y       z     vdW  Elec       q    Type
REMARK                         _______ _______ _______ _____ _____    ______ ____
ROOT
ATOM      1  C   UNL     1       3.308   5.954  18.951  0.00  0.00    +0.000 C 
ENDROOT
BRANCH   1   2
ATOM      2  C   UNL     1       4.773   5.402  18.884  0.00  0.00    +0.000 C 
ATOM      3  O   UNL     1       5.474   5.401  19.905  0.00  0.00    +0.000 OA
ATOM      4  N   UNL     1       5.273   4.928  17.670  0.00  0.00    +0.000 N 
ATOM      5  C   UNL     1       6.667   4.475  17.605  0.00  0.00    +0.000 C 
ATOM      6  C   UNL     1       7.308   4.861  16.270  0.00  0.00    +0.000 C 
ATOM      7  C   UNL     1       6.487   4.325  15.089  0.00  0.00    +0.000 C 
ATOM      8  C   UNL     1       7.085   4.768  13.754  0.00  0.00    +0.000 C 
ATOM      9  C   UNL     1       5.026   4.781  15.215  0.00  0.00    +0.000 C 
ATOM     10  C   UNL     1       4.436   4.430  16.580  0.00  0.00    +0.000 C 
ENDBRANCH   1   2
BRANCH   1  11
ATOM     11  N   UNL     1       3.346   7.333  18.421  0.00  0.00    +0.000 NA
ATOM     12  H   UNL     1       4.259   7.797  18.437  0.00  0.00    +0.000 HD
BRANCH  11  13
ATOM     13  S   UNL     1       2.040   8.281  18.011  0.00  0.00    +0.000 S 
ATOM     14  O   UNL     1       1.060   7.441  17.362  0.00  0.00    +0.000 OA
ATOM     15  O   UNL     1       2.574   9.442  17.329  0.00  0.00    +0.000 OA
BRANCH  13  21
ATOM     16  C   UNL     1      -1.034  11.348  21.019  0.00  0.00    +0.000 A 
ATOM     17  C   UNL     1      -1.466  12.038  19.885  0.00  0.00    +0.000 A 
ATOM     18  C   UNL     1      -1.038  11.642  18.624  0.00  0.00    +0.000 A 
ATOM     19  C   UNL     1      -0.140  10.585  18.494  0.00  0.00    +0.000 A 
ATOM     20  C   UNL     1       0.379   9.895  19.619  0.00  0.00    +0.000 A 
ATOM     21  C   UNL     1       1.337   8.848  19.552  0.00  0.00    +0.000 A 
ATOM     22  C   UNL     1       1.739   8.154  20.708  0.00  0.00    +0.000 A 
ATOM     23  C   UNL     1       1.216   8.497  21.945  0.00  0.00    +0.000 A 
ATOM     24  C   UNL     1       0.316   9.554  22.038  0.00  0.00    +0.000 A 
ATOM     25  C   UNL     1      -0.112  10.276  20.901  0.00  0.00    +0.000 A 
BRANCH  16  27
ATOM     26  C   UNL     1      -1.025  12.990  22.735  0.00  0.00    +0.000 C 
ATOM     27  O   UNL     1      -1.427  11.697  22.291  0.00  0.00    +0.000 OA
ENDBRANCH  16  27
ENDBRANCH  13  21
ENDBRANCH  11  13
ENDBRANCH   1  11
BRANCH   1  28
ATOM     28  C   UNL     1       2.254   5.068  18.267  0.00  0.00    +0.000 C 
BRANCH  28  29
ATOM     29  C   UNL     1       1.372   4.161  19.135  0.00  0.00    +0.000 C 
BRANCH  29  30
ATOM     30  C   UNL     1       2.145   3.162  19.988  0.00  0.00    +0.000 C 
BRANCH  30  31
ATOM     31  N   UNL     1       2.552   2.046  19.137  0.00  0.00    +0.000 NA
ATOM     32  C   UNL     1       3.783   1.701  19.135  0.00  0.00    +0.000 C 
ATOM     33  N   UNL     1       4.828   2.183  19.840  0.00  0.00    +0.000 N 
ATOM     34  N   UNL     1       4.203   0.716  18.314  0.00  0.00    +0.000 N 
ATOM     35  H   UNL     1       4.586   2.782  20.616  0.00  0.00    +0.000 HD
ATOM     36  H   UNL     1       5.478   1.460  20.122  0.00  0.00    +0.000 HD
ATOM     37  H   UNL     1       3.475   0.512  17.636  0.00  0.00    +0.000 HD
ATOM     38  H   UNL     1       5.065   0.962  17.843  0.00  0.00    +0.000 HD
ENDBRANCH  30  31
ENDBRANCH  29  30
ENDBRANCH  28  29
ENDBRANCH   1  28
TORSDOF 9
ENDMDL
MODEL 5
REMARK VINA RESULT:      -7.4      2.868      5.569
REMARK  Name = 
REMARK  11 active torsions:
REMARK  status: ('A' for Active; 'I' for Inactive)
REMARK    1  A    between atoms: C_1  and  O_2
REMARK    2  A    between atoms: O_2  and  C_3
REMARK    3  A    between atoms: C_8  and  S_9
REMARK    4  A    between atoms: S_9  and  N_12
REMARK    5  A    between atoms: N_12  and  C_13
REMARK    6  A    between atoms: C_13  and  C_14
REMARK    7  A    between atoms: C_13  and  C_21
REMARK    8  A    between atoms: C_14  and  C_15
REMARK    9  A    between atoms: C_15  and  C_16
REMARK   10  A    between atoms: C_16  and  N_17
REMARK   11  A    between atoms: C_26  and  C_27
REMARK                            x       y       z     vdW  Elec       q    Type
REMARK                         _______ _______ _______ _____ _____    ______ ____
ROOT
ATOM      1  C   UNL     1       2.203   7.298  18.276  0.00  0.00    +0.000 C 
ENDROOT
BRANCH   1   2
ATOM      2  C   UNL     1       2.122   6.231  19.423  0.00  0.00    +0.000 C 
ATOM      3  O   UNL     1       1.943   6.602  20.590  0.00  0.00    +0.000 OA
ATOM      4  N   UNL     1       2.263   4.878  19.112  0.00  0.00    +0.000 N 
ATOM      5  C   UNL     1       2.252   3.896  20.201  0.00  0.00    +0.000 C 
ATOM      6  C   UNL     1       3.244   2.762  19.929  0.00  0.00    +0.000 C 
ATOM      7  C   UNL     1       2.966   2.101  18.572  0.00  0.00    +0.000 C 
ATOM      8  C   UNL     1       3.998   1.016  18.265  0.00  0.00    +0.000 C 
ATOM      9  C   UNL     1       2.941   3.164  17.464  0.00  0.00    +0.000 C 
ATOM     10  C   UNL     1       1.982   4.308  17.796  0.00  0.00    +0.000 C 
ENDBRANCH   1   2
BRANCH   1  11
ATOM     11  N   UNL     1       2.242   8.623  18.928  0.00  0.00    +0.000 NA
ATOM     12  H   UNL     1       2.930   8.737  19.677  0.00  0.00    +0.000 HD
BRANCH  11  13
ATOM     13  S   UNL     1       1.148   9.864  18.732  0.00  0.00    +0.000 S 
ATOM     14  O   UNL     1       0.092   9.401  17.862  0.00  0.00    +0.000 OA
ATOM     15  O   UNL     1       1.919  11.039  18.383  0.00  0.00    +0.000 OA
BRANCH  13  21
ATOM     16  C   UNL     1      -2.019  12.301  22.187  0.00  0.00    +0.000 A 
ATOM     17  C   UNL     1      -2.488  13.140  21.175  0.00  0.00    +0.000 A 
ATOM     18  C   UNL     1      -2.056  12.961  19.866  0.00  0.00    +0.000 A 
ATOM     19  C   UNL     1      -1.118  11.975  19.572  0.00  0.00    +0.000 A 
ATOM     20  C   UNL     1      -0.562  11.141  20.575  0.00  0.00    +0.000 A 
ATOM     21  C   UNL     1       0.437  10.156  20.344  0.00  0.00    +0.000 A 
ATOM     22  C   UNL     1       0.876   9.309  21.377  0.00  0.00    +0.000 A 
ATOM     23  C   UNL     1       0.350   9.434  22.654  0.00  0.00    +0.000 A 
ATOM     24  C   UNL     1      -0.590  10.427  22.912  0.00  0.00    +0.000 A 
ATOM     25  C   UNL     1      -1.056  11.298  21.902  0.00  0.00    +0.000 A 
BRANCH  16  27
ATOM     26  C   UNL     1      -3.821  12.510  23.720  0.00  0.00    +0.000 C 
ATOM     27  O   UNL     1      -2.415  12.431  23.499  0.00  0.00    +0.000 OA
ENDBRANCH  16  27
ENDBRANCH  13  21
ENDBRANCH  11  13
ENDBRANCH   1  11
BRANCH   1  28
ATOM     28  C   UNL     1       3.347   7.078  17.274  0.00  0.00    +0.000 C 
BRANCH  28  29
ATOM     29  C   UNL     1       4.785   7.386  17.712  0.00  0.00    +0.000 C 
BRANCH  29  30
ATOM     30  C   UNL     1       5.835   6.446  17.131  0.00  0.00    +0.000 C 
BRANCH  30  31
ATOM     31  N   UNL     1       6.980   6.414  18.038  0.00  0.00    +0.000 NA
ATOM     32  C   UNL     1       7.123   5.398  18.799  0.00  0.00    +0.000 C 
ATOM     33  N   UNL     1       6.388   4.270  18.902  0.00  0.00    +0.000 N 
ATOM     34  N   UNL     1       8.134   5.364  19.692  0.00  0.00    +0.000 N 
ATOM     35  H   UNL     1       5.732   4.112  18.150  0.00  0.00    +0.000 HD
ATOM     36  H   UNL     1       6.953   3.448  19.077  0.00  0.00    +0.000 HD
ATOM     37  H   UNL     1       8.543   6.292  19.769  0.00  0.00    +0.000 HD
ATOM     38  H   UNL     1       7.823   5.040  20.600  0.00  0.00    +0.000 HD
ENDBRANCH  30  31
ENDBRANCH  29  30
ENDBRANCH  28  29
ENDBRANCH   1  28
TORSDOF 9
ENDMDL
MODEL 6
REMARK VINA RESULT:      -7.3      2.299      7.567
REMARK  Name = 
REMARK  11 active torsions:
REMARK  status: ('A' for Active; 'I' for Inactive)
REMARK    1  A    between atoms: C_1  and  O_2
REMARK    2  A    between atoms: O_2  and  C_3
REMARK    3  A    between atoms: C_8  and  S_9
REMARK    4  A    between atoms: S_9  and  N_12
REMARK    5  A    between atoms: N_12  and  C_13
REMARK    6  A    between atoms: C_13  and  C_14
REMARK    7  A    between atoms: C_13  and  C_21
REMARK    8  A    between atoms: C_14  and  C_15
REMARK    9  A    between atoms: C_15  and  C_16
REMARK   10  A    between atoms: C_16  and  N_17
REMARK   11  A    between atoms: C_26  and  C_27
REMARK                            x       y       z     vdW  Elec       q    Type
REMARK                         _______ _______ _______ _____ _____    ______ ____
ROOT
ATOM      1  C   UNL     1      -0.526  11.240  20.482  0.00  0.00    +0.000 C 
ENDROOT
BRANCH   1   2
ATOM      2  C   UNL     1      -1.103  11.876  21.795  0.00  0.00    +0.000 C 
ATOM      3  O   UNL     1      -0.454  11.801  22.847  0.00  0.00    +0.000 OA
ATOM      4  N   UNL     1      -2.346  12.509  21.761  0.00  0.00    +0.000 N 
ATOM      5  C   UNL     1      -2.904  13.041  23.009  0.00  0.00    +0.000 C 
ATOM      6  C   UNL     1      -4.421  12.843  23.061  0.00  0.00    +0.000 C 
ATOM      7  C   UNL     1      -5.100  13.463  21.831  0.00  0.00    +0.000 C 
ATOM      8  C   UNL     1      -6.606  13.205  21.843  0.00  0.00    +0.000 C 
ATOM      9  C   UNL     1      -4.460  12.917  20.546  0.00  0.00    +0.000 C 
ATOM     10  C   UNL     1      -2.940  13.080  20.554  0.00  0.00    +0.000 C 
ENDBRANCH   1   2
BRANCH   1  11
ATOM     11  N   UNL     1       0.758  10.605  20.845  0.00  0.00    +0.000 NA
ATOM     12  H   UNL     1       1.603  11.144  20.637  0.00  0.00    +0.000 HD
BRANCH  11  13
ATOM     13  S   UNL     1       0.987   9.031  21.342  0.00  0.00    +0.000 S 
ATOM     14  O   UNL     1      -0.311   8.433  21.554  0.00  0.00    +0.000 OA
ATOM     15  O   UNL     1       1.955   9.078  22.417  0.00  0.00    +0.000 OA
BRANCH  13  21
ATOM     16  C   UNL     1       3.046   4.853  18.851  0.00  0.00    +0.000 A 
ATOM     17  C   UNL     1       2.797   4.055  19.970  0.00  0.00    +0.000 A 
ATOM     18  C   UNL     1       2.139   4.588  21.072  0.00  0.00    +0.000 A 
ATOM     19  C   UNL     1       1.771   5.931  21.080  0.00  0.00    +0.000 A 
ATOM     20  C   UNL     1       2.060   6.798  19.996  0.00  0.00    +0.000 A 
ATOM     21  C   UNL     1       1.758   8.187  19.970  0.00  0.00    +0.000 A 
ATOM     22  C   UNL     1       1.999   8.962  18.821  0.00  0.00    +0.000 A 
ATOM     23  C   UNL     1       2.558   8.383  17.692  0.00  0.00    +0.000 A 
ATOM     24  C   UNL     1       2.909   7.037  17.716  0.00  0.00    +0.000 A 
ATOM     25  C   UNL     1       2.684   6.225  18.850  0.00  0.00    +0.000 A 
BRANCH  16  27
ATOM     26  C   UNL     1       3.434   3.015  17.398  0.00  0.00    +0.000 C 
ATOM     27  O   UNL     1       3.691   4.376  17.732  0.00  0.00    +0.000 OA
ENDBRANCH  16  27
ENDBRANCH  13  21
ENDBRANCH  11  13
ENDBRANCH   1  11
BRANCH   1  28
ATOM     28  C   UNL     1      -1.490  10.292  19.750  0.00  0.00    +0.000 C 
BRANCH  28  29
ATOM     29  C   UNL     1      -1.547  10.334  18.218  0.00  0.00    +0.000 C 
BRANCH  29  30
ATOM     30  C   UNL     1      -2.857   9.828  17.624  0.00  0.00    +0.000 C 
BRANCH  30  31
ATOM     31  N   UNL     1      -2.636   9.522  16.213  0.00  0.00    +0.000 NA
ATOM     32  C   UNL     1      -3.022  10.372  15.339  0.00  0.00    +0.000 C 
ATOM     33  N   UNL     1      -3.598  11.583  15.491  0.00  0.00    +0.000 N 
ATOM     34  N   UNL     1      -2.890  10.092  14.025  0.00  0.00    +0.000 N 
ATOM     35  H   UNL     1      -3.560  11.965  16.425  0.00  0.00    +0.000 HD
ATOM     36  H   UNL     1      -3.280  12.257  14.805  0.00  0.00    +0.000 HD
ATOM     37  H   UNL     1      -2.669   9.106  13.914  0.00  0.00    +0.000 HD
ATOM     38  H   UNL     1      -3.727  10.327  13.505  0.00  0.00    +0.000 HD
ENDBRANCH  30  31
ENDBRANCH  29  30
ENDBRANCH  28  29
ENDBRANCH   1  28
TORSDOF 9
ENDMDL
MODEL 7
REMARK VINA RESULT:      -7.3      2.970      5.745
REMARK  Name = 
REMARK  11 active torsions:
REMARK  status: ('A' for Active; 'I' for Inactive)
REMARK    1  A    between atoms: C_1  and  O_2
REMARK    2  A    between atoms: O_2  and  C_3
REMARK    3  A    between atoms: C_8  and  S_9
REMARK    4  A    between atoms: S_9  and  N_12
REMARK    5  A    between atoms: N_12  and  C_13
REMARK    6  A    between atoms: C_13  and  C_14
REMARK    7  A    between atoms: C_13  and  C_21
REMARK    8  A    between atoms: C_14  and  C_15
REMARK    9  A    between atoms: C_15  and  C_16
REMARK   10  A    between atoms: C_16  and  N_17
REMARK   11  A    between atoms: C_26  and  C_27
REMARK                            x       y       z     vdW  Elec       q    Type
REMARK                         _______ _______ _______ _____ _____    ______ ____
ROOT
ATOM      1  C   UNL     1       2.287   7.436  18.452  0.00  0.00    +0.000 C 
ENDROOT
BRANCH   1   2
ATOM      2  C   UNL     1       2.289   6.394  19.624  0.00  0.00    +0.000 C 
ATOM      3  O   UNL     1       2.281   6.792  20.796  0.00  0.00    +0.000 OA
ATOM      4  N   UNL     1       2.310   5.030  19.329  0.00  0.00    +0.000 N 
ATOM      5  C   UNL     1       2.378   4.067  20.433  0.00  0.00    +0.000 C 
ATOM      6  C   UNL     1       3.259   2.871  20.066  0.00  0.00    +0.000 C 
ATOM      7  C   UNL     1       2.774   2.207  18.770  0.00  0.00    +0.000 C 
ATOM      8  C   UNL     1       3.693   1.056  18.361  0.00  0.00    +0.000 C 
ATOM      9  C   UNL     1       2.671   3.253  17.649  0.00  0.00    +0.000 C 
ATOM     10  C   UNL     1       1.832   4.458  18.072  0.00  0.00    +0.000 C 
ENDBRANCH   1   2
BRANCH   1  11
ATOM     11  N   UNL     1       1.714   8.685  18.993  0.00  0.00    +0.000 NA
ATOM     12  H   UNL     1       1.585   8.721  20.008  0.00  0.00    +0.000 HD
BRANCH  11  13
ATOM     13  S   UNL     1       1.053   9.940  18.119  0.00  0.00    +0.000 S 
ATOM     14  O   UNL     1      -0.138   9.453  17.461  0.00  0.00    +0.000 OA
ATOM     15  O   UNL     1       2.133  10.514  17.344  0.00  0.00    +0.000 OA
BRANCH  13  21
ATOM     16  C   UNL     1      -0.831  11.583  22.772  0.00  0.00    +0.000 A 
ATOM     17  C   UNL     1      -0.974  10.258  23.189  0.00  0.00    +0.000 A 
ATOM     18  C   UNL     1      -0.552   9.220  22.367  0.00  0.00    +0.000 A 
ATOM     19  C   UNL     1      -0.029   9.500  21.107  0.00  0.00    +0.000 A 
ATOM     20  C   UNL     1       0.076  10.824  20.612  0.00  0.00    +0.000 A 
ATOM     21  C   UNL     1       0.550  11.166  19.316  0.00  0.00    +0.000 A 
ATOM     22  C   UNL     1       0.705  12.510  18.930  0.00  0.00    +0.000 A 
ATOM     23  C   UNL     1       0.378  13.532  19.808  0.00  0.00    +0.000 A 
ATOM     24  C   UNL     1      -0.136  13.217  21.062  0.00  0.00    +0.000 A 
ATOM     25  C   UNL     1      -0.308  11.880  21.487  0.00  0.00    +0.000 A 
BRANCH  16  27
ATOM     26  C   UNL     1      -2.636  12.871  23.623  0.00  0.00    +0.000 C 
ATOM     27  O   UNL     1      -1.230  12.649  23.546  0.00  0.00    +0.000 OA
ENDBRANCH  16  27
ENDBRANCH  13  21
ENDBRANCH  11  13
ENDBRANCH   1  11
BRANCH   1  28
ATOM     28  C   UNL     1       3.650   7.637  17.769  0.00  0.00    +0.000 C 
BRANCH  28  29
ATOM     29  C   UNL     1       4.594   6.436  17.634  0.00  0.00    +0.000 C 
BRANCH  29  30
ATOM     30  C   UNL     1       5.929   6.757  16.971  0.00  0.00    +0.000 C 
BRANCH  30  31
ATOM     31  N   UNL     1       5.997   6.041  15.699  0.00  0.00    +0.000 NA
ATOM     32  C   UNL     1       6.832   5.079  15.588  0.00  0.00    +0.000 C 
ATOM     33  N   UNL     1       7.686   4.552  16.491  0.00  0.00    +0.000 N 
ATOM     34  N   UNL     1       6.965   4.438  14.408  0.00  0.00    +0.000 N 
ATOM     35  H   UNL     1       7.525   4.828  17.449  0.00  0.00    +0.000 HD
ATOM     36  H   UNL     1       7.773   3.547  16.408  0.00  0.00    +0.000 HD
ATOM     37  H   UNL     1       6.494   4.972  13.682  0.00  0.00    +0.000 HD
ATOM     38  H   UNL     1       7.937   4.294  14.165  0.00  0.00    +0.000 HD
ENDBRANCH  30  31
ENDBRANCH  29  30
ENDBRANCH  28  29
ENDBRANCH   1  28
TORSDOF 9
ENDMDL
MODEL 8
REMARK VINA RESULT:      -7.3      3.110      4.682
REMARK  Name = 
REMARK  11 active torsions:
REMARK  status: ('A' for Active; 'I' for Inactive)
REMARK    1  A    between atoms: C_1  and  O_2
REMARK    2  A    between atoms: O_2  and  C_3
REMARK    3  A    between atoms: C_8  and  S_9
REMARK    4  A    between atoms: S_9  and  N_12
REMARK    5  A    between atoms: N_12  and  C_13
REMARK    6  A    between atoms: C_13  and  C_14
REMARK    7  A    between atoms: C_13  and  C_21
REMARK    8  A    between atoms: C_14  and  C_15
REMARK    9  A    between atoms: C_15  and  C_16
REMARK   10  A    between atoms: C_16  and  N_17
REMARK   11  A    between atoms: C_26  and  C_27
REMARK                            x       y       z     vdW  Elec       q    Type
REMARK                         _______ _______ _______ _____ _____    ______ ____
ROOT
ATOM      1  C   UNL     1       0.599  10.401  19.349  0.00  0.00    +0.000 C 
ENDROOT
BRANCH   1   2
ATOM      2  C   UNL     1       1.569   9.480  18.530  0.00  0.00    +0.000 C 
ATOM      3  O   UNL     1       2.015   9.875  17.445  0.00  0.00    +0.000 OA
ATOM      4  N   UNL     1       1.907   8.222  19.031  0.00  0.00    +0.000 N 
ATOM      5  C   UNL     1       2.762   7.345  18.225  0.00  0.00    +0.000 C 
ATOM      6  C   UNL     1       2.329   5.883  18.357  0.00  0.00    +0.000 C 
ATOM      7  C   UNL     1       2.304   5.447  19.829  0.00  0.00    +0.000 C 
ATOM      8  C   UNL     1       1.804   4.009  19.970  0.00  0.00    +0.000 C 
ATOM      9  C   UNL     1       1.437   6.413  20.649  0.00  0.00    +0.000 C 
ATOM     10  C   UNL     1       1.862   7.868  20.449  0.00  0.00    +0.000 C 
ENDBRANCH   1   2
BRANCH   1  11
ATOM     11  N   UNL     1       1.208  11.746  19.375  0.00  0.00    +0.000 NA
ATOM     12  H   UNL     1       1.770  12.003  18.559  0.00  0.00    +0.000 HD
BRANCH  11  13
ATOM     13  S   UNL     1       1.263  12.792  20.671  0.00  0.00    +0.000 S 
ATOM     14  O   UNL     1       2.639  12.909  21.096  0.00  0.00    +0.000 OA
ATOM     15  O   UNL     1       0.246  12.347  21.600  0.00  0.00    +0.000 OA
BRANCH  13  21
ATOM     16  C   UNL     1       1.800  17.202  17.813  0.00  0.00    +0.000 A 
ATOM     17  C   UNL     1       3.047  16.766  17.362  0.00  0.00    +0.000 A 
ATOM     18  C   UNL     1       3.520  15.511  17.729  0.00  0.00    +0.000 A 
ATOM     19  C   UNL     1       2.771  14.709  18.587  0.00  0.00    +0.000 A 
ATOM     20  C   UNL     1       1.530  15.135  19.124  0.00  0.00    +0.000 A 
ATOM     21  C   UNL     1       0.749  14.383  20.044  0.00  0.00    +0.000 A 
ATOM     22  C   UNL     1      -0.514  14.837  20.466  0.00  0.00    +0.000 A 
ATOM     23  C   UNL     1      -1.014  16.043  20.001  0.00  0.00    +0.000 A 
ATOM     24  C   UNL     1      -0.242  16.818  19.140  0.00  0.00    +0.000 A 
ATOM     25  C   UNL     1       1.032  16.398  18.695  0.00  0.00    +0.000 A 
BRANCH  16  27
ATOM     26  C   UNL     1       0.785  18.558  16.149  0.00  0.00    +0.000 C 
ATOM     27  O   UNL     1       1.283  18.433  17.479  0.00  0.00    +0.000 OA
ENDBRANCH  16  27
ENDBRANCH  13  21
ENDBRANCH  11  13
ENDBRANCH   1  11
BRANCH   1  28
ATOM     28  C   UNL     1      -0.857  10.400  18.855  0.00  0.00    +0.000 C 
BRANCH  28  29
ATOM     29  C   UNL     1      -1.363  11.598  18.041  0.00  0.00    +0.000 C 
BRANCH  29  30
ATOM     30  C   UNL     1      -2.463  11.259  17.042  0.00  0.00    +0.000 C 
BRANCH  30  31
ATOM     31  N   UNL     1      -3.552  10.601  17.759  0.00  0.00    +0.000 NA
ATOM     32  C   UNL     1      -4.698  11.167  17.775  0.00  0.00    +0.000 C 
ATOM     33  N   UNL     1      -5.119  12.309  17.191  0.00  0.00    +0.000 N 
ATOM     34  N   UNL     1      -5.709  10.618  18.480  0.00  0.00    +0.000 N 
ATOM     35  H   UNL     1      -4.500  12.688  16.489  0.00  0.00    +0.000 HD
ATOM     36  H   UNL     1      -6.070  12.247  16.850  0.00  0.00    +0.000 HD
ATOM     37  H   UNL     1      -5.337   9.894  19.091  0.00  0.00    +0.000 HD
ATOM     38  H   UNL     1      -6.211  11.311  19.022  0.00  0.00    +0.000 HD
ENDBRANCH  30  31
ENDBRANCH  29  30
ENDBRANCH  28  29
ENDBRANCH   1  28
TORSDOF 9
ENDMDL
MODEL 9
REMARK VINA RESULT:      -7.3      2.982      8.279
REMARK  Name = 
REMARK  11 active torsions:
REMARK  status: ('A' for Active; 'I' for Inactive)
REMARK    1  A    between atoms: C_1  and  O_2
REMARK    2  A    between atoms: O_2  and  C_3
REMARK    3  A    between atoms: C_8  and  S_9
REMARK    4  A    between atoms: S_9  and  N_12
REMARK    5  A    between atoms: N_12  and  C_13
REMARK    6  A    between atoms: C_13  and  C_14
REMARK    7  A    between atoms: C_13  and  C_21
REMARK    8  A    between atoms: C_14  and  C_15
REMARK    9  A    between atoms: C_15  and  C_16
REMARK   10  A    between atoms: C_16  and  N_17
REMARK   11  A    between atoms: C_26  and  C_27
REMARK                            x       y       z     vdW  Elec       q    Type
REMARK                         _______ _______ _______ _____ _____    ______ ____
ROOT
ATOM      1  C   UNL     1      -0.897  11.755  21.564  0.00  0.00    +0.000 C 
ENDROOT
BRANCH   1   2
ATOM      2  C   UNL     1      -2.260  12.175  20.913  0.00  0.00    +0.000 C 
ATOM      3  O   UNL     1      -2.428  12.028  19.695  0.00  0.00    +0.000 OA
ATOM      4  N   UNL     1      -3.264  12.720  21.716  0.00  0.00    +0.000 N 
ATOM      5  C   UNL     1      -4.509  13.170  21.085  0.00  0.00    +0.000 C 
ATOM      6  C   UNL     1      -5.036  14.442  21.754  0.00  0.00    +0.000 C 
ATOM      7  C   UNL     1      -5.213  14.236  23.265  0.00  0.00    +0.000 C 
ATOM      8  C   UNL     1      -5.671  15.525  23.948  0.00  0.00    +0.000 C 
ATOM      9  C   UNL     1      -3.904  13.723  23.883  0.00  0.00    +0.000 C 
ATOM     10  C   UNL     1      -3.378  12.486  23.154  0.00  0.00    +0.000 C 
ENDBRANCH   1   2
BRANCH   1  11
ATOM     11  N   UNL     1      -0.362  10.642  20.752  0.00  0.00    +0.000 NA
ATOM     12  H   UNL     1      -0.599  10.655  19.757  0.00  0.00    +0.000 HD
BRANCH  11  13
ATOM     13  S   UNL     1       0.388   9.266  21.317  0.00  0.00    +0.000 S 
ATOM     14  O   UNL     1      -0.633   8.292  21.628  0.00  0.00    +0.000 OA
ATOM     15  O   UNL     1       1.322   9.697  22.336  0.00  0.00    +0.000 OA
BRANCH  13  21
ATOM     16  C   UNL     1       3.181   5.598  18.738  0.00  0.00    +0.000 A 
ATOM     17  C   UNL     1       2.996   4.705  19.795  0.00  0.00    +0.000 A 
ATOM     18  C   UNL     1       2.208   5.066  20.882  0.00  0.00    +0.000 A 
ATOM     19  C   UNL     1       1.642   6.337  20.939  0.00  0.00    +0.000 A 
ATOM     20  C   UNL     1       1.854   7.302  19.922  0.00  0.00    +0.000 A 
ATOM     21  C   UNL     1       1.348   8.630  19.952  0.00  0.00    +0.000 A 
ATOM     22  C   UNL     1       1.531   9.503  18.863  0.00  0.00    +0.000 A 
ATOM     23  C   UNL     1       2.229   9.084  17.742  0.00  0.00    +0.000 A 
ATOM     24  C   UNL     1       2.777   7.805  17.715  0.00  0.00    +0.000 A 
ATOM     25  C   UNL     1       2.616   6.899  18.788  0.00  0.00    +0.000 A 
BRANCH  16  27
ATOM     26  C   UNL     1       5.189   4.644  17.904  0.00  0.00    +0.000 C 
ATOM     27  O   UNL     1       3.948   5.292  17.637  0.00  0.00    +0.000 OA
ENDBRANCH  16  27
ENDBRANCH  13  21
ENDBRANCH  11  13
ENDBRANCH   1  11
BRANCH   1  28
ATOM     28  C   UNL     1       0.105  12.905  21.756  0.00  0.00    +0.000 C 
BRANCH  28  29
ATOM     29  C   UNL     1       1.283  13.032  20.781  0.00  0.00    +0.000 C 
BRANCH  29  30
ATOM     30  C   UNL     1       0.997  13.897  19.559  0.00  0.00    +0.000 C 
BRANCH  30  31
ATOM     31  N   UNL     1       2.259  14.462  19.087  0.00  0.00    +0.000 NA
ATOM     32  C   UNL     1       2.894  13.844  18.166  0.00  0.00    +0.000 C 
ATOM     33  N   UNL     1       2.578  12.721  17.487  0.00  0.00    +0.000 N 
ATOM     34  N   UNL     1       4.093  14.305  17.751  0.00  0.00    +0.000 N 
ATOM     35  H   UNL     1       1.622  12.413  17.583  0.00  0.00    +0.000 HD
ATOM     36  H   UNL     1       2.857  12.759  16.514  0.00  0.00    +0.000 HD
ATOM     37  H   UNL     1       4.427  15.007  18.406  0.00  0.00    +0.000 HD
ATOM     38  H   UNL     1       4.771  13.558  17.659  0.00  0.00    +0.000 HD
ENDBRANCH  30  31
ENDBRANCH  29  30
ENDBRANCH  28  29
ENDBRANCH   1  28
TORSDOF 9
ENDMDL
