MODEL 1
REMARK VINA RESULT:      -8.3      0.000      0.000
REMARK  Name = 
REMARK  11 active torsions:
REMARK  status: ('A' for Active; 'I' for Inactive)
REMARK    1  A    between atoms: C_1  and  C_2
REMARK    2  A    between atoms: C_2  and  C_3
REMARK    3  A    between atoms: C_3  and  C_4
REMARK    4  A    between atoms: C_4  and  C_5
REMARK    5  A    between atoms: C_5  and  C_6
REMARK    6  A    between atoms: C_6  and  C_7
REMARK    7  A    between atoms: C_8  and  C_9
REMARK    8  A    between atoms: C_12  and  S_13
REMARK    9  A    between atoms: S_13  and  N_16
REMARK   10  A    between atoms: N_16  and  C_17
REMARK   11  A    between atoms: C_21  and  C_22
REMARK                            x       y       z     vdW  Elec       q    Type
REMARK                         _______ _______ _______ _____ _____    ______ ____
ROOT
ATOM      1  S   UNL     1       2.185   4.393  20.383  0.00  0.00    +0.000 S 
ATOM      2  O   UNL     1       0.822   4.261  19.921  0.00  0.00    +0.000 OA
ATOM      3  O   UNL     1       2.732   3.472  21.363  0.00  0.00    +0.000 OA
ENDROOT
BRANCH   1   7
ATOM      4  C   UNL     1       4.771   4.067  16.632  0.00  0.00    +0.000 A 
ATOM      5  C   UNL     1       3.393   3.856  16.585  0.00  0.00    +0.000 A 
ATOM      6  C   UNL     1       2.631   3.976  17.742  0.00  0.00    +0.000 A 
ATOM      7  C   UNL     1       3.250   4.283  18.961  0.00  0.00    +0.000 A 
ATOM      8  C   UNL     1       4.626   4.520  19.016  0.00  0.00    +0.000 A 
ATOM      9  C   UNL     1       5.388   4.398  17.844  0.00  0.00    +0.000 A 
BRANCH   4  11
ATOM     10  C   UNL     1       6.159   3.972  14.398  0.00  0.00    +0.000 C 
ATOM     11  C   UNL     1       5.523   3.969  15.428  0.00  0.00    +0.000 C 
BRANCH  10  12
ATOM     12  C   UNL     1       6.955   4.058  13.173  0.00  0.00    +0.000 C 
BRANCH  12  13
ATOM     13  C   UNL     1       6.260   3.307  12.037  0.00  0.00    +0.000 C 
BRANCH  13  14
ATOM     14  C   UNL     1       4.750   3.250  12.253  0.00  0.00    +0.000 C 
BRANCH  14  15
ATOM     15  C   UNL     1       4.016   3.003  10.936  0.00  0.00    +0.000 C 
BRANCH  15  17
ATOM     16  C   UNL     1       2.720   4.063   9.062  0.00  0.00    +0.000 C 
ATOM     17  C   UNL     1       3.515   4.313  10.332  0.00  0.00    +0.000 C 
ENDBRANCH  15  17
ENDBRANCH  14  15
ENDBRANCH  13  14
ENDBRANCH  12  13
ENDBRANCH  10  12
ENDBRANCH   4  11
ENDBRANCH   1   7
BRANCH   1  18
ATOM     18  N   UNL     1       2.376   5.969  20.953  0.00  0.00    +0.000 N 
ATOM     19  H   UNL     1       2.527   6.106  21.946  0.00  0.00    +0.000 HD
BRANCH  18  20
ATOM     20  C   UNL     1       1.989   7.103  20.186  0.00  0.00    +0.000 A 
ATOM     21  C   UNL     1       2.470   7.238  18.884  0.00  0.00    +0.000 A 
ATOM     22  C   UNL     1       2.204   8.395  18.150  0.00  0.00    +0.000 A 
ATOM     23  C   UNL     1       1.444   9.421  18.709  0.00  0.00    +0.000 A 
ATOM     24  C   UNL     1       0.963   9.295  20.016  0.00  0.00    +0.000 A 
ATOM     25  C   UNL     1       1.249   8.138  20.756  0.00  0.00    +0.000 A 
BRANCH  24  26
ATOM     26  C   UNL     1       0.200  10.364  20.640  0.00  0.00    +0.000 A 
ATOM     27  C   UNL     1       0.069  11.628  20.103  0.00  0.00    +0.000 A 
ATOM     28  S   UNL     1      -0.917  12.584  21.126  0.00  0.00    +0.000 S 
ATOM     29  C   UNL     1      -1.078  11.255  22.202  0.00  0.00    +0.000 A 
ATOM     30  N   UNL     1      -1.767  11.359  23.343  0.00  0.00    +0.000 N 
ATOM     31  N   UNL     1      -0.478  10.153  21.828  0.00  0.00    +0.000 NA
ATOM     32  H   UNL     1      -2.356  12.160  23.524  0.00  0.00    +0.000 HD
ATOM     33  H   UNL     1      -1.966  10.515  23.865  0.00  0.00    +0.000 HD
ENDBRANCH  24  26
ENDBRANCH  18  20
ENDBRANCH   1  18
TORSDOF 10
ENDMDL
MODEL 2
REMARK VINA RESULT:      -8.2      4.454      6.725
REMARK  Name = 
REMARK  11 active torsions:
REMARK  status: ('A' for Active; 'I' for Inactive)
REMARK    1  A    between atoms: C_1  and  C_2
REMARK    2  A    between atoms: C_2  and  C_3
REMARK    3  A    between atoms: C_3  and  C_4
REMARK    4  A    between atoms: C_4  and  C_5
REMARK    5  A    between atoms: C_5  and  C_6
REMARK    6  A    between atoms: C_6  and  C_7
REMARK    7  A    between atoms: C_8  and  C_9
REMARK    8  A    between atoms: C_12  and  S_13
REMARK    9  A    between atoms: S_13  and  N_16
REMARK   10  A    between atoms: N_16  and  C_17
REMARK   11  A    between atoms: C_21  and  C_22
REMARK                            x       y       z     vdW  Elec       q    Type
REMARK                         _______ _______ _______ _____ _____    ______ ____
ROOT
ATOM      1  S   UNL     1       0.349  11.640  19.565  0.00  0.00    +0.000 S 
ATOM      2  O   UNL     1      -0.572  11.409  20.655  0.00  0.00    +0.000 OA
ATOM      3  O   UNL     1       1.398  12.638  19.676  0.00  0.00    +0.000 OA
ENDROOT
BRANCH   1   7
ATOM      4  C   UNL     1       2.421   7.633  18.849  0.00  0.00    +0.000 A 
ATOM      5  C   UNL     1       1.786   7.916  20.058  0.00  0.00    +0.000 A 
ATOM      6  C   UNL     1       1.152   9.140  20.240  0.00  0.00    +0.000 A 
ATOM      7  C   UNL     1       1.174  10.100  19.220  0.00  0.00    +0.000 A 
ATOM      8  C   UNL     1       1.787   9.820  17.997  0.00  0.00    +0.000 A 
ATOM      9  C   UNL     1       2.423   8.581  17.820  0.00  0.00    +0.000 A 
BRANCH   4  11
ATOM     10  C   UNL     1       3.606   5.296  18.599  0.00  0.00    +0.000 C 
ATOM     11  C   UNL     1       3.035   6.360  18.677  0.00  0.00    +0.000 C 
BRANCH  10  12
ATOM     12  C   UNL     1       4.314   4.016  18.590  0.00  0.00    +0.000 C 
BRANCH  12  13
ATOM     13  C   UNL     1       3.863   3.169  17.399  0.00  0.00    +0.000 C 
BRANCH  13  14
ATOM     14  C   UNL     1       2.363   2.892  17.454  0.00  0.00    +0.000 C 
BRANCH  14  15
ATOM     15  C   UNL     1       1.988   2.157  18.741  0.00  0.00    +0.000 C 
BRANCH  15  17
ATOM     16  C   UNL     1       1.149   3.577  20.636  0.00  0.00    +0.000 C 
ATOM     17  C   UNL     1       0.763   2.788  19.397  0.00  0.00    +0.000 C 
ENDBRANCH  15  17
ENDBRANCH  14  15
ENDBRANCH  13  14
ENDBRANCH  12  13
ENDBRANCH  10  12
ENDBRANCH   4  11
ENDBRANCH   1   7
BRANCH   1  18
ATOM     18  N   UNL     1      -0.568  11.965  18.187  0.00  0.00    +0.000 N 
ATOM     19  H   UNL     1      -0.368  12.812  17.666  0.00  0.00    +0.000 HD
BRANCH  18  20
ATOM     20  C   UNL     1      -1.806  11.315  17.932  0.00  0.00    +0.000 A 
ATOM     21  C   UNL     1      -1.818  10.161  17.147  0.00  0.00    +0.000 A 
ATOM     22  C   UNL     1      -3.027   9.568  16.782  0.00  0.00    +0.000 A 
ATOM     23  C   UNL     1      -4.235  10.118  17.209  0.00  0.00    +0.000 A 
ATOM     24  C   UNL     1      -4.232  11.278  17.991  0.00  0.00    +0.000 A 
ATOM     25  C   UNL     1      -3.013  11.879  18.340  0.00  0.00    +0.000 A 
BRANCH  24  26
ATOM     26  C   UNL     1      -5.475  11.897  18.420  0.00  0.00    +0.000 A 
ATOM     27  C   UNL     1      -6.238  12.722  17.619  0.00  0.00    +0.000 A 
ATOM     28  S   UNL     1      -7.627  13.229  18.480  0.00  0.00    +0.000 S 
ATOM     29  C   UNL     1      -7.102  12.330  19.846  0.00  0.00    +0.000 A 
ATOM     30  N   UNL     1      -7.792  12.331  20.991  0.00  0.00    +0.000 N 
ATOM     31  N   UNL     1      -5.989  11.659  19.683  0.00  0.00    +0.000 NA
ATOM     32  H   UNL     1      -8.725  12.715  21.036  0.00  0.00    +0.000 HD
ATOM     33  H   UNL     1      -7.533  11.668  21.711  0.00  0.00    +0.000 HD
ENDBRANCH  24  26
ENDBRANCH  18  20
ENDBRANCH   1  18
TORSDOF 10
ENDMDL
MODEL 3
REMARK VINA RESULT:      -8.1      3.921      8.895
REMARK  Name = 
REMARK  11 active torsions:
REMARK  status: ('A' for Active; 'I' for Inactive)
REMARK    1  A    between atoms: C_1  and  C_2
REMARK    2  A    between atoms: C_2  and  C_3
REMARK    3  A    between atoms: C_3  and  C_4
REMARK    4  A    between atoms: C_4  and  C_5
REMARK    5  A    between atoms: C_5  and  C_6
REMARK    6  A    between atoms: C_6  and  C_7
REMARK    7  A    between atoms: C_8  and  C_9
REMARK    8  A    between atoms: C_12  and  S_13
REMARK    9  A    between atoms: S_13  and  N_16
REMARK   10  A    between atoms: N_16  and  C_17
REMARK   11  A    between atoms: C_21  and  C_22
REMARK                            x       y       z     vdW  Elec       q    Type
REMARK                         _______ _______ _______ _____ _____    ______ ____
ROOT
ATOM      1  S   UNL     1       3.057   3.392  19.162  0.00  0.00    +0.000 S 
ATOM      2  O   UNL     1       2.388   2.733  20.261  0.00  0.00    +0.000 OA
ATOM      3  O   UNL     1       2.837   2.962  17.792  0.00  0.00    +0.000 OA
ENDROOT
BRANCH   1   7
ATOM      4  C   UNL     1       1.942   7.821  19.108  0.00  0.00    +0.000 A 
ATOM      5  C   UNL     1       2.327   7.154  17.946  0.00  0.00    +0.000 A 
ATOM      6  C   UNL     1       2.647   5.802  17.993  0.00  0.00    +0.000 A 
ATOM      7  C   UNL     1       2.609   5.114  19.212  0.00  0.00    +0.000 A 
ATOM      8  C   UNL     1       2.202   5.765  20.380  0.00  0.00    +0.000 A 
ATOM      9  C   UNL     1       1.879   7.129  20.323  0.00  0.00    +0.000 A 
BRANCH   4  11
ATOM     10  C   UNL     1       1.208  10.342  18.937  0.00  0.00    +0.000 C 
ATOM     11  C   UNL     1       1.588   9.197  19.027  0.00  0.00    +0.000 C 
BRANCH  10  12
ATOM     12  C   UNL     1       0.666  11.698  18.844  0.00  0.00    +0.000 C 
BRANCH  12  13
ATOM     13  C   UNL     1      -0.820  11.701  19.203  0.00  0.00    +0.000 C 
BRANCH  13  14
ATOM     14  C   UNL     1      -1.613  10.777  18.282  0.00  0.00    +0.000 C 
BRANCH  14  15
ATOM     15  C   UNL     1      -3.076  11.212  18.196  0.00  0.00    +0.000 C 
BRANCH  15  17
ATOM     16  C   UNL     1      -2.587  10.477  15.843  0.00  0.00    +0.000 C 
ATOM     17  C   UNL     1      -3.570  11.197  16.751  0.00  0.00    +0.000 C 
ENDBRANCH  15  17
ENDBRANCH  14  15
ENDBRANCH  13  14
ENDBRANCH  12  13
ENDBRANCH  10  12
ENDBRANCH   4  11
ENDBRANCH   1   7
BRANCH   1  18
ATOM     18  N   UNL     1       4.713   3.359  19.482  0.00  0.00    +0.000 N 
ATOM     19  H   UNL     1       5.024   2.966  20.364  0.00  0.00    +0.000 HD
BRANCH  18  20
ATOM     20  C   UNL     1       5.638   4.157  18.756  0.00  0.00    +0.000 A 
ATOM     21  C   UNL     1       6.306   5.191  19.412  0.00  0.00    +0.000 A 
ATOM     22  C   UNL     1       7.130   6.064  18.701  0.00  0.00    +0.000 A 
ATOM     23  C   UNL     1       7.303   5.902  17.327  0.00  0.00    +0.000 A 
ATOM     24  C   UNL     1       6.633   4.870  16.660  0.00  0.00    +0.000 A 
ATOM     25  C   UNL     1       5.792   4.007  17.378  0.00  0.00    +0.000 A 
BRANCH  24  26
ATOM     26  C   UNL     1       6.763   4.699  15.223  0.00  0.00    +0.000 A 
ATOM     27  C   UNL     1       6.075   3.747  14.498  0.00  0.00    +0.000 A 
ATOM     28  S   UNL     1       6.487   3.881  12.842  0.00  0.00    +0.000 S 
ATOM     29  C   UNL     1       7.552   5.176  13.219  0.00  0.00    +0.000 A 
ATOM     30  N   UNL     1       8.292   5.769  12.276  0.00  0.00    +0.000 N 
ATOM     31  N   UNL     1       7.586   5.526  14.480  0.00  0.00    +0.000 NA
ATOM     32  H   UNL     1       8.122   5.595  11.295  0.00  0.00    +0.000 HD
ATOM     33  H   UNL     1       8.781   6.622  12.513  0.00  0.00    +0.000 HD
ENDBRANCH  24  26
ENDBRANCH  18  20
ENDBRANCH   1  18
TORSDOF 10
ENDMDL
MODEL 4
REMARK VINA RESULT:      -8.0      1.047      1.381
REMARK  Name = 
REMARK  11 active torsions:
REMARK  status: ('A' for Active; 'I' for Inactive)
REMARK    1  A    between atoms: C_1  and  C_2
REMARK    2  A    between atoms: C_2  and  C_3
REMARK    3  A    between atoms: C_3  and  C_4
REMARK    4  A    between atoms: C_4  and  C_5
REMARK    5  A    between atoms: C_5  and  C_6
REMARK    6  A    between atoms: C_6  and  C_7
REMARK    7  A    between atoms: C_8  and  C_9
REMARK    8  A    between atoms: C_12  and  S_13
REMARK    9  A    between atoms: S_13  and  N_16
REMARK   10  A    between atoms: N_16  and  C_17
REMARK   11  A    between atoms: C_21  and  C_22
REMARK                            x       y       z     vdW  Elec       q    Type
REMARK                         _______ _______ _______ _____ _____    ______ ____
ROOT
ATOM      1  S   UNL     1       2.415   4.910  19.954  0.00  0.00    +0.000 S 
ATOM      2  O   UNL     1       1.032   4.774  19.559  0.00  0.00    +0.000 OA
ATOM      3  O   UNL     1       3.003   4.006  20.928  0.00  0.00    +0.000 OA
ENDROOT
BRANCH   1   7
ATOM      4  C   UNL     1       5.085   4.664  16.256  0.00  0.00    +0.000 A 
ATOM      5  C   UNL     1       5.365   5.549  17.297  0.00  0.00    +0.000 A 
ATOM      6  C   UNL     1       4.540   5.590  18.416  0.00  0.00    +0.000 A 
ATOM      7  C   UNL     1       3.413   4.762  18.487  0.00  0.00    +0.000 A 
ATOM      8  C   UNL     1       3.135   3.855  17.462  0.00  0.00    +0.000 A 
ATOM      9  C   UNL     1       3.973   3.818  16.337  0.00  0.00    +0.000 A 
BRANCH   4  11
ATOM     10  C   UNL     1       6.645   4.547  14.140  0.00  0.00    +0.000 C 
ATOM     11  C   UNL     1       5.963   4.619  15.138  0.00  0.00    +0.000 C 
BRANCH  10  12
ATOM     12  C   UNL     1       7.395   4.464  12.887  0.00  0.00    +0.000 C 
BRANCH  12  13
ATOM     13  C   UNL     1       6.720   3.482  11.929  0.00  0.00    +0.000 C 
BRANCH  13  14
ATOM     14  C   UNL     1       5.249   3.285  12.285  0.00  0.00    +0.000 C 
BRANCH  14  15
ATOM     15  C   UNL     1       4.431   2.911  11.050  0.00  0.00    +0.000 C 
BRANCH  15  17
ATOM     16  C   UNL     1       3.016   4.012   9.290  0.00  0.00    +0.000 C 
ATOM     17  C   UNL     1       3.350   3.953  10.770  0.00  0.00    +0.000 C 
ENDBRANCH  15  17
ENDBRANCH  14  15
ENDBRANCH  13  14
ENDBRANCH  12  13
ENDBRANCH  10  12
ENDBRANCH   4  11
ENDBRANCH   1   7
BRANCH   1  18
ATOM     18  N   UNL     1       2.640   6.496  20.480  0.00  0.00    +0.000 N 
ATOM     19  H   UNL     1       3.056   6.646  21.393  0.00  0.00    +0.000 HD
BRANCH  18  20
ATOM     20  C   UNL     1       1.966   7.595  19.879  0.00  0.00    +0.000 A 
ATOM     21  C   UNL     1       2.210   7.890  18.538  0.00  0.00    +0.000 A 
ATOM     22  C   UNL     1       1.656   9.030  17.953  0.00  0.00    +0.000 A 
ATOM     23  C   UNL     1       0.841   9.876  18.703  0.00  0.00    +0.000 A 
ATOM     24  C   UNL     1       0.595   9.590  20.050  0.00  0.00    +0.000 A 
ATOM     25  C   UNL     1       1.170   8.453  20.637  0.00  0.00    +0.000 A 
BRANCH  24  26
ATOM     26  C   UNL     1      -0.218  10.474  20.868  0.00  0.00    +0.000 A 
ATOM     27  C   UNL     1      -0.112  10.563  22.242  0.00  0.00    +0.000 A 
ATOM     28  S   UNL     1      -1.225  11.725  22.826  0.00  0.00    +0.000 S 
ATOM     29  C   UNL     1      -1.766  12.007  21.220  0.00  0.00    +0.000 A 
ATOM     30  N   UNL     1      -2.755  12.867  20.956  0.00  0.00    +0.000 N 
ATOM     31  N   UNL     1      -1.149  11.320  20.291  0.00  0.00    +0.000 NA
ATOM     32  H   UNL     1      -3.094  13.502  21.665  0.00  0.00    +0.000 HD
ATOM     33  H   UNL     1      -2.933  13.116  19.992  0.00  0.00    +0.000 HD
ENDBRANCH  24  26
ENDBRANCH  18  20
ENDBRANCH   1  18
TORSDOF 10
ENDMDL
MODEL 5
REMARK VINA RESULT:      -7.9      3.714      9.484
REMARK  Name = 
REMARK  11 active torsions:
REMARK  status: ('A' for Active; 'I' for Inactive)
REMARK    1  A    between atoms: C_1  and  C_2
REMARK    2  A    between atoms: C_2  and  C_3
REMARK    3  A    between atoms: C_3  and  C_4
REMARK    4  A    between atoms: C_4  and  C_5
REMARK    5  A    between atoms: C_5  and  C_6
REMARK    6  A    between atoms: C_6  and  C_7
REMARK    7  A    between atoms: C_8  and  C_9
REMARK    8  A    between atoms: C_12  and  S_13
REMARK    9  A    between atoms: S_13  and  N_16
REMARK   10  A    between atoms: N_16  and  C_17
REMARK   11  A    between atoms: C_21  and  C_22
REMARK                            x       y       z     vdW  Elec       q    Type
REMARK                         _______ _______ _______ _____ _____    ______ ____
ROOT
ATOM      1  S   UNL     1       2.673   3.935  18.963  0.00  0.00    +0.000 S 
ATOM      2  O   UNL     1       1.823   3.259  19.916  0.00  0.00    +0.000 OA
ATOM      3  O   UNL     1       2.617   3.604  17.550  0.00  0.00    +0.000 OA
ENDROOT
BRANCH   1   7
ATOM      4  C   UNL     1       1.818   8.420  19.059  0.00  0.00    +0.000 A 
ATOM      5  C   UNL     1       2.154   7.770  17.872  0.00  0.00    +0.000 A 
ATOM      6  C   UNL     1       2.395   6.400  17.873  0.00  0.00    +0.000 A 
ATOM      7  C   UNL     1       2.327   5.677  19.071  0.00  0.00    +0.000 A 
ATOM      8  C   UNL     1       1.969   6.313  20.263  0.00  0.00    +0.000 A 
ATOM      9  C   UNL     1       1.725   7.695  20.252  0.00  0.00    +0.000 A 
BRANCH   4  11
ATOM     10  C   UNL     1       1.228  10.984  18.999  0.00  0.00    +0.000 C 
ATOM     11  C   UNL     1       1.544   9.816  19.024  0.00  0.00    +0.000 C 
BRANCH  10  12
ATOM     12  C   UNL     1       0.770  12.374  19.008  0.00  0.00    +0.000 C 
BRANCH  12  13
ATOM     13  C   UNL     1      -0.687  12.449  19.464  0.00  0.00    +0.000 C 
BRANCH  13  14
ATOM     14  C   UNL     1      -0.995  11.381  20.510  0.00  0.00    +0.000 C 
BRANCH  14  15
ATOM     15  C   UNL     1      -1.312  12.014  21.864  0.00  0.00    +0.000 C 
BRANCH  15  17
ATOM     16  C   UNL     1      -0.335   9.792  22.513  0.00  0.00    +0.000 C 
ATOM     17  C   UNL     1      -1.076  11.024  23.003  0.00  0.00    +0.000 C 
ENDBRANCH  15  17
ENDBRANCH  14  15
ENDBRANCH  13  14
ENDBRANCH  12  13
ENDBRANCH  10  12
ENDBRANCH   4  11
ENDBRANCH   1   7
BRANCH   1  18
ATOM     18  N   UNL     1       4.265   3.769  19.496  0.00  0.00    +0.000 N 
ATOM     19  H   UNL     1       4.423   3.456  20.448  0.00  0.00    +0.000 HD
BRANCH  18  20
ATOM     20  C   UNL     1       5.357   4.372  18.814  0.00  0.00    +0.000 A 
ATOM     21  C   UNL     1       6.189   5.252  19.507  0.00  0.00    +0.000 A 
ATOM     22  C   UNL     1       7.195   5.949  18.837  0.00  0.00    +0.000 A 
ATOM     23  C   UNL     1       7.385   5.761  17.469  0.00  0.00    +0.000 A 
ATOM     24  C   UNL     1       6.553   4.885  16.765  0.00  0.00    +0.000 A 
ATOM     25  C   UNL     1       5.531   4.201  17.441  0.00  0.00    +0.000 A 
BRANCH  24  26
ATOM     26  C   UNL     1       6.701   4.698  15.332  0.00  0.00    +0.000 A 
ATOM     27  C   UNL     1       6.028   3.734  14.609  0.00  0.00    +0.000 A 
ATOM     28  S   UNL     1       6.460   3.851  12.957  0.00  0.00    +0.000 S 
ATOM     29  C   UNL     1       7.513   5.156  13.332  0.00  0.00    +0.000 A 
ATOM     30  N   UNL     1       8.261   5.743  12.392  0.00  0.00    +0.000 N 
ATOM     31  N   UNL     1       7.530   5.521  14.590  0.00  0.00    +0.000 NA
ATOM     32  H   UNL     1       8.105   5.557  11.412  0.00  0.00    +0.000 HD
ATOM     33  H   UNL     1       8.743   6.601  12.625  0.00  0.00    +0.000 HD
ENDBRANCH  24  26
ENDBRANCH  18  20
ENDBRANCH   1  18
TORSDOF 10
ENDMDL
MODEL 6
REMARK VINA RESULT:      -7.9      4.056      6.537
REMARK  Name = 
REMARK  11 active torsions:
REMARK  status: ('A' for Active; 'I' for Inactive)
REMARK    1  A    between atoms: C_1  and  C_2
REMARK    2  A    between atoms: C_2  and  C_3
REMARK    3  A    between atoms: C_3  and  C_4
REMARK    4  A    between atoms: C_4  and  C_5
REMARK    5  A    between atoms: C_5  and  C_6
REMARK    6  A    between atoms: C_6  and  C_7
REMARK    7  A    between atoms: C_8  and  C_9
REMARK    8  A    between atoms: C_12  and  S_13
REMARK    9  A    between atoms: S_13  and  N_16
REMARK   10  A    between atoms: N_16  and  C_17
REMARK   11  A    between atoms: C_21  and  C_22
REMARK                            x       y       z     vdW  Elec       q    Type
REMARK                         _______ _______ _______ _____ _____    ______ ____
ROOT
ATOM      1  S   UNL     1       0.192  10.994  20.509  0.00  0.00    +0.000 S 
ATOM      2  O   UNL     1      -0.789  10.401  21.389  0.00  0.00    +0.000 OA
ATOM      3  O   UNL     1       1.213  11.888  21.028  0.00  0.00    +0.000 OA
ENDROOT
BRANCH   1   7
ATOM      4  C   UNL     1       2.426   7.497  18.601  0.00  0.00    +0.000 A 
ATOM      5  C   UNL     1       1.986   7.443  19.923  0.00  0.00    +0.000 A 
ATOM      6  C   UNL     1       1.297   8.519  20.471  0.00  0.00    +0.000 A 
ATOM      7  C   UNL     1       1.067   9.669  19.704  0.00  0.00    +0.000 A 
ATOM      8  C   UNL     1       1.482   9.725  18.371  0.00  0.00    +0.000 A 
ATOM      9  C   UNL     1       2.176   8.634  17.826  0.00  0.00    +0.000 A 
BRANCH   4  11
ATOM     10  C   UNL     1       3.713   5.464  17.534  0.00  0.00    +0.000 C 
ATOM     11  C   UNL     1       3.101   6.369  18.055  0.00  0.00    +0.000 C 
BRANCH  10  12
ATOM     12  C   UNL     1       4.512   4.428  16.879  0.00  0.00    +0.000 C 
BRANCH  12  13
ATOM     13  C   UNL     1       4.258   3.069  17.532  0.00  0.00    +0.000 C 
BRANCH  13  14
ATOM     14  C   UNL     1       4.369   3.157  19.052  0.00  0.00    +0.000 C 
BRANCH  14  15
ATOM     15  C   UNL     1       3.225   2.404  19.730  0.00  0.00    +0.000 C 
BRANCH  15  17
ATOM     16  C   UNL     1       0.858   3.018  19.152  0.00  0.00    +0.000 C 
ATOM     17  C   UNL     1       2.055   3.337  20.032  0.00  0.00    +0.000 C 
ENDBRANCH  15  17
ENDBRANCH  14  15
ENDBRANCH  13  14
ENDBRANCH  12  13
ENDBRANCH  10  12
ENDBRANCH   4  11
ENDBRANCH   1   7
BRANCH   1  18
ATOM     18  N   UNL     1      -0.643  11.782  19.274  0.00  0.00    +0.000 N 
ATOM     19  H   UNL     1      -0.373  12.732  19.041  0.00  0.00    +0.000 HD
BRANCH  18  20
ATOM     20  C   UNL     1      -1.904  11.325  18.803  0.00  0.00    +0.000 A 
ATOM     21  C   UNL     1      -1.955  10.195  17.985  0.00  0.00    +0.000 A 
ATOM     22  C   UNL     1      -3.162   9.792  17.412  0.00  0.00    +0.000 A 
ATOM     23  C   UNL     1      -4.331  10.508  17.663  0.00  0.00    +0.000 A 
ATOM     24  C   UNL     1      -4.288  11.645  18.477  0.00  0.00    +0.000 A 
ATOM     25  C   UNL     1      -3.068  12.056  19.035  0.00  0.00    +0.000 A 
BRANCH  24  26
ATOM     26  C   UNL     1      -5.482  12.435  18.725  0.00  0.00    +0.000 A 
ATOM     27  C   UNL     1      -6.561  12.486  17.866  0.00  0.00    +0.000 A 
ATOM     28  S   UNL     1      -7.767  13.508  18.523  0.00  0.00    +0.000 S 
ATOM     29  C   UNL     1      -6.760  13.812  19.882  0.00  0.00    +0.000 A 
ATOM     30  N   UNL     1      -7.134  14.648  20.856  0.00  0.00    +0.000 N 
ATOM     31  N   UNL     1      -5.615  13.177  19.885  0.00  0.00    +0.000 NA
ATOM     32  H   UNL     1      -8.083  14.989  20.913  0.00  0.00    +0.000 HD
ATOM     33  H   UNL     1      -6.585  14.675  21.705  0.00  0.00    +0.000 HD
ENDBRANCH  24  26
ENDBRANCH  18  20
ENDBRANCH   1  18
TORSDOF 10
ENDMDL
MODEL 7
REMARK VINA RESULT:      -7.9      3.803      9.479
REMARK  Name = 
REMARK  11 active torsions:
REMARK  status: ('A' for Active; 'I' for Inactive)
REMARK    1  A    between atoms: C_1  and  C_2
REMARK    2  A    between atoms: C_2  and  C_3
REMARK    3  A    between atoms: C_3  and  C_4
REMARK    4  A    between atoms: C_4  and  C_5
REMARK    5  A    between atoms: C_5  and  C_6
REMARK    6  A    between atoms: C_6  and  C_7
REMARK    7  A    between atoms: C_8  and  C_9
REMARK    8  A    between atoms: C_12  and  S_13
REMARK    9  A    between atoms: S_13  and  N_16
REMARK   10  A    between atoms: N_16  and  C_17
REMARK   11  A    between atoms: C_21  and  C_22
REMARK                            x       y       z     vdW  Elec       q    Type
REMARK                         _______ _______ _______ _____ _____    ______ ____
ROOT
ATOM      1  S   UNL     1       3.523   3.332  19.223  0.00  0.00    +0.000 S 
ATOM      2  O   UNL     1       3.078   2.919  20.534  0.00  0.00    +0.000 OA
ATOM      3  O   UNL     1       3.112   2.605  18.034  0.00  0.00    +0.000 OA
ENDROOT
BRANCH   1   7
ATOM      4  C   UNL     1       2.131   7.659  18.770  0.00  0.00    +0.000 A 
ATOM      5  C   UNL     1       2.196   7.043  20.020  0.00  0.00    +0.000 A 
ATOM      6  C   UNL     1       2.637   5.728  20.126  0.00  0.00    +0.000 A 
ATOM      7  C   UNL     1       2.991   5.012  18.976  0.00  0.00    +0.000 A 
ATOM      8  C   UNL     1       2.953   5.625  17.720  0.00  0.00    +0.000 A 
ATOM      9  C   UNL     1       2.508   6.953  17.622  0.00  0.00    +0.000 A 
BRANCH   4  11
ATOM     10  C   UNL     1       1.355  10.173  18.712  0.00  0.00    +0.000 C 
ATOM     11  C   UNL     1       1.707   9.015  18.693  0.00  0.00    +0.000 C 
BRANCH  10  12
ATOM     12  C   UNL     1       0.975  11.582  18.811  0.00  0.00    +0.000 C 
BRANCH  12  13
ATOM     13  C   UNL     1       0.527  11.912  20.235  0.00  0.00    +0.000 C 
BRANCH  13  14
ATOM     14  C   UNL     1      -0.728  11.131  20.615  0.00  0.00    +0.000 C 
BRANCH  14  15
ATOM     15  C   UNL     1      -0.489  10.279  21.861  0.00  0.00    +0.000 C 
BRANCH  15  17
ATOM     16  C   UNL     1      -2.131  11.964  22.743  0.00  0.00    +0.000 C 
ATOM     17  C   UNL     1      -1.053  10.957  23.107  0.00  0.00    +0.000 C 
ENDBRANCH  15  17
ENDBRANCH  14  15
ENDBRANCH  13  14
ENDBRANCH  12  13
ENDBRANCH  10  12
ENDBRANCH   4  11
ENDBRANCH   1   7
BRANCH   1  18
ATOM     18  N   UNL     1       5.208   3.405  19.259  0.00  0.00    +0.000 N 
ATOM     19  H   UNL     1       5.689   3.019  20.064  0.00  0.00    +0.000 HD
BRANCH  18  20
ATOM     20  C   UNL     1       5.945   4.276  18.410  0.00  0.00    +0.000 A 
ATOM     21  C   UNL     1       6.459   5.462  18.934  0.00  0.00    +0.000 A 
ATOM     22  C   UNL     1       7.083   6.391  18.101  0.00  0.00    +0.000 A 
ATOM     23  C   UNL     1       7.209   6.135  16.736  0.00  0.00    +0.000 A 
ATOM     24  C   UNL     1       6.692   4.950  16.201  0.00  0.00    +0.000 A 
ATOM     25  C   UNL     1       6.049   4.029  17.042  0.00  0.00    +0.000 A 
BRANCH  24  26
ATOM     26  C   UNL     1       6.773   4.672  14.777  0.00  0.00    +0.000 A 
ATOM     27  C   UNL     1       7.573   5.378  13.902  0.00  0.00    +0.000 A 
ATOM     28  S   UNL     1       7.401   4.734  12.325  0.00  0.00    +0.000 S 
ATOM     29  C   UNL     1       6.273   3.585  12.924  0.00  0.00    +0.000 A 
ATOM     30  N   UNL     1       5.667   2.712  12.112  0.00  0.00    +0.000 N 
ATOM     31  N   UNL     1       6.052   3.635  14.213  0.00  0.00    +0.000 NA
ATOM     32  H   UNL     1       5.979   2.584  11.160  0.00  0.00    +0.000 HD
ATOM     33  H   UNL     1       5.135   1.958  12.526  0.00  0.00    +0.000 HD
ENDBRANCH  24  26
ENDBRANCH  18  20
ENDBRANCH   1  18
TORSDOF 10
ENDMDL
MODEL 8
REMARK VINA RESULT:      -7.9      5.388      7.274
REMARK  Name = 
REMARK  11 active torsions:
REMARK  status: ('A' for Active; 'I' for Inactive)
REMARK    1  A    between atoms: C_1  and  C_2
REMARK    2  A    between atoms: C_2  and  C_3
REMARK    3  A    between atoms: C_3  and  C_4
REMARK    4  A    between atoms: C_4  and  C_5
REMARK    5  A    between atoms: C_5  and  C_6
REMARK    6  A    between atoms: C_6  and  C_7
REMARK    7  A    between atoms: C_8  and  C_9
REMARK    8  A    between atoms: C_12  and  S_13
REMARK    9  A    between atoms: S_13  and  N_16
REMARK   10  A    between atoms: N_16  and  C_17
REMARK   11  A    between atoms: C_21  and  C_22
REMARK                            x       y       z     vdW  Elec       q    Type
REMARK                         _______ _______ _______ _____ _____    ______ ____
ROOT
ATOM      1  S   UNL     1       5.434   4.419  17.087  0.00  0.00    +0.000 S 
ATOM      2  O   UNL     1       4.230   4.972  16.511  0.00  0.00    +0.000 OA
ATOM      3  O   UNL     1       6.286   3.529  16.319  0.00  0.00    +0.000 OA
ENDROOT
BRANCH   1   7
ATOM      4  C   UNL     1       8.005   8.015  18.238  0.00  0.00    +0.000 A 
ATOM      5  C   UNL     1       7.010   8.114  17.265  0.00  0.00    +0.000 A 
ATOM      6  C   UNL     1       6.235   7.004  16.947  0.00  0.00    +0.000 A 
ATOM      7  C   UNL     1       6.470   5.779  17.584  0.00  0.00    +0.000 A 
ATOM      8  C   UNL     1       7.447   5.673  18.577  0.00  0.00    +0.000 A 
ATOM      9  C   UNL     1       8.224   6.798  18.893  0.00  0.00    +0.000 A 
BRANCH   4  11
ATOM     10  C   UNL     1       9.334  10.194  18.880  0.00  0.00    +0.000 C 
ATOM     11  C   UNL     1       8.762   9.174  18.567  0.00  0.00    +0.000 C 
BRANCH  10  12
ATOM     12  C   UNL     1       9.964  11.439  19.319  0.00  0.00    +0.000 C 
BRANCH  12  13
ATOM     13  C   UNL     1       9.148  12.642  18.844  0.00  0.00    +0.000 C 
BRANCH  13  14
ATOM     14  C   UNL     1       9.662  13.163  17.504  0.00  0.00    +0.000 C 
BRANCH  14  15
ATOM     15  C   UNL     1      11.118  12.757  17.279  0.00  0.00    +0.000 C 
BRANCH  15  17
ATOM     16  C   UNL     1      11.183  15.251  16.977  0.00  0.00    +0.000 C 
ATOM     17  C   UNL     1      12.011  13.984  17.113  0.00  0.00    +0.000 C 
ENDBRANCH  15  17
ENDBRANCH  14  15
ENDBRANCH  13  14
ENDBRANCH  12  13
ENDBRANCH  10  12
ENDBRANCH   4  11
ENDBRANCH   1   7
BRANCH   1  18
ATOM     18  N   UNL     1       5.001   3.650  18.525  0.00  0.00    +0.000 N 
ATOM     19  H   UNL     1       5.399   2.738  18.721  0.00  0.00    +0.000 HD
BRANCH  18  20
ATOM     20  C   UNL     1       3.863   4.045  19.280  0.00  0.00    +0.000 A 
ATOM     21  C   UNL     1       3.060   3.063  19.864  0.00  0.00    +0.000 A 
ATOM     22  C   UNL     1       1.874   3.414  20.510  0.00  0.00    +0.000 A 
ATOM     23  C   UNL     1       1.487   4.750  20.589  0.00  0.00    +0.000 A 
ATOM     24  C   UNL     1       2.283   5.740  20.003  0.00  0.00    +0.000 A 
ATOM     25  C   UNL     1       3.465   5.380  19.338  0.00  0.00    +0.000 A 
BRANCH  24  26
ATOM     26  C   UNL     1       1.887   7.138  20.035  0.00  0.00    +0.000 A 
ATOM     27  C   UNL     1       2.026   8.000  18.966  0.00  0.00    +0.000 A 
ATOM     28  S   UNL     1       1.428   9.545  19.397  0.00  0.00    +0.000 S 
ATOM     29  C   UNL     1       1.047   8.954  20.964  0.00  0.00    +0.000 A 
ATOM     30  N   UNL     1       0.529   9.750  21.905  0.00  0.00    +0.000 N 
ATOM     31  N   UNL     1       1.305   7.686  21.164  0.00  0.00    +0.000 NA
ATOM     32  H   UNL     1       0.186  10.672  21.675  0.00  0.00    +0.000 HD
ATOM     33  H   UNL     1       0.177   9.328  22.754  0.00  0.00    +0.000 HD
ENDBRANCH  24  26
ENDBRANCH  18  20
ENDBRANCH   1  18
TORSDOF 10
ENDMDL
MODEL 9
REMARK VINA RESULT:      -7.9      4.280      6.656
REMARK  Name = 
REMARK  11 active torsions:
REMARK  status: ('A' for Active; 'I' for Inactive)
REMARK    1  A    between atoms: C_1  and  C_2
REMARK    2  A    between atoms: C_2  and  C_3
REMARK    3  A    between atoms: C_3  and  C_4
REMARK    4  A    between atoms: C_4  and  C_5
REMARK    5  A    between atoms: C_5  and  C_6
REMARK    6  A    between atoms: C_6  and  C_7
REMARK    7  A    between atoms: C_8  and  C_9
REMARK    8  A    between atoms: C_12  and  S_13
REMARK    9  A    between atoms: S_13  and  N_16
REMARK   10  A    between atoms: N_16  and  C_17
REMARK   11  A    between atoms: C_21  and  C_22
REMARK                            x       y       z     vdW  Elec       q    Type
REMARK                         _______ _______ _______ _____ _____    ______ ____
ROOT
ATOM      1  S   UNL     1       0.303  11.584  20.688  0.00  0.00    +0.000 S 
ATOM      2  O   UNL     1      -0.706  11.223  21.657  0.00  0.00    +0.000 OA
ATOM      3  O   UNL     1       1.428  12.423  21.062  0.00  0.00    +0.000 OA
ENDROOT
BRANCH   1   7
ATOM      4  C   UNL     1       2.136   7.803  18.897  0.00  0.00    +0.000 A 
ATOM      5  C   UNL     1       2.014   8.975  18.151  0.00  0.00    +0.000 A 
ATOM      6  C   UNL     1       1.464  10.114  18.730  0.00  0.00    +0.000 A 
ATOM      7  C   UNL     1       1.007  10.077  20.053  0.00  0.00    +0.000 A 
ATOM      8  C   UNL     1       1.144   8.916  20.818  0.00  0.00    +0.000 A 
ATOM      9  C   UNL     1       1.702   7.772  20.227  0.00  0.00    +0.000 A 
BRANCH   4  11
ATOM     10  C   UNL     1       3.307   5.739  17.760  0.00  0.00    +0.000 C 
ATOM     11  C   UNL     1       2.732   6.661  18.292  0.00  0.00    +0.000 C 
BRANCH  10  12
ATOM     12  C   UNL     1       4.079   4.664  17.135  0.00  0.00    +0.000 C 
BRANCH  12  13
ATOM     13  C   UNL     1       3.639   3.307  17.685  0.00  0.00    +0.000 C 
BRANCH  13  14
ATOM     14  C   UNL     1       2.125   3.251  17.873  0.00  0.00    +0.000 C 
BRANCH  14  15
ATOM     15  C   UNL     1       1.730   2.106  18.806  0.00  0.00    +0.000 C 
BRANCH  15  17
ATOM     16  C   UNL     1       1.037   4.059  20.227  0.00  0.00    +0.000 C 
ATOM     17  C   UNL     1       1.497   2.612  20.227  0.00  0.00    +0.000 C 
ENDBRANCH  15  17
ENDBRANCH  14  15
ENDBRANCH  13  14
ENDBRANCH  12  13
ENDBRANCH  10  12
ENDBRANCH   4  11
ENDBRANCH   1   7
BRANCH   1  18
ATOM     18  N   UNL     1      -0.485  12.288  19.373  0.00  0.00    +0.000 N 
ATOM     19  H   UNL     1      -0.129  13.167  19.014  0.00  0.00    +0.000 HD
BRANCH  18  20
ATOM     20  C   UNL     1      -1.798  11.904  18.985  0.00  0.00    +0.000 A 
ATOM     21  C   UNL     1      -1.975  11.192  17.798  0.00  0.00    +0.000 A 
ATOM     22  C   UNL     1      -3.258  10.905  17.332  0.00  0.00    +0.000 A 
ATOM     23  C   UNL     1      -4.376  11.316  18.056  0.00  0.00    +0.000 A 
ATOM     24  C   UNL     1      -4.208  12.035  19.244  0.00  0.00    +0.000 A 
ATOM     25  C   UNL     1      -2.915  12.337  19.698  0.00  0.00    +0.000 A 
BRANCH  24  26
ATOM     26  C   UNL     1      -5.353  12.512  20.001  0.00  0.00    +0.000 A 
ATOM     27  C   UNL     1      -6.371  13.270  19.458  0.00  0.00    +0.000 A 
ATOM     28  S   UNL     1      -7.536  13.611  20.665  0.00  0.00    +0.000 S 
ATOM     29  C   UNL     1      -6.595  12.742  21.810  0.00  0.00    +0.000 A 
ATOM     30  N   UNL     1      -6.965  12.647  23.091  0.00  0.00    +0.000 N 
ATOM     31  N   UNL     1      -5.502  12.195  21.340  0.00  0.00    +0.000 NA
ATOM     32  H   UNL     1      -7.888  12.930  23.388  0.00  0.00    +0.000 HD
ATOM     33  H   UNL     1      -6.469  12.000  23.690  0.00  0.00    +0.000 HD
ENDBRANCH  24  26
ENDBRANCH  18  20
ENDBRANCH   1  18
TORSDOF 10
ENDMDL
