MODEL 1
REMARK VINA RESULT:      -9.2      0.000      0.000
REMARK  Name = 
REMARK  4 active torsions:
REMARK  status: ('A' for Active; 'I' for Inactive)
REMARK    1  A    between atoms: C_2  and  C_4
REMARK    2  A    between atoms: C_6  and  C_7
REMARK    3  A    between atoms: C_17  and  C_18
REMARK    4  A    between atoms: C_18  and  N_19
REMARK                            x       y       z     vdW  Elec       q    Type
REMARK                         _______ _______ _______ _____ _____    ______ ____
ROOT
ATOM      1  C   UNL     1       2.937   4.116  19.987  0.00  0.00    +0.000 A 
ATOM      2  C   UNL     1       2.313   5.349  19.965  0.00  0.00    +0.000 A 
ATOM      3  C   UNL     1       2.786   6.351  19.101  0.00  0.00    +0.000 A 
ATOM      4  C   UNL     1       3.908   6.024  18.267  0.00  0.00    +0.000 A 
ATOM      5  C   UNL     1       4.550   6.927  17.382  0.00  0.00    +0.000 A 
ATOM      6  C   UNL     1       5.569   6.534  16.514  0.00  0.00    +0.000 A 
ATOM      7  C   UNL     1       6.049   5.230  16.551  0.00  0.00    +0.000 A 
ATOM      8  C   UNL     1       5.475   4.343  17.476  0.00  0.00    +0.000 A 
ATOM      9  C   UNL     1       4.428   4.706  18.328  0.00  0.00    +0.000 A 
ATOM     10  N   UNL     1       3.973   3.774  19.179  0.00  0.00    +0.000 NA
ENDROOT
BRANCH   3  11
ATOM     11  C   UNL     1       2.090   7.675  19.106  0.00  0.00    +0.000 A 
ATOM     12  C   UNL     1       1.565   8.219  20.298  0.00  0.00    +0.000 A 
ATOM     13  C   UNL     1       0.911   9.457  20.317  0.00  0.00    +0.000 A 
ATOM     14  C   UNL     1       0.808  10.194  19.148  0.00  0.00    +0.000 A 
ATOM     15  F   UNL     1       0.218  11.397  19.170  0.00  0.00    +0.000 F 
ATOM     16  C   UNL     1       1.299   9.694  17.954  0.00  0.00    +0.000 A 
ATOM     17  C   UNL     1       1.890   8.426  17.929  0.00  0.00    +0.000 A 
ENDBRANCH   3  11
BRANCH   1  19
ATOM     18  N   UNL     1       1.109   2.950  21.083  0.00  0.00    +0.000 N 
ATOM     19  C   UNL     1       2.465   3.086  20.967  0.00  0.00    +0.000 C 
ATOM     20  O   UNL     1       3.234   2.393  21.622  0.00  0.00    +0.000 OA
ATOM     21  H   UNL     1       0.734   2.266  21.725  0.00  0.00    +0.000 HD
ATOM     22  H   UNL     1       0.494   3.530  20.527  0.00  0.00    +0.000 HD
ENDBRANCH   1  19
BRANCH   7  23
ATOM     23  C   UNL     1       7.187   4.817  15.653  0.00  0.00    +0.000 C 
BRANCH  23  24
ATOM     24  N   UNL     1       6.760   4.482  14.306  0.00  0.00    +0.000 N 
ATOM     25  C   UNL     1       5.729   3.623  14.000  0.00  0.00    +0.000 A 
ATOM     26  C   UNL     1       5.792   3.454  12.635  0.00  0.00    +0.000 A 
ATOM     27  N   UNL     1       6.813   4.192  12.097  0.00  0.00    +0.000 NA
ATOM     28  C   UNL     1       7.365   4.794  13.122  0.00  0.00    +0.000 A 
ATOM     29 CL   UNL     1       8.710   5.833  13.032  0.00  0.00    +0.000 Cl
ENDBRANCH  23  24
ENDBRANCH   7  23
TORSDOF 4
ENDMDL
MODEL 2
REMARK VINA RESULT:      -9.1      1.371      1.646
REMARK  Name = 
REMARK  4 active torsions:
REMARK  status: ('A' for Active; 'I' for Inactive)
REMARK    1  A    between atoms: C_2  and  C_4
REMARK    2  A    between atoms: C_6  and  C_7
REMARK    3  A    between atoms: C_17  and  C_18
REMARK    4  A    between atoms: C_18  and  N_19
REMARK                            x       y       z     vdW  Elec       q    Type
REMARK                         _______ _______ _______ _____ _____    ______ ____
ROOT
ATOM      1  C   UNL     1       2.151   3.616  18.281  0.00  0.00    +0.000 A 
ATOM      2  C   UNL     1       1.726   4.871  18.675  0.00  0.00    +0.000 A 
ATOM      3  C   UNL     1       2.508   5.996  18.368  0.00  0.00    +0.000 A 
ATOM      4  C   UNL     1       3.725   5.773  17.639  0.00  0.00    +0.000 A 
ATOM      5  C   UNL     1       4.660   6.782  17.296  0.00  0.00    +0.000 A 
ATOM      6  C   UNL     1       5.775   6.533  16.495  0.00  0.00    +0.000 A 
ATOM      7  C   UNL     1       6.049   5.240  16.067  0.00  0.00    +0.000 A 
ATOM      8  C   UNL     1       5.172   4.215  16.462  0.00  0.00    +0.000 A 
ATOM      9  C   UNL     1       4.030   4.449  17.231  0.00  0.00    +0.000 A 
ATOM     10  N   UNL     1       3.277   3.387  17.558  0.00  0.00    +0.000 NA
ENDROOT
BRANCH   3  11
ATOM     11  C   UNL     1       2.019   7.338  18.811  0.00  0.00    +0.000 A 
ATOM     12  C   UNL     1       1.825   8.387  17.886  0.00  0.00    +0.000 A 
ATOM     13  C   UNL     1       1.368   9.648  18.288  0.00  0.00    +0.000 A 
ATOM     14  C   UNL     1       1.057   9.871  19.619  0.00  0.00    +0.000 A 
ATOM     15  F   UNL     1       0.582  11.065  20.000  0.00  0.00    +0.000 F 
ATOM     16  C   UNL     1       1.243   8.875  20.562  0.00  0.00    +0.000 A 
ATOM     17  C   UNL     1       1.764   7.639  20.166  0.00  0.00    +0.000 A 
ENDBRANCH   3  11
BRANCH   1  19
ATOM     18  N   UNL     1       2.044   1.379  19.222  0.00  0.00    +0.000 N 
ATOM     19  C   UNL     1       1.342   2.421  18.682  0.00  0.00    +0.000 C 
ATOM     20  O   UNL     1       0.125   2.371  18.552  0.00  0.00    +0.000 OA
ATOM     21  H   UNL     1       1.549   0.549  19.517  0.00  0.00    +0.000 HD
ATOM     22  H   UNL     1       3.048   1.446  19.325  0.00  0.00    +0.000 HD
ENDBRANCH   1  19
BRANCH   7  23
ATOM     23  C   UNL     1       7.283   4.958  15.248  0.00  0.00    +0.000 C 
BRANCH  23  24
ATOM     24  N   UNL     1       6.985   4.580  13.877  0.00  0.00    +0.000 N 
ATOM     25  C   UNL     1       6.047   3.644  13.508  0.00  0.00    +0.000 A 
ATOM     26  C   UNL     1       6.225   3.467  12.154  0.00  0.00    +0.000 A 
ATOM     27  N   UNL     1       7.228   4.274  11.683  0.00  0.00    +0.000 NA
ATOM     28  C   UNL     1       7.653   4.926  12.737  0.00  0.00    +0.000 A 
ATOM     29 CL   UNL     1       8.921   6.061  12.733  0.00  0.00    +0.000 Cl
ENDBRANCH  23  24
ENDBRANCH   7  23
TORSDOF 4
ENDMDL
MODEL 3
REMARK VINA RESULT:      -9.0      4.493      7.480
REMARK  Name = 
REMARK  4 active torsions:
REMARK  status: ('A' for Active; 'I' for Inactive)
REMARK    1  A    between atoms: C_2  and  C_4
REMARK    2  A    between atoms: C_6  and  C_7
REMARK    3  A    between atoms: C_17  and  C_18
REMARK    4  A    between atoms: C_18  and  N_19
REMARK                            x       y       z     vdW  Elec       q    Type
REMARK                         _______ _______ _______ _____ _____    ______ ____
ROOT
ATOM      1  C   UNL     1       2.293   4.790  20.413  0.00  0.00    +0.000 A 
ATOM      2  C   UNL     1       3.272   4.589  19.458  0.00  0.00    +0.000 A 
ATOM      3  C   UNL     1       3.585   5.619  18.556  0.00  0.00    +0.000 A 
ATOM      4  C   UNL     1       2.859   6.851  18.688  0.00  0.00    +0.000 A 
ATOM      5  C   UNL     1       3.002   7.972  17.832  0.00  0.00    +0.000 A 
ATOM      6  C   UNL     1       2.353   9.184  18.063  0.00  0.00    +0.000 A 
ATOM      7  C   UNL     1       1.463   9.305  19.124  0.00  0.00    +0.000 A 
ATOM      8  C   UNL     1       1.252   8.180  19.938  0.00  0.00    +0.000 A 
ATOM      9  C   UNL     1       1.921   6.968  19.746  0.00  0.00    +0.000 A 
ATOM     10  N   UNL     1       1.624   5.959  20.580  0.00  0.00    +0.000 NA
ENDROOT
BRANCH   3  11
ATOM     11  C   UNL     1       4.647   5.366  17.534  0.00  0.00    +0.000 A 
ATOM     12  C   UNL     1       4.469   4.399  16.521  0.00  0.00    +0.000 A 
ATOM     13  C   UNL     1       5.455   4.152  15.558  0.00  0.00    +0.000 A 
ATOM     14  C   UNL     1       6.621   4.900  15.565  0.00  0.00    +0.000 A 
ATOM     15  F   UNL     1       7.549   4.693  14.621  0.00  0.00    +0.000 F 
ATOM     16  C   UNL     1       6.842   5.851  16.547  0.00  0.00    +0.000 A 
ATOM     17  C   UNL     1       5.883   6.045  17.546  0.00  0.00    +0.000 A 
ENDBRANCH   3  11
BRANCH   1  19
ATOM     18  N   UNL     1       0.816   2.940  20.954  0.00  0.00    +0.000 N 
ATOM     19  C   UNL     1       1.923   3.655  21.317  0.00  0.00    +0.000 C 
ATOM     20  O   UNL     1       2.569   3.366  22.317  0.00  0.00    +0.000 OA
ATOM     21  H   UNL     1       0.523   2.158  21.523  0.00  0.00    +0.000 HD
ATOM     22  H   UNL     1       0.302   3.194  20.120  0.00  0.00    +0.000 HD
ENDBRANCH   1  19
BRANCH   7  23
ATOM     23  C   UNL     1       0.718  10.597  19.344  0.00  0.00    +0.000 C 
BRANCH  23  24
ATOM     24  N   UNL     1      -0.630  10.578  18.801  0.00  0.00    +0.000 N 
ATOM     25  C   UNL     1      -1.000   9.937  17.641  0.00  0.00    +0.000 A 
ATOM     26  C   UNL     1      -2.299  10.330  17.408  0.00  0.00    +0.000 A 
ATOM     27  N   UNL     1      -2.738  11.175  18.393  0.00  0.00    +0.000 NA
ATOM     28  C   UNL     1      -1.718  11.297  19.207  0.00  0.00    +0.000 A 
ATOM     29 CL   UNL     1      -1.702  12.260  20.610  0.00  0.00    +0.000 Cl
ENDBRANCH  23  24
ENDBRANCH   7  23
TORSDOF 4
ENDMDL
MODEL 4
REMARK VINA RESULT:      -8.9      4.413      7.314
REMARK  Name = 
REMARK  4 active torsions:
REMARK  status: ('A' for Active; 'I' for Inactive)
REMARK    1  A    between atoms: C_2  and  C_4
REMARK    2  A    between atoms: C_6  and  C_7
REMARK    3  A    between atoms: C_17  and  C_18
REMARK    4  A    between atoms: C_18  and  N_19
REMARK                            x       y       z     vdW  Elec       q    Type
REMARK                         _______ _______ _______ _____ _____    ______ ____
ROOT
ATOM      1  C   UNL     1       2.283   4.760  20.412  0.00  0.00    +0.000 A 
ATOM      2  C   UNL     1       3.253   4.570  19.445  0.00  0.00    +0.000 A 
ATOM      3  C   UNL     1       3.556   5.610  18.551  0.00  0.00    +0.000 A 
ATOM      4  C   UNL     1       2.830   6.840  18.704  0.00  0.00    +0.000 A 
ATOM      5  C   UNL     1       2.964   7.971  17.859  0.00  0.00    +0.000 A 
ATOM      6  C   UNL     1       2.316   9.180  18.110  0.00  0.00    +0.000 A 
ATOM      7  C   UNL     1       1.437   9.288  19.181  0.00  0.00    +0.000 A 
ATOM      8  C   UNL     1       1.235   8.154  19.985  0.00  0.00    +0.000 A 
ATOM      9  C   UNL     1       1.903   6.944  19.772  0.00  0.00    +0.000 A 
ATOM     10  N   UNL     1       1.615   5.926  20.598  0.00  0.00    +0.000 NA
ENDROOT
BRANCH   3  11
ATOM     11  C   UNL     1       4.607   5.370  17.516  0.00  0.00    +0.000 A 
ATOM     12  C   UNL     1       5.828   6.078  17.536  0.00  0.00    +0.000 A 
ATOM     13  C   UNL     1       6.821   5.863  16.573  0.00  0.00    +0.000 A 
ATOM     14  C   UNL     1       6.628   4.902  15.595  0.00  0.00    +0.000 A 
ATOM     15  F   UNL     1       7.592   4.665  14.695  0.00  0.00    +0.000 F 
ATOM     16  C   UNL     1       5.442   4.191  15.530  0.00  0.00    +0.000 A 
ATOM     17  C   UNL     1       4.426   4.459  16.454  0.00  0.00    +0.000 A 
ENDBRANCH   3  11
BRANCH   1  19
ATOM     18  N   UNL     1       0.811   2.904  20.948  0.00  0.00    +0.000 N 
ATOM     19  C   UNL     1       1.923   3.615  21.307  0.00  0.00    +0.000 C 
ATOM     20  O   UNL     1       2.581   3.314  22.296  0.00  0.00    +0.000 OA
ATOM     21  H   UNL     1       0.524   2.116  21.512  0.00  0.00    +0.000 HD
ATOM     22  H   UNL     1       0.288   3.168  20.124  0.00  0.00    +0.000 HD
ENDBRANCH   1  19
BRANCH   7  23
ATOM     23  C   UNL     1       0.694  10.577  19.423  0.00  0.00    +0.000 C 
BRANCH  23  24
ATOM     24  N   UNL     1      -0.493  10.715  18.597  0.00  0.00    +0.000 N 
ATOM     25  C   UNL     1      -1.001   9.730  17.782  0.00  0.00    +0.000 A 
ATOM     26  C   UNL     1      -2.000  10.340  17.055  0.00  0.00    +0.000 A 
ATOM     27  N   UNL     1      -2.128  11.657  17.411  0.00  0.00    +0.000 NA
ATOM     28  C   UNL     1      -1.217  11.843  18.334  0.00  0.00    +0.000 A 
ATOM     29 CL   UNL     1      -0.917  13.322  19.121  0.00  0.00    +0.000 Cl
ENDBRANCH  23  24
ENDBRANCH   7  23
TORSDOF 4
ENDMDL
MODEL 5
REMARK VINA RESULT:      -8.7      4.264      7.301
REMARK  Name = 
REMARK  4 active torsions:
REMARK  status: ('A' for Active; 'I' for Inactive)
REMARK    1  A    between atoms: C_2  and  C_4
REMARK    2  A    between atoms: C_6  and  C_7
REMARK    3  A    between atoms: C_17  and  C_18
REMARK    4  A    between atoms: C_18  and  N_19
REMARK                            x       y       z     vdW  Elec       q    Type
REMARK                         _______ _______ _______ _____ _____    ______ ____
ROOT
ATOM      1  C   UNL     1       2.509   4.231  20.649  0.00  0.00    +0.000 A 
ATOM      2  C   UNL     1       3.262   4.214  19.490  0.00  0.00    +0.000 A 
ATOM      3  C   UNL     1       3.315   5.360  18.679  0.00  0.00    +0.000 A 
ATOM      4  C   UNL     1       2.574   6.509  19.117  0.00  0.00    +0.000 A 
ATOM      5  C   UNL     1       2.468   7.726  18.397  0.00  0.00    +0.000 A 
ATOM      6  C   UNL     1       1.825   8.852  18.913  0.00  0.00    +0.000 A 
ATOM      7  C   UNL     1       1.186   8.784  20.145  0.00  0.00    +0.000 A 
ATOM      8  C   UNL     1       1.217   7.562  20.837  0.00  0.00    +0.000 A 
ATOM      9  C   UNL     1       1.888   6.434  20.356  0.00  0.00    +0.000 A 
ATOM     10  N   UNL     1       1.834   5.319  21.100  0.00  0.00    +0.000 NA
ENDROOT
BRANCH   3  11
ATOM     11  C   UNL     1       4.137   5.305  17.431  0.00  0.00    +0.000 A 
ATOM     12  C   UNL     1       4.627   6.484  16.828  0.00  0.00    +0.000 A 
ATOM     13  C   UNL     1       5.397   6.448  15.659  0.00  0.00    +0.000 A 
ATOM     14  C   UNL     1       5.728   5.226  15.096  0.00  0.00    +0.000 A 
ATOM     15  F   UNL     1       6.498   5.186  14.000  0.00  0.00    +0.000 F 
ATOM     16  C   UNL     1       5.260   4.046  15.647  0.00  0.00    +0.000 A 
ATOM     17  C   UNL     1       4.434   4.092  16.775  0.00  0.00    +0.000 A 
ENDBRANCH   3  11
BRANCH   1  19
ATOM     18  N   UNL     1       1.158   2.670  21.929  0.00  0.00    +0.000 N 
ATOM     19  C   UNL     1       2.406   2.977  21.461  0.00  0.00    +0.000 C 
ATOM     20  O   UNL     1       3.369   2.254  21.690  0.00  0.00    +0.000 OA
ATOM     21  H   UNL     1       1.028   1.832  22.478  0.00  0.00    +0.000 HD
ATOM     22  H   UNL     1       0.378   3.279  21.722  0.00  0.00    +0.000 HD
ENDBRANCH   1  19
BRANCH   7  23
ATOM     23  C   UNL     1       0.443   9.981  20.680  0.00  0.00    +0.000 C 
BRANCH  23  24
ATOM     24  N   UNL     1       0.397  11.091  19.743  0.00  0.00    +0.000 N 
ATOM     25  C   UNL     1       1.222  12.191  19.788  0.00  0.00    +0.000 A 
ATOM     26  C   UNL     1       0.718  13.061  18.848  0.00  0.00    +0.000 A 
ATOM     27  N   UNL     1      -0.375  12.524  18.221  0.00  0.00    +0.000 NA
ATOM     28  C   UNL     1      -0.534  11.348  18.777  0.00  0.00    +0.000 A 
ATOM     29 CL   UNL     1      -1.772  10.247  18.388  0.00  0.00    +0.000 Cl
ENDBRANCH  23  24
ENDBRANCH   7  23
TORSDOF 4
ENDMDL
MODEL 6
REMARK VINA RESULT:      -8.7      4.294      7.699
REMARK  Name = 
REMARK  4 active torsions:
REMARK  status: ('A' for Active; 'I' for Inactive)
REMARK    1  A    between atoms: C_2  and  C_4
REMARK    2  A    between atoms: C_6  and  C_7
REMARK    3  A    between atoms: C_17  and  C_18
REMARK    4  A    between atoms: C_18  and  N_19
REMARK                            x       y       z     vdW  Elec       q    Type
REMARK                         _______ _______ _______ _____ _____    ______ ____
ROOT
ATOM      1  C   UNL     1       2.875   4.174  20.452  0.00  0.00    +0.000 A 
ATOM      2  C   UNL     1       3.803   4.100  19.430  0.00  0.00    +0.000 A 
ATOM      3  C   UNL     1       3.934   5.172  18.532  0.00  0.00    +0.000 A 
ATOM      4  C   UNL     1       3.082   6.310  18.738  0.00  0.00    +0.000 A 
ATOM      5  C   UNL     1       3.038   7.451  17.898  0.00  0.00    +0.000 A 
ATOM      6  C   UNL     1       2.271   8.577  18.198  0.00  0.00    +0.000 A 
ATOM      7  C   UNL     1       1.448   8.579  19.317  0.00  0.00    +0.000 A 
ATOM      8  C   UNL     1       1.423   7.426  20.119  0.00  0.00    +0.000 A 
ATOM      9  C   UNL     1       2.211   6.302  19.857  0.00  0.00    +0.000 A 
ATOM     10  N   UNL     1       2.089   5.255  20.687  0.00  0.00    +0.000 NA
ENDROOT
BRANCH   3  11
ATOM     11  C   UNL     1       4.946   5.057  17.437  0.00  0.00    +0.000 A 
ATOM     12  C   UNL     1       4.716   4.232  16.315  0.00  0.00    +0.000 A 
ATOM     13  C   UNL     1       5.655   4.114  15.282  0.00  0.00    +0.000 A 
ATOM     14  C   UNL     1       6.824   4.857  15.333  0.00  0.00    +0.000 A 
ATOM     15  F   UNL     1       7.706   4.778  14.328  0.00  0.00    +0.000 F 
ATOM     16  C   UNL     1       7.095   5.671  16.420  0.00  0.00    +0.000 A 
ATOM     17  C   UNL     1       6.184   5.730  17.480  0.00  0.00    +0.000 A 
ENDBRANCH   3  11
BRANCH   1  19
ATOM     18  N   UNL     1       1.461   2.849  21.916  0.00  0.00    +0.000 N 
ATOM     19  C   UNL     1       2.699   2.991  21.354  0.00  0.00    +0.000 C 
ATOM     20  O   UNL     1       3.597   2.187  21.574  0.00  0.00    +0.000 OA
ATOM     21  H   UNL     1       1.283   2.065  22.529  0.00  0.00    +0.000 HD
ATOM     22  H   UNL     1       0.734   3.523  21.714  0.00  0.00    +0.000 HD
ENDBRANCH   1  19
BRANCH   7  23
ATOM     23  C   UNL     1       0.577   9.773  19.613  0.00  0.00    +0.000 C 
BRANCH  23  24
ATOM     24  N   UNL     1       0.275   9.923  21.027  0.00  0.00    +0.000 N 
ATOM     25  C   UNL     1      -0.194   8.918  21.840  0.00  0.00    +0.000 A 
ATOM     26  C   UNL     1      -0.515   9.533  23.029  0.00  0.00    +0.000 A 
ATOM     27  N   UNL     1      -0.244  10.875  22.974  0.00  0.00    +0.000 NA
ATOM     28  C   UNL     1       0.230  11.070  21.768  0.00  0.00    +0.000 A 
ATOM     29 CL   UNL     1       0.715  12.577  21.144  0.00  0.00    +0.000 Cl
ENDBRANCH  23  24
ENDBRANCH   7  23
TORSDOF 4
ENDMDL
MODEL 7
REMARK VINA RESULT:      -8.7      4.239      7.266
REMARK  Name = 
REMARK  4 active torsions:
REMARK  status: ('A' for Active; 'I' for Inactive)
REMARK    1  A    between atoms: C_2  and  C_4
REMARK    2  A    between atoms: C_6  and  C_7
REMARK    3  A    between atoms: C_17  and  C_18
REMARK    4  A    between atoms: C_18  and  N_19
REMARK                            x       y       z     vdW  Elec       q    Type
REMARK                         _______ _______ _______ _____ _____    ______ ____
ROOT
ATOM      1  C   UNL     1       2.327   4.500  20.486  0.00  0.00    +0.000 A 
ATOM      2  C   UNL     1       3.126   4.416  19.361  0.00  0.00    +0.000 A 
ATOM      3  C   UNL     1       3.281   5.540  18.533  0.00  0.00    +0.000 A 
ATOM      4  C   UNL     1       2.592   6.739  18.917  0.00  0.00    +0.000 A 
ATOM      5  C   UNL     1       2.589   7.946  18.173  0.00  0.00    +0.000 A 
ATOM      6  C   UNL     1       1.992   9.117  18.639  0.00  0.00    +0.000 A 
ATOM      7  C   UNL     1       1.298   9.111  19.843  0.00  0.00    +0.000 A 
ATOM      8  C   UNL     1       1.228   7.904  20.558  0.00  0.00    +0.000 A 
ATOM      9  C   UNL     1       1.850   6.729  20.127  0.00  0.00    +0.000 A 
ATOM     10  N   UNL     1       1.699   5.634  20.888  0.00  0.00    +0.000 NA
ENDROOT
BRANCH   3  11
ATOM     11  C   UNL     1       4.151   5.412  17.323  0.00  0.00    +0.000 A 
ATOM     12  C   UNL     1       4.463   4.147  16.779  0.00  0.00    +0.000 A 
ATOM     13  C   UNL     1       5.276   4.013  15.647  0.00  0.00    +0.000 A 
ATOM     14  C   UNL     1       5.757   5.146  15.012  0.00  0.00    +0.000 A 
ATOM     15  F   UNL     1       6.502   5.023  13.905  0.00  0.00    +0.000 F 
ATOM     16  C   UNL     1       5.485   6.406  15.517  0.00  0.00    +0.000 A 
ATOM     17  C   UNL     1       4.729   6.531  16.688  0.00  0.00    +0.000 A 
ENDBRANCH   3  11
BRANCH   1  19
ATOM     18  N   UNL     1       0.834   2.794  21.358  0.00  0.00    +0.000 N 
ATOM     19  C   UNL     1       2.115   3.271  21.315  0.00  0.00    +0.000 C 
ATOM     20  O   UNL     1       3.025   2.710  21.913  0.00  0.00    +0.000 OA
ATOM     21  H   UNL     1       0.634   1.963  21.896  0.00  0.00    +0.000 HD
ATOM     22  H   UNL     1       0.101   3.271  20.850  0.00  0.00    +0.000 HD
ENDBRANCH   1  19
BRANCH   7  23
ATOM     23  C   UNL     1       0.605  10.361  20.324  0.00  0.00    +0.000 C 
BRANCH  23  24
ATOM     24  N   UNL     1      -0.350  10.889  19.366  0.00  0.00    +0.000 N 
ATOM     25  C   UNL     1      -1.391  10.173  18.819  0.00  0.00    +0.000 A 
ATOM     26  C   UNL     1      -1.916  10.986  17.840  0.00  0.00    +0.000 A 
ATOM     27  N   UNL     1      -1.242  12.178  17.782  0.00  0.00    +0.000 NA
ATOM     28  C   UNL     1      -0.320  12.085  18.708  0.00  0.00    +0.000 A 
ATOM     29 CL   UNL     1       0.830  13.289  19.060  0.00  0.00    +0.000 Cl
ENDBRANCH  23  24
ENDBRANCH   7  23
TORSDOF 4
ENDMDL
MODEL 8
REMARK VINA RESULT:      -8.6      3.188      4.558
REMARK  Name = 
REMARK  4 active torsions:
REMARK  status: ('A' for Active; 'I' for Inactive)
REMARK    1  A    between atoms: C_2  and  C_4
REMARK    2  A    between atoms: C_6  and  C_7
REMARK    3  A    between atoms: C_17  and  C_18
REMARK    4  A    between atoms: C_18  and  N_19
REMARK                            x       y       z     vdW  Elec       q    Type
REMARK                         _______ _______ _______ _____ _____    ______ ____
ROOT
ATOM      1  C   UNL     1       2.614   8.119  17.825  0.00  0.00    +0.000 A 
ATOM      2  C   UNL     1       2.148   7.159  18.703  0.00  0.00    +0.000 A 
ATOM      3  C   UNL     1       2.757   5.894  18.735  0.00  0.00    +0.000 A 
ATOM      4  C   UNL     1       3.857   5.671  17.840  0.00  0.00    +0.000 A 
ATOM      5  C   UNL     1       4.549   4.442  17.697  0.00  0.00    +0.000 A 
ATOM      6  C   UNL     1       5.679   4.303  16.891  0.00  0.00    +0.000 A 
ATOM      7  C   UNL     1       6.122   5.375  16.125  0.00  0.00    +0.000 A 
ATOM      8  C   UNL     1       5.402   6.579  16.198  0.00  0.00    +0.000 A 
ATOM      9  C   UNL     1       4.290   6.749  17.027  0.00  0.00    +0.000 A 
ATOM     10  N   UNL     1       3.676   7.942  16.999  0.00  0.00    +0.000 NA
ENDROOT
BRANCH   3  11
ATOM     11  C   UNL     1       2.226   4.878  19.696  0.00  0.00    +0.000 A 
ATOM     12  C   UNL     1       1.209   3.976  19.316  0.00  0.00    +0.000 A 
ATOM     13  C   UNL     1       0.702   3.020  20.205  0.00  0.00    +0.000 A 
ATOM     14  C   UNL     1       1.236   2.920  21.479  0.00  0.00    +0.000 A 
ATOM     15  F   UNL     1       0.782   1.980  22.319  0.00  0.00    +0.000 F 
ATOM     16  C   UNL     1       2.228   3.791  21.897  0.00  0.00    +0.000 A 
ATOM     17  C   UNL     1       2.681   4.788  21.028  0.00  0.00    +0.000 A 
ENDBRANCH   3  11
BRANCH   1  19
ATOM     18  N   UNL     1       0.538   9.378  17.729  0.00  0.00    +0.000 N 
ATOM     19  C   UNL     1       1.904   9.436  17.753  0.00  0.00    +0.000 C 
ATOM     20  O   UNL     1       2.497  10.508  17.730  0.00  0.00    +0.000 OA
ATOM     21  H   UNL     1       0.006  10.236  17.688  0.00  0.00    +0.000 HD
ATOM     22  H   UNL     1       0.071   8.481  17.755  0.00  0.00    +0.000 HD
ENDBRANCH   1  19
BRANCH   7  23
ATOM     23  C   UNL     1       7.310   5.213  15.211  0.00  0.00    +0.000 C 
BRANCH  23  24
ATOM     24  N   UNL     1       6.955   4.707  13.897  0.00  0.00    +0.000 N 
ATOM     25  C   UNL     1       6.006   3.740  13.658  0.00  0.00    +0.000 A 
ATOM     26  C   UNL     1       6.126   3.436  12.321  0.00  0.00    +0.000 A 
ATOM     27  N   UNL     1       7.104   4.195  11.733  0.00  0.00    +0.000 NA
ATOM     28  C   UNL     1       7.572   4.943  12.701  0.00  0.00    +0.000 A 
ATOM     29 CL   UNL     1       8.835   6.073  12.536  0.00  0.00    +0.000 Cl
ENDBRANCH  23  24
ENDBRANCH   7  23
TORSDOF 4
ENDMDL
MODEL 9
REMARK VINA RESULT:      -8.5      4.422      7.540
REMARK  Name = 
REMARK  4 active torsions:
REMARK  status: ('A' for Active; 'I' for Inactive)
REMARK    1  A    between atoms: C_2  and  C_4
REMARK    2  A    between atoms: C_6  and  C_7
REMARK    3  A    between atoms: C_17  and  C_18
REMARK    4  A    between atoms: C_18  and  N_19
REMARK                            x       y       z     vdW  Elec       q    Type
REMARK                         _______ _______ _______ _____ _____    ______ ____
ROOT
ATOM      1  C   UNL     1       2.300   4.990  20.395  0.00  0.00    +0.000 A 
ATOM      2  C   UNL     1       3.320   4.812  19.478  0.00  0.00    +0.000 A 
ATOM      3  C   UNL     1       3.582   5.813  18.528  0.00  0.00    +0.000 A 
ATOM      4  C   UNL     1       2.763   6.992  18.572  0.00  0.00    +0.000 A 
ATOM      5  C   UNL     1       2.849   8.072  17.657  0.00  0.00    +0.000 A 
ATOM      6  C   UNL     1       2.104   9.242  17.803  0.00  0.00    +0.000 A 
ATOM      7  C   UNL     1       1.176   9.352  18.832  0.00  0.00    +0.000 A 
ATOM      8  C   UNL     1       1.025   8.260  19.702  0.00  0.00    +0.000 A 
ATOM      9  C   UNL     1       1.787   7.094  19.596  0.00  0.00    +0.000 A 
ATOM     10  N   UNL     1       1.541   6.112  20.478  0.00  0.00    +0.000 NA
ENDROOT
BRANCH   3  11
ATOM     11  C   UNL     1       4.690   5.586  17.550  0.00  0.00    +0.000 A 
ATOM     12  C   UNL     1       5.934   6.239  17.692  0.00  0.00    +0.000 A 
ATOM     13  C   UNL     1       6.980   6.036  16.784  0.00  0.00    +0.000 A 
ATOM     14  C   UNL     1       6.815   5.142  15.739  0.00  0.00    +0.000 A 
ATOM     15  F   UNL     1       7.828   4.915  14.891  0.00  0.00    +0.000 F 
ATOM     16  C   UNL     1       5.609   4.488  15.556  0.00  0.00    +0.000 A 
ATOM     17  C   UNL     1       4.545   4.747  16.426  0.00  0.00    +0.000 A 
ENDBRANCH   3  11
BRANCH   1  19
ATOM     18  N   UNL     1       0.922   3.090  21.021  0.00  0.00    +0.000 N 
ATOM     19  C   UNL     1       1.988   3.881  21.351  0.00  0.00    +0.000 C 
ATOM     20  O   UNL     1       2.644   3.675  22.365  0.00  0.00    +0.000 OA
ATOM     21  H   UNL     1       0.669   2.322  21.626  0.00  0.00    +0.000 HD
ATOM     22  H   UNL     1       0.399   3.276  20.175  0.00  0.00    +0.000 HD
ENDBRANCH   1  19
BRANCH   7  23
ATOM     23  C   UNL     1       0.331  10.594  18.959  0.00  0.00    +0.000 C 
BRANCH  23  24
ATOM     24  N   UNL     1       1.000  11.670  19.669  0.00  0.00    +0.000 N 
ATOM     25  C   UNL     1       1.952  12.499  19.120  0.00  0.00    +0.000 A 
ATOM     26  C   UNL     1       2.444  13.234  20.176  0.00  0.00    +0.000 A 
ATOM     27  N   UNL     1       1.815  12.893  21.344  0.00  0.00    +0.000 NA
ATOM     28  C   UNL     1       0.959  11.962  21.003  0.00  0.00    +0.000 A 
ATOM     29 CL   UNL     1      -0.085  11.157  22.079  0.00  0.00    +0.000 Cl
ENDBRANCH  23  24
ENDBRANCH   7  23
TORSDOF 4
ENDMDL
