MODEL 1
REMARK VINA RESULT:      -8.1      0.000      0.000
REMARK  Name = 
REMARK  4 active torsions:
REMARK  status: ('A' for Active; 'I' for Inactive)
REMARK    1  A    between atoms: C_1  and  C_2
REMARK    2  A    between atoms: C_2  and  O_3
REMARK    3  A    between atoms: O_3  and  C_4
REMARK    4  A    between atoms: C_4  and  C_6
REMARK                            x       y       z     vdW  Elec       q    Type
REMARK                         _______ _______ _______ _____ _____    ______ ____
ROOT
ATOM      1  C   UNL     1       5.551   5.315  15.376  0.00  0.00    +0.000 C 
ATOM      2  C   UNL     1       4.920   4.131  16.136  0.00  0.00    +0.000 C 
ATOM      3  C   UNL     1       4.003   4.638  17.216  0.00  0.00    +0.000 A 
ATOM      4  C   UNL     1       4.095   5.947  17.647  0.00  0.00    +0.000 A 
ATOM      5  S   UNL     1       2.967   6.323  18.851  0.00  0.00    +0.000 S 
ATOM      6  C   UNL     1       2.332   4.723  18.851  0.00  0.00    +0.000 A 
ATOM      7  C   UNL     1       1.288   4.238  19.660  0.00  0.00    +0.000 A 
ATOM      8  C   UNL     1       0.904   2.903  19.535  0.00  0.00    +0.000 A 
ATOM      9  C   UNL     1       1.540   2.068  18.627  0.00  0.00    +0.000 A 
ATOM     10  C   UNL     1       2.574   2.556  17.821  0.00  0.00    +0.000 A 
ATOM     11  C   UNL     1       2.988   3.905  17.923  0.00  0.00    +0.000 A 
ATOM     12  C   UNL     1       5.041   6.969  17.102  0.00  0.00    +0.000 C 
ATOM     13  N   UNL     1       6.117   6.331  16.324  0.00  0.00    +0.000 NA
ATOM     14  H   UNL     1       6.724   5.831  16.977  0.00  0.00    +0.000 HD
ENDROOT
BRANCH   1  15
ATOM     15  C   UNL     1       6.656   4.797  14.456  0.00  0.00    +0.000 C 
ATOM     16  O   UNL     1       7.708   5.397  14.220  0.00  0.00    +0.000 OA
BRANCH  15  17
ATOM     17  O   UNL     1       6.298   3.605  13.893  0.00  0.00    +0.000 OA
BRANCH  17  19
ATOM     18  C   UNL     1       4.985   3.228  11.916  0.00  0.00    +0.000 C 
ATOM     19  C   UNL     1       6.358   3.590  12.457  0.00  0.00    +0.000 C 
ENDBRANCH  17  19
ENDBRANCH  15  17
ENDBRANCH   1  15
TORSDOF 3
ENDMDL
MODEL 2
REMARK VINA RESULT:      -7.7      1.426      1.500
REMARK  Name = 
REMARK  4 active torsions:
REMARK  status: ('A' for Active; 'I' for Inactive)
REMARK    1  A    between atoms: C_1  and  C_2
REMARK    2  A    between atoms: C_2  and  O_3
REMARK    3  A    between atoms: O_3  and  C_4
REMARK    4  A    between atoms: C_4  and  C_6
REMARK                            x       y       z     vdW  Elec       q    Type
REMARK                         _______ _______ _______ _____ _____    ______ ____
ROOT
ATOM      1  C   UNL     1       6.491   5.031  15.272  0.00  0.00    +0.000 C 
ATOM      2  C   UNL     1       5.193   4.291  15.650  0.00  0.00    +0.000 C 
ATOM      3  C   UNL     1       4.897   4.477  17.113  0.00  0.00    +0.000 A 
ATOM      4  C   UNL     1       5.890   4.903  17.974  0.00  0.00    +0.000 A 
ATOM      5  S   UNL     1       5.352   5.068  19.569  0.00  0.00    +0.000 S 
ATOM      6  C   UNL     1       3.765   4.541  19.159  0.00  0.00    +0.000 A 
ATOM      7  C   UNL     1       2.675   4.405  20.040  0.00  0.00    +0.000 A 
ATOM      8  C   UNL     1       1.455   3.956  19.536  0.00  0.00    +0.000 A 
ATOM      9  C   UNL     1       1.317   3.649  18.190  0.00  0.00    +0.000 A 
ATOM     10  C   UNL     1       2.401   3.790  17.317  0.00  0.00    +0.000 A 
ATOM     11  C   UNL     1       3.653   4.245  17.796  0.00  0.00    +0.000 A 
ATOM     12  C   UNL     1       7.290   5.243  17.573  0.00  0.00    +0.000 C 
ATOM     13  N   UNL     1       7.600   4.713  16.233  0.00  0.00    +0.000 NA
ATOM     14  H   UNL     1       7.657   3.695  16.302  0.00  0.00    +0.000 HD
ENDROOT
BRANCH   1  15
ATOM     15  C   UNL     1       6.908   4.635  13.856  0.00  0.00    +0.000 C 
ATOM     16  O   UNL     1       7.657   5.300  13.135  0.00  0.00    +0.000 OA
BRANCH  15  17
ATOM     17  O   UNL     1       6.298   3.472  13.480  0.00  0.00    +0.000 OA
BRANCH  17  19
ATOM     18  C   UNL     1       4.670   3.370  11.715  0.00  0.00    +0.000 C 
ATOM     19  C   UNL     1       6.150   3.317  12.059  0.00  0.00    +0.000 C 
ENDBRANCH  17  19
ENDBRANCH  15  17
ENDBRANCH   1  15
TORSDOF 3
ENDMDL
MODEL 3
REMARK VINA RESULT:      -7.2      2.074      3.151
REMARK  Name = 
REMARK  4 active torsions:
REMARK  status: ('A' for Active; 'I' for Inactive)
REMARK    1  A    between atoms: C_1  and  C_2
REMARK    2  A    between atoms: C_2  and  O_3
REMARK    3  A    between atoms: O_3  and  C_4
REMARK    4  A    between atoms: C_4  and  C_6
REMARK                            x       y       z     vdW  Elec       q    Type
REMARK                         _______ _______ _______ _____ _____    ______ ____
ROOT
ATOM      1  C   UNL     1       5.921   5.029  16.427  0.00  0.00    +0.000 C 
ATOM      2  C   UNL     1       4.810   6.098  16.383  0.00  0.00    +0.000 C 
ATOM      3  C   UNL     1       4.027   6.085  17.668  0.00  0.00    +0.000 A 
ATOM      4  C   UNL     1       4.096   4.995  18.513  0.00  0.00    +0.000 A 
ATOM      5  S   UNL     1       3.160   5.184  19.909  0.00  0.00    +0.000 S 
ATOM      6  C   UNL     1       2.605   6.735  19.408  0.00  0.00    +0.000 A 
ATOM      7  C   UNL     1       1.719   7.574  20.110  0.00  0.00    +0.000 A 
ATOM      8  C   UNL     1       1.368   8.801  19.550  0.00  0.00    +0.000 A 
ATOM      9  C   UNL     1       1.883   9.190  18.322  0.00  0.00    +0.000 A 
ATOM     10  C   UNL     1       2.767   8.356  17.629  0.00  0.00    +0.000 A 
ATOM     11  C   UNL     1       3.145   7.103  18.170  0.00  0.00    +0.000 A 
ATOM     12  C   UNL     1       4.935   3.778  18.283  0.00  0.00    +0.000 C 
ATOM     13  N   UNL     1       5.384   3.703  16.881  0.00  0.00    +0.000 NA
ATOM     14  H   UNL     1       4.569   3.492  16.300  0.00  0.00    +0.000 HD
ENDROOT
BRANCH   1  15
ATOM     15  C   UNL     1       6.543   4.885  15.039  0.00  0.00    +0.000 C 
ATOM     16  O   UNL     1       7.638   5.351  14.712  0.00  0.00    +0.000 OA
BRANCH  15  17
ATOM     17  O   UNL     1       5.700   4.217  14.198  0.00  0.00    +0.000 OA
BRANCH  17  19
ATOM     18  C   UNL     1       5.246   3.221  12.059  0.00  0.00    +0.000 C 
ATOM     19  C   UNL     1       6.325   3.733  12.998  0.00  0.00    +0.000 C 
ENDBRANCH  17  19
ENDBRANCH  15  17
ENDBRANCH   1  15
TORSDOF 3
ENDMDL
MODEL 4
REMARK VINA RESULT:      -7.2      1.670      1.898
REMARK  Name = 
REMARK  4 active torsions:
REMARK  status: ('A' for Active; 'I' for Inactive)
REMARK    1  A    between atoms: C_1  and  C_2
REMARK    2  A    between atoms: C_2  and  O_3
REMARK    3  A    between atoms: O_3  and  C_4
REMARK    4  A    between atoms: C_4  and  C_6
REMARK                            x       y       z     vdW  Elec       q    Type
REMARK                         _______ _______ _______ _____ _____    ______ ____
ROOT
ATOM      1  C   UNL     1       5.919   5.198  16.742  0.00  0.00    +0.000 C 
ATOM      2  C   UNL     1       5.518   4.367  17.978  0.00  0.00    +0.000 C 
ATOM      3  C   UNL     1       4.217   4.871  18.541  0.00  0.00    +0.000 A 
ATOM      4  C   UNL     1       3.750   6.124  18.196  0.00  0.00    +0.000 A 
ATOM      5  S   UNL     1       2.266   6.495  18.919  0.00  0.00    +0.000 S 
ATOM      6  C   UNL     1       2.215   4.986  19.745  0.00  0.00    +0.000 A 
ATOM      7  C   UNL     1       1.200   4.541  20.613  0.00  0.00    +0.000 A 
ATOM      8  C   UNL     1       1.324   3.286  21.207  0.00  0.00    +0.000 A 
ATOM      9  C   UNL     1       2.429   2.488  20.946  0.00  0.00    +0.000 A 
ATOM     10  C   UNL     1       3.434   2.932  20.080  0.00  0.00    +0.000 A 
ATOM     11  C   UNL     1       3.338   4.200  19.460  0.00  0.00    +0.000 A 
ATOM     12  C   UNL     1       4.426   7.066  17.251  0.00  0.00    +0.000 C 
ATOM     13  N   UNL     1       5.827   6.670  17.022  0.00  0.00    +0.000 NA
ATOM     14  H   UNL     1       6.349   6.848  17.883  0.00  0.00    +0.000 HD
ENDROOT
BRANCH   1  15
ATOM     15  C   UNL     1       7.347   4.841  16.332  0.00  0.00    +0.000 C 
ATOM     16  O   UNL     1       8.137   4.202  17.033  0.00  0.00    +0.000 OA
BRANCH  15  17
ATOM     17  O   UNL     1       7.646   5.368  15.109  0.00  0.00    +0.000 OA
BRANCH  17  19
ATOM     18  C   UNL     1       7.639   5.050  12.727  0.00  0.00    +0.000 C 
ATOM     19  C   UNL     1       6.885   4.811  14.024  0.00  0.00    +0.000 C 
ENDBRANCH  17  19
ENDBRANCH  15  17
ENDBRANCH   1  15
TORSDOF 3
ENDMDL
MODEL 5
REMARK VINA RESULT:      -6.8      0.935      1.398
REMARK  Name = 
REMARK  4 active torsions:
REMARK  status: ('A' for Active; 'I' for Inactive)
REMARK    1  A    between atoms: C_1  and  C_2
REMARK    2  A    between atoms: C_2  and  O_3
REMARK    3  A    between atoms: O_3  and  C_4
REMARK    4  A    between atoms: C_4  and  C_6
REMARK                            x       y       z     vdW  Elec       q    Type
REMARK                         _______ _______ _______ _____ _____    ______ ____
ROOT
ATOM      1  C   UNL     1       5.440   5.250  15.368  0.00  0.00    +0.000 C 
ATOM      2  C   UNL     1       4.777   4.087  16.133  0.00  0.00    +0.000 C 
ATOM      3  C   UNL     1       3.960   4.619  17.279  0.00  0.00    +0.000 A 
ATOM      4  C   UNL     1       4.164   5.905  17.738  0.00  0.00    +0.000 A 
ATOM      5  S   UNL     1       3.135   6.318  19.017  0.00  0.00    +0.000 S 
ATOM      6  C   UNL     1       2.397   4.762  19.013  0.00  0.00    +0.000 A 
ATOM      7  C   UNL     1       1.371   4.321  19.870  0.00  0.00    +0.000 A 
ATOM      8  C   UNL     1       0.893   3.019  19.732  0.00  0.00    +0.000 A 
ATOM      9  C   UNL     1       1.419   2.172  18.766  0.00  0.00    +0.000 A 
ATOM     10  C   UNL     1       2.434   2.616  17.913  0.00  0.00    +0.000 A 
ATOM     11  C   UNL     1       2.942   3.933  18.026  0.00  0.00    +0.000 A 
ATOM     12  C   UNL     1       5.142   6.881  17.165  0.00  0.00    +0.000 C 
ATOM     13  N   UNL     1       6.127   6.199  16.307  0.00  0.00    +0.000 NA
ATOM     14  H   UNL     1       6.737   5.641  16.909  0.00  0.00    +0.000 HD
ENDROOT
BRANCH   1  15
ATOM     15  C   UNL     1       6.453   4.690  14.370  0.00  0.00    +0.000 C 
ATOM     16  O   UNL     1       6.385   3.569  13.859  0.00  0.00    +0.000 OA
BRANCH  15  17
ATOM     17  O   UNL     1       7.469   5.578  14.161  0.00  0.00    +0.000 OA
BRANCH  17  19
ATOM     18  C   UNL     1       7.939   6.137  11.872  0.00  0.00    +0.000 C 
ATOM     19  C   UNL     1       8.318   5.253  13.048  0.00  0.00    +0.000 C 
ENDBRANCH  17  19
ENDBRANCH  15  17
ENDBRANCH   1  15
TORSDOF 3
ENDMDL
MODEL 6
REMARK VINA RESULT:      -6.6      3.160      6.264
REMARK  Name = 
REMARK  4 active torsions:
REMARK  status: ('A' for Active; 'I' for Inactive)
REMARK    1  A    between atoms: C_1  and  C_2
REMARK    2  A    between atoms: C_2  and  O_3
REMARK    3  A    between atoms: O_3  and  C_4
REMARK    4  A    between atoms: C_4  and  C_6
REMARK                            x       y       z     vdW  Elec       q    Type
REMARK                         _______ _______ _______ _____ _____    ______ ____
ROOT
ATOM      1  C   UNL     1       4.240   3.207  18.947  0.00  0.00    +0.000 C 
ATOM      2  C   UNL     1       4.180   3.253  17.407  0.00  0.00    +0.000 C 
ATOM      3  C   UNL     1       5.276   4.134  16.871  0.00  0.00    +0.000 A 
ATOM      4  C   UNL     1       5.915   5.032  17.704  0.00  0.00    +0.000 A 
ATOM      5  S   UNL     1       7.126   5.913  16.917  0.00  0.00    +0.000 S 
ATOM      6  C   UNL     1       6.811   5.132  15.416  0.00  0.00    +0.000 A 
ATOM      7  C   UNL     1       7.474   5.365  14.196  0.00  0.00    +0.000 A 
ATOM      8  C   UNL     1       7.084   4.644  13.069  0.00  0.00    +0.000 A 
ATOM      9  C   UNL     1       6.059   3.711  13.148  0.00  0.00    +0.000 A 
ATOM     10  C   UNL     1       5.405   3.479  14.362  0.00  0.00    +0.000 A 
ATOM     11  C   UNL     1       5.779   4.194  15.526  0.00  0.00    +0.000 A 
ATOM     12  C   UNL     1       5.633   5.206  19.163  0.00  0.00    +0.000 C 
ATOM     13  N   UNL     1       4.347   4.587  19.530  0.00  0.00    +0.000 NA
ATOM     14  H   UNL     1       3.598   5.148  19.118  0.00  0.00    +0.000 HD
ENDROOT
BRANCH   1  15
ATOM     15  C   UNL     1       2.987   2.517  19.484  0.00  0.00    +0.000 C 
ATOM     16  O   UNL     1       2.215   1.839  18.800  0.00  0.00    +0.000 OA
BRANCH  15  17
ATOM     17  O   UNL     1       2.811   2.795  20.809  0.00  0.00    +0.000 OA
BRANCH  17  19
ATOM     18  C   UNL     1       0.962   4.307  20.542  0.00  0.00    +0.000 C 
ATOM     19  C   UNL     1       1.443   3.018  21.189  0.00  0.00    +0.000 C 
ENDBRANCH  17  19
ENDBRANCH  15  17
ENDBRANCH   1  15
TORSDOF 3
ENDMDL
MODEL 7
REMARK VINA RESULT:      -6.5      2.482      3.919
REMARK  Name = 
REMARK  4 active torsions:
REMARK  status: ('A' for Active; 'I' for Inactive)
REMARK    1  A    between atoms: C_1  and  C_2
REMARK    2  A    between atoms: C_2  and  O_3
REMARK    3  A    between atoms: O_3  and  C_4
REMARK    4  A    between atoms: C_4  and  C_6
REMARK                            x       y       z     vdW  Elec       q    Type
REMARK                         _______ _______ _______ _____ _____    ______ ____
ROOT
ATOM      1  C   UNL     1       6.541   5.154  17.895  0.00  0.00    +0.000 C 
ATOM      2  C   UNL     1       5.451   5.270  18.979  0.00  0.00    +0.000 C 
ATOM      3  C   UNL     1       4.238   4.473  18.583  0.00  0.00    +0.000 A 
ATOM      4  C   UNL     1       4.064   4.079  17.270  0.00  0.00    +0.000 A 
ATOM      5  S   UNL     1       2.652   3.178  17.035  0.00  0.00    +0.000 S 
ATOM      6  C   UNL     1       2.210   3.312  18.693  0.00  0.00    +0.000 A 
ATOM      7  C   UNL     1       1.058   2.775  19.298  0.00  0.00    +0.000 A 
ATOM      8  C   UNL     1       0.852   2.987  20.661  0.00  0.00    +0.000 A 
ATOM      9  C   UNL     1       1.767   3.716  21.407  0.00  0.00    +0.000 A 
ATOM     10  C   UNL     1       2.912   4.245  20.804  0.00  0.00    +0.000 A 
ATOM     11  C   UNL     1       3.152   4.046  19.423  0.00  0.00    +0.000 A 
ATOM     12  C   UNL     1       5.022   4.353  16.154  0.00  0.00    +0.000 C 
ATOM     13  N   UNL     1       5.979   5.411  16.527  0.00  0.00    +0.000 NA
ATOM     14  H   UNL     1       5.469   6.296  16.570  0.00  0.00    +0.000 HD
ENDROOT
BRANCH   1  15
ATOM     15  C   UNL     1       7.657   6.155  18.188  0.00  0.00    +0.000 C 
ATOM     16  O   UNL     1       8.321   6.177  19.229  0.00  0.00    +0.000 OA
BRANCH  15  17
ATOM     17  O   UNL     1       7.786   7.051  17.166  0.00  0.00    +0.000 OA
BRANCH  17  19
ATOM     18  C   UNL     1       8.414   9.178  18.089  0.00  0.00    +0.000 C 
ATOM     19  C   UNL     1       7.291   8.365  17.467  0.00  0.00    +0.000 C 
ENDBRANCH  17  19
ENDBRANCH  15  17
ENDBRANCH   1  15
TORSDOF 3
ENDMDL
MODEL 8
REMARK VINA RESULT:      -6.4      1.738      1.957
REMARK  Name = 
REMARK  4 active torsions:
REMARK  status: ('A' for Active; 'I' for Inactive)
REMARK    1  A    between atoms: C_1  and  C_2
REMARK    2  A    between atoms: C_2  and  O_3
REMARK    3  A    between atoms: O_3  and  C_4
REMARK    4  A    between atoms: C_4  and  C_6
REMARK                            x       y       z     vdW  Elec       q    Type
REMARK                         _______ _______ _______ _____ _____    ______ ____
ROOT
ATOM      1  C   UNL     1       5.602   5.765  16.831  0.00  0.00    +0.000 C 
ATOM      2  C   UNL     1       5.496   4.809  18.036  0.00  0.00    +0.000 C 
ATOM      3  C   UNL     1       4.177   4.999  18.735  0.00  0.00    +0.000 A 
ATOM      4  C   UNL     1       3.433   6.142  18.515  0.00  0.00    +0.000 A 
ATOM      5  S   UNL     1       1.978   6.155  19.378  0.00  0.00    +0.000 S 
ATOM      6  C   UNL     1       2.315   4.630  20.102  0.00  0.00    +0.000 A 
ATOM      7  C   UNL     1       1.498   3.940  21.017  0.00  0.00    +0.000 A 
ATOM      8  C   UNL     1       1.932   2.711  21.512  0.00  0.00    +0.000 A 
ATOM      9  C   UNL     1       3.148   2.178  21.110  0.00  0.00    +0.000 A 
ATOM     10  C   UNL     1       3.955   2.865  20.198  0.00  0.00    +0.000 A 
ATOM     11  C   UNL     1       3.544   4.114  19.675  0.00  0.00    +0.000 A 
ATOM     12  C   UNL     1       3.810   7.249  17.583  0.00  0.00    +0.000 C 
ATOM     13  N   UNL     1       5.235   7.169  17.216  0.00  0.00    +0.000 NA
ATOM     14  H   UNL     1       5.787   7.411  18.042  0.00  0.00    +0.000 HD
ENDROOT
BRANCH   1  15
ATOM     15  C   UNL     1       7.028   5.737  16.284  0.00  0.00    +0.000 C 
ATOM     16  O   UNL     1       7.852   6.644  16.434  0.00  0.00    +0.000 OA
BRANCH  15  17
ATOM     17  O   UNL     1       7.249   4.597  15.565  0.00  0.00    +0.000 OA
BRANCH  17  19
ATOM     18  C   UNL     1       5.913   3.858  13.710  0.00  0.00    +0.000 C 
ATOM     19  C   UNL     1       7.063   4.748  14.149  0.00  0.00    +0.000 C 
ENDBRANCH  17  19
ENDBRANCH  15  17
ENDBRANCH   1  15
TORSDOF 3
ENDMDL
MODEL 9
REMARK VINA RESULT:      -6.3      4.393      7.095
REMARK  Name = 
REMARK  4 active torsions:
REMARK  status: ('A' for Active; 'I' for Inactive)
REMARK    1  A    between atoms: C_1  and  C_2
REMARK    2  A    between atoms: C_2  and  O_3
REMARK    3  A    between atoms: O_3  and  C_4
REMARK    4  A    between atoms: C_4  and  C_6
REMARK                            x       y       z     vdW  Elec       q    Type
REMARK                         _______ _______ _______ _____ _____    ______ ____
ROOT
ATOM      1  C   UNL     1       1.858   6.969  19.729  0.00  0.00    +0.000 C 
ATOM      2  C   UNL     1       2.991   7.163  18.702  0.00  0.00    +0.000 C 
ATOM      3  C   UNL     1       3.585   5.832  18.328  0.00  0.00    +0.000 A 
ATOM      4  C   UNL     1       3.370   4.727  19.129  0.00  0.00    +0.000 A 
ATOM      5  S   UNL     1       4.106   3.326  18.528  0.00  0.00    +0.000 S 
ATOM      6  C   UNL     1       4.765   4.170  17.180  0.00  0.00    +0.000 A 
ATOM      7  C   UNL     1       5.565   3.622  16.159  0.00  0.00    +0.000 A 
ATOM      8  C   UNL     1       6.022   4.457  15.141  0.00  0.00    +0.000 A 
ATOM      9  C   UNL     1       5.694   5.806  15.133  0.00  0.00    +0.000 A 
ATOM     10  C   UNL     1       4.896   6.346  16.147  0.00  0.00    +0.000 A 
ATOM     11  C   UNL     1       4.414   5.525  17.194  0.00  0.00    +0.000 A 
ATOM     12  C   UNL     1       2.541   4.712  20.373  0.00  0.00    +0.000 C 
ATOM     13  N   UNL     1       2.292   6.081  20.859  0.00  0.00    +0.000 NA
ATOM     14  H   UNL     1       3.175   6.454  21.215  0.00  0.00    +0.000 HD
ENDROOT
BRANCH   1  15
ATOM     15  C   UNL     1       1.433   8.330  20.279  0.00  0.00    +0.000 C 
ATOM     16  O   UNL     1       1.292   9.348  19.595  0.00  0.00    +0.000 OA
BRANCH  15  17
ATOM     17  O   UNL     1       1.282   8.279  21.635  0.00  0.00    +0.000 OA
BRANCH  17  19
ATOM     18  C   UNL     1      -0.121   9.489  23.166  0.00  0.00    +0.000 C 
ATOM     19  C   UNL     1       1.095   9.561  22.257  0.00  0.00    +0.000 C 
ENDBRANCH  17  19
ENDBRANCH  15  17
ENDBRANCH   1  15
TORSDOF 3
ENDMDL
