MODEL 1
REMARK VINA RESULT:      -6.0      0.000      0.000
REMARK  Name = 
REMARK  7 active torsions:
REMARK  status: ('A' for Active; 'I' for Inactive)
REMARK    1  A    between atoms: C_1  and  C_2
REMARK    2  A    between atoms: C_5  and  C_6
REMARK    3  A    between atoms: C_6  and  C_17
REMARK    4  A    between atoms: C_7  and  C_8
REMARK    5  A    between atoms: C_7  and  C_10
REMARK    6  A    between atoms: C_13  and  O_14
REMARK    7  A    between atoms: C_20  and  O_21
REMARK                            x       y       z     vdW  Elec       q    Type
REMARK                         _______ _______ _______ _____ _____    ______ ____
ROOT
ATOM      1  C   UNL     1      -2.108  12.855  22.700  0.00  0.00    +0.000 C 
ATOM      2  C   UNL     1      -1.443  14.035  22.824  0.00  0.00    +0.000 C 
ENDROOT
BRANCH   1   7
ATOM      3  C   UNL     1       0.838   8.115  21.090  0.00  0.00    +0.000 C 
ATOM      4  C   UNL     1       0.078   9.342  21.505  0.00  0.00    +0.000 A 
ATOM      5  C   UNL     1      -0.254   9.557  22.849  0.00  0.00    +0.000 A 
ATOM      6  C   UNL     1      -0.962  10.699  23.223  0.00  0.00    +0.000 A 
ATOM      7  C   UNL     1      -1.358  11.644  22.264  0.00  0.00    +0.000 A 
ATOM      8  C   UNL     1      -1.033  11.428  20.923  0.00  0.00    +0.000 A 
ATOM      9  C   UNL     1      -0.318  10.285  20.545  0.00  0.00    +0.000 A 
ENDBRANCH   1   7
BRANCH   2  10
ATOM     10  C   UNL     1      -1.993  15.277  23.403  0.00  0.00    +0.000 A 
ATOM     11  C   UNL     1      -2.720  16.155  22.581  0.00  0.00    +0.000 A 
ATOM     12  C   UNL     1      -3.411  17.235  23.136  0.00  0.00    +0.000 A 
ATOM     13  C   UNL     1      -3.369  17.437  24.511  0.00  0.00    +0.000 A 
ATOM     14  C   UNL     1      -2.622  16.600  25.332  0.00  0.00    +0.000 A 
ATOM     15  C   UNL     1      -1.932  15.517  24.781  0.00  0.00    +0.000 A 
BRANCH  13  16
ATOM     16  O   UNL     1      -4.073  18.444  25.101  0.00  0.00    +0.000 OA
ATOM     17  H   UNL     1      -4.627  18.873  24.429  0.00  0.00    +0.000 HD
ENDBRANCH  13  16
ENDBRANCH   2  10
BRANCH   1  18
ATOM     18  C   UNL     1      -3.545  12.755  23.054  0.00  0.00    +0.000 A 
ATOM     19  C   UNL     1      -4.528  12.927  22.068  0.00  0.00    +0.000 A 
ATOM     20  C   UNL     1      -5.884  12.853  22.399  0.00  0.00    +0.000 A 
ATOM     21  C   UNL     1      -6.252  12.597  23.715  0.00  0.00    +0.000 A 
ATOM     22  C   UNL     1      -5.291  12.375  24.694  0.00  0.00    +0.000 A 
ATOM     23  C   UNL     1      -3.937  12.455  24.365  0.00  0.00    +0.000 A 
BRANCH  21  24
ATOM     24  O   UNL     1      -7.562  12.561  24.093  0.00  0.00    +0.000 OA
ATOM     25  H   UNL     1      -7.895  13.472  24.136  0.00  0.00    +0.000 HD
ENDBRANCH  21  24
ENDBRANCH   1  18
BRANCH   2  26
ATOM     26  C   UNL     1       0.009  14.151  22.388  0.00  0.00    +0.000 C 
ATOM     27  N   UNL     1       1.213  14.247  22.027  0.00  0.00    +0.000 NA
ENDBRANCH   2  26
TORSDOF 6
ENDMDL
MODEL 2
REMARK VINA RESULT:      -5.5     10.481     13.041
REMARK  Name = 
REMARK  7 active torsions:
REMARK  status: ('A' for Active; 'I' for Inactive)
REMARK    1  A    between atoms: C_1  and  C_2
REMARK    2  A    between atoms: C_5  and  C_6
REMARK    3  A    between atoms: C_6  and  C_17
REMARK    4  A    between atoms: C_7  and  C_8
REMARK    5  A    between atoms: C_7  and  C_10
REMARK    6  A    between atoms: C_13  and  O_14
REMARK    7  A    between atoms: C_20  and  O_21
REMARK                            x       y       z     vdW  Elec       q    Type
REMARK                         _______ _______ _______ _____ _____    ______ ____
ROOT
ATOM      1  C   UNL     1       8.897  14.066  21.329  0.00  0.00    +0.000 C 
ATOM      2  C   UNL     1       8.795  15.422  21.303  0.00  0.00    +0.000 C 
ENDROOT
BRANCH   1   7
ATOM      3  C   UNL     1       5.923  11.135  25.366  0.00  0.00    +0.000 C 
ATOM      4  C   UNL     1       6.693  11.894  24.324  0.00  0.00    +0.000 A 
ATOM      5  C   UNL     1       6.026  12.584  23.303  0.00  0.00    +0.000 A 
ATOM      6  C   UNL     1       6.752  13.284  22.339  0.00  0.00    +0.000 A 
ATOM      7  C   UNL     1       8.155  13.303  22.371  0.00  0.00    +0.000 A 
ATOM      8  C   UNL     1       8.821  12.610  23.385  0.00  0.00    +0.000 A 
ATOM      9  C   UNL     1       8.095  11.911  24.357  0.00  0.00    +0.000 A 
ENDBRANCH   1   7
BRANCH   2  10
ATOM     10  C   UNL     1       9.323  16.306  20.245  0.00  0.00    +0.000 A 
ATOM     11  C   UNL     1      10.678  16.672  20.268  0.00  0.00    +0.000 A 
ATOM     12  C   UNL     1      11.249  17.346  19.185  0.00  0.00    +0.000 A 
ATOM     13  C   UNL     1      10.459  17.656  18.083  0.00  0.00    +0.000 A 
ATOM     14  C   UNL     1       9.107  17.334  18.062  0.00  0.00    +0.000 A 
ATOM     15  C   UNL     1       8.534  16.657  19.143  0.00  0.00    +0.000 A 
BRANCH  13  16
ATOM     16  O   UNL     1      10.986  18.262  16.982  0.00  0.00    +0.000 OA
ATOM     17  H   UNL     1      11.539  17.621  16.507  0.00  0.00    +0.000 HD
ENDBRANCH  13  16
ENDBRANCH   2  10
BRANCH   1  18
ATOM     18  C   UNL     1       9.684  13.346  20.297  0.00  0.00    +0.000 A 
ATOM     19  C   UNL     1      11.022  13.002  20.542  0.00  0.00    +0.000 A 
ATOM     20  C   UNL     1      11.775  12.342  19.567  0.00  0.00    +0.000 A 
ATOM     21  C   UNL     1      11.182  12.019  18.352  0.00  0.00    +0.000 A 
ATOM     22  C   UNL     1       9.844  12.308  18.111  0.00  0.00    +0.000 A 
ATOM     23  C   UNL     1       9.094  12.973  19.083  0.00  0.00    +0.000 A 
BRANCH  21  24
ATOM     24  O   UNL     1      11.889  11.415  17.354  0.00  0.00    +0.000 OA
ATOM     25  H   UNL     1      12.803  11.292  17.656  0.00  0.00    +0.000 HD
ENDBRANCH  21  24
ENDBRANCH   1  18
BRANCH   2  26
ATOM     26  C   UNL     1       8.052  16.159  22.406  0.00  0.00    +0.000 C 
ATOM     27  N   UNL     1       7.436  16.771  23.319  0.00  0.00    +0.000 NA
ENDBRANCH   2  26
TORSDOF 6
ENDMDL
MODEL 3
REMARK VINA RESULT:      -5.4      4.602      7.699
REMARK  Name = 
REMARK  7 active torsions:
REMARK  status: ('A' for Active; 'I' for Inactive)
REMARK    1  A    between atoms: C_1  and  C_2
REMARK    2  A    between atoms: C_5  and  C_6
REMARK    3  A    between atoms: C_6  and  C_17
REMARK    4  A    between atoms: C_7  and  C_8
REMARK    5  A    between atoms: C_7  and  C_10
REMARK    6  A    between atoms: C_13  and  O_14
REMARK    7  A    between atoms: C_20  and  O_21
REMARK                            x       y       z     vdW  Elec       q    Type
REMARK                         _______ _______ _______ _____ _____    ______ ____
ROOT
ATOM      1  C   UNL     1      -2.326  12.605  20.130  0.00  0.00    +0.000 C 
ATOM      2  C   UNL     1      -3.405  12.107  19.467  0.00  0.00    +0.000 C 
ENDROOT
BRANCH   1   7
ATOM      3  C   UNL     1      -3.037  14.896  25.419  0.00  0.00    +0.000 C 
ATOM      4  C   UNL     1      -2.851  14.303  24.052  0.00  0.00    +0.000 A 
ATOM      5  C   UNL     1      -2.739  15.126  22.925  0.00  0.00    +0.000 A 
ATOM      6  C   UNL     1      -2.569  14.563  21.660  0.00  0.00    +0.000 A 
ATOM      7  C   UNL     1      -2.514  13.170  21.495  0.00  0.00    +0.000 A 
ATOM      8  C   UNL     1      -2.632  12.348  22.618  0.00  0.00    +0.000 A 
ATOM      9  C   UNL     1      -2.798  12.911  23.890  0.00  0.00    +0.000 A 
ENDBRANCH   1   7
BRANCH   2  10
ATOM     10  C   UNL     1      -3.364  11.364  18.191  0.00  0.00    +0.000 A 
ATOM     11  C   UNL     1      -4.225  11.742  17.147  0.00  0.00    +0.000 A 
ATOM     12  C   UNL     1      -4.079  11.188  15.873  0.00  0.00    +0.000 A 
ATOM     13  C   UNL     1      -3.074  10.253  15.648  0.00  0.00    +0.000 A 
ATOM     14  C   UNL     1      -2.240   9.840  16.680  0.00  0.00    +0.000 A 
ATOM     15  C   UNL     1      -2.381  10.395  17.955  0.00  0.00    +0.000 A 
BRANCH  13  16
ATOM     16  O   UNL     1      -2.860   9.729  14.408  0.00  0.00    +0.000 OA
ATOM     17  H   UNL     1      -2.452   8.854  14.505  0.00  0.00    +0.000 HD
ENDBRANCH  13  16
ENDBRANCH   2  10
BRANCH   1  18
ATOM     18  C   UNL     1      -0.970  12.531  19.533  0.00  0.00    +0.000 A 
ATOM     19  C   UNL     1      -0.517  13.550  18.682  0.00  0.00    +0.000 A 
ATOM     20  C   UNL     1       0.752  13.477  18.101  0.00  0.00    +0.000 A 
ATOM     21  C   UNL     1       1.569  12.387  18.383  0.00  0.00    +0.000 A 
ATOM     22  C   UNL     1       1.155  11.394  19.262  0.00  0.00    +0.000 A 
ATOM     23  C   UNL     1      -0.115  11.464  19.838  0.00  0.00    +0.000 A 
BRANCH  21  24
ATOM     24  O   UNL     1       2.797  12.250  17.805  0.00  0.00    +0.000 OA
ATOM     25  H   UNL     1       3.470  12.532  18.445  0.00  0.00    +0.000 HD
ENDBRANCH  21  24
ENDBRANCH   1  18
BRANCH   2  26
ATOM     26  C   UNL     1      -4.802  12.254  20.047  0.00  0.00    +0.000 C 
ATOM     27  N   UNL     1      -5.960  12.377  20.529  0.00  0.00    +0.000 NA
ENDBRANCH   2  26
TORSDOF 6
ENDMDL
MODEL 4
REMARK VINA RESULT:      -5.4      3.511      6.227
REMARK  Name = 
REMARK  7 active torsions:
REMARK  status: ('A' for Active; 'I' for Inactive)
REMARK    1  A    between atoms: C_1  and  C_2
REMARK    2  A    between atoms: C_5  and  C_6
REMARK    3  A    between atoms: C_6  and  C_17
REMARK    4  A    between atoms: C_7  and  C_8
REMARK    5  A    between atoms: C_7  and  C_10
REMARK    6  A    between atoms: C_13  and  O_14
REMARK    7  A    between atoms: C_20  and  O_21
REMARK                            x       y       z     vdW  Elec       q    Type
REMARK                         _______ _______ _______ _____ _____    ______ ____
ROOT
ATOM      1  C   UNL     1      -1.812  12.771  21.845  0.00  0.00    +0.000 C 
ATOM      2  C   UNL     1      -1.267  13.948  21.434  0.00  0.00    +0.000 C 
ENDROOT
BRANCH   1   7
ATOM      3  C   UNL     1      -7.201  12.803  24.011  0.00  0.00    +0.000 C 
ATOM      4  C   UNL     1      -5.807  12.797  23.452  0.00  0.00    +0.000 A 
ATOM      5  C   UNL     1      -5.591  12.850  22.069  0.00  0.00    +0.000 A 
ATOM      6  C   UNL     1      -4.292  12.842  21.562  0.00  0.00    +0.000 A 
ATOM      7  C   UNL     1      -3.185  12.773  22.422  0.00  0.00    +0.000 A 
ATOM      8  C   UNL     1      -3.400  12.713  23.801  0.00  0.00    +0.000 A 
ATOM      9  C   UNL     1      -4.703  12.727  24.314  0.00  0.00    +0.000 A 
ENDBRANCH   1   7
BRANCH   2  10
ATOM     10  C   UNL     1       0.001  14.097  20.692  0.00  0.00    +0.000 A 
ATOM     11  C   UNL     1       1.219  13.953  21.377  0.00  0.00    +0.000 A 
ATOM     12  C   UNL     1       2.425  13.899  20.673  0.00  0.00    +0.000 A 
ATOM     13  C   UNL     1       2.409  13.994  19.286  0.00  0.00    +0.000 A 
ATOM     14  C   UNL     1       1.215  14.175  18.597  0.00  0.00    +0.000 A 
ATOM     15  C   UNL     1       0.007  14.227  19.298  0.00  0.00    +0.000 A 
BRANCH  13  16
ATOM     16  O   UNL     1       3.555  13.889  18.555  0.00  0.00    +0.000 OA
ATOM     17  H   UNL     1       4.202  14.527  18.897  0.00  0.00    +0.000 HD
ENDBRANCH  13  16
ENDBRANCH   2  10
BRANCH   1  18
ATOM     18  C   UNL     1      -1.080  11.494  21.666  0.00  0.00    +0.000 A 
ATOM     19  C   UNL     1      -0.856  10.984  20.378  0.00  0.00    +0.000 A 
ATOM     20  C   UNL     1      -0.183   9.770  20.203  0.00  0.00    +0.000 A 
ATOM     21  C   UNL     1       0.271   9.076  21.318  0.00  0.00    +0.000 A 
ATOM     22  C   UNL     1       0.101   9.591  22.598  0.00  0.00    +0.000 A 
ATOM     23  C   UNL     1      -0.576  10.800  22.773  0.00  0.00    +0.000 A 
BRANCH  21  24
ATOM     24  O   UNL     1       0.892   7.868  21.200  0.00  0.00    +0.000 OA
ATOM     25  H   UNL     1       0.971   7.475  22.085  0.00  0.00    +0.000 HD
ENDBRANCH  21  24
ENDBRANCH   1  18
BRANCH   2  26
ATOM     26  C   UNL     1      -1.987  15.262  21.690  0.00  0.00    +0.000 C 
ATOM     27  N   UNL     1      -2.584  16.351  21.903  0.00  0.00    +0.000 NA
ENDBRANCH   2  26
TORSDOF 6
ENDMDL
MODEL 5
REMARK VINA RESULT:      -5.4      3.690      6.390
REMARK  Name = 
REMARK  7 active torsions:
REMARK  status: ('A' for Active; 'I' for Inactive)
REMARK    1  A    between atoms: C_1  and  C_2
REMARK    2  A    between atoms: C_5  and  C_6
REMARK    3  A    between atoms: C_6  and  C_17
REMARK    4  A    between atoms: C_7  and  C_8
REMARK    5  A    between atoms: C_7  and  C_10
REMARK    6  A    between atoms: C_13  and  O_14
REMARK    7  A    between atoms: C_20  and  O_21
REMARK                            x       y       z     vdW  Elec       q    Type
REMARK                         _______ _______ _______ _____ _____    ______ ____
ROOT
ATOM      1  C   UNL     1      -1.661  12.646  21.638  0.00  0.00    +0.000 C 
ATOM      2  C   UNL     1      -1.137  13.773  21.084  0.00  0.00    +0.000 C 
ENDROOT
BRANCH   1   7
ATOM      3  C   UNL     1      -6.930  12.840  24.075  0.00  0.00    +0.000 C 
ATOM      4  C   UNL     1      -5.568  12.787  23.444  0.00  0.00    +0.000 A 
ATOM      5  C   UNL     1      -4.413  12.765  24.236  0.00  0.00    +0.000 A 
ATOM      6  C   UNL     1      -3.153  12.719  23.638  0.00  0.00    +0.000 A 
ATOM      7  C   UNL     1      -3.022  12.701  22.241  0.00  0.00    +0.000 A 
ATOM      8  C   UNL     1      -4.173  12.730  21.450  0.00  0.00    +0.000 A 
ATOM      9  C   UNL     1      -5.439  12.771  22.047  0.00  0.00    +0.000 A 
ENDBRANCH   1   7
BRANCH   2  10
ATOM     10  C   UNL     1       0.113  13.847  20.302  0.00  0.00    +0.000 A 
ATOM     11  C   UNL     1       1.347  13.783  20.971  0.00  0.00    +0.000 A 
ATOM     12  C   UNL     1       2.537  13.660  20.251  0.00  0.00    +0.000 A 
ATOM     13  C   UNL     1       2.490  13.605  18.862  0.00  0.00    +0.000 A 
ATOM     14  C   UNL     1       1.281  13.707  18.185  0.00  0.00    +0.000 A 
ATOM     15  C   UNL     1       0.088  13.828  18.903  0.00  0.00    +0.000 A 
BRANCH  13  16
ATOM     16  O   UNL     1       3.621  13.429  18.121  0.00  0.00    +0.000 OA
ATOM     17  H   UNL     1       3.663  12.504  17.831  0.00  0.00    +0.000 HD
ENDBRANCH  13  16
ENDBRANCH   2  10
BRANCH   1  18
ATOM     18  C   UNL     1      -0.918  11.363  21.590  0.00  0.00    +0.000 A 
ATOM     19  C   UNL     1      -0.496  10.746  22.777  0.00  0.00    +0.000 A 
ATOM     20  C   UNL     1       0.221   9.547  22.737  0.00  0.00    +0.000 A 
ATOM     21  C   UNL     1       0.506   8.963  21.507  0.00  0.00    +0.000 A 
ATOM     22  C   UNL     1       0.052   9.535  20.324  0.00  0.00    +0.000 A 
ATOM     23  C   UNL     1      -0.659  10.736  20.364  0.00  0.00    +0.000 A 
BRANCH  21  24
ATOM     24  O   UNL     1       1.241   7.818  21.416  0.00  0.00    +0.000 OA
ATOM     25  H   UNL     1       1.105   7.301  22.226  0.00  0.00    +0.000 HD
ENDBRANCH  21  24
ENDBRANCH   1  18
BRANCH   2  26
ATOM     26  C   UNL     1      -1.867  15.101  21.205  0.00  0.00    +0.000 C 
ATOM     27  N   UNL     1      -2.472  16.202  21.306  0.00  0.00    +0.000 NA
ENDBRANCH   2  26
TORSDOF 6
ENDMDL
MODEL 6
REMARK VINA RESULT:      -5.4      3.379      6.022
REMARK  Name = 
REMARK  7 active torsions:
REMARK  status: ('A' for Active; 'I' for Inactive)
REMARK    1  A    between atoms: C_1  and  C_2
REMARK    2  A    between atoms: C_5  and  C_6
REMARK    3  A    between atoms: C_6  and  C_17
REMARK    4  A    between atoms: C_7  and  C_8
REMARK    5  A    between atoms: C_7  and  C_10
REMARK    6  A    between atoms: C_13  and  O_14
REMARK    7  A    between atoms: C_20  and  O_21
REMARK                            x       y       z     vdW  Elec       q    Type
REMARK                         _______ _______ _______ _____ _____    ______ ____
ROOT
ATOM      1  C   UNL     1      -1.901  12.808  21.904  0.00  0.00    +0.000 C 
ATOM      2  C   UNL     1      -1.325  13.986  21.539  0.00  0.00    +0.000 C 
ENDROOT
BRANCH   1   7
ATOM      3  C   UNL     1      -7.329  12.806  23.971  0.00  0.00    +0.000 C 
ATOM      4  C   UNL     1      -5.925  12.804  23.435  0.00  0.00    +0.000 A 
ATOM      5  C   UNL     1      -4.828  12.773  24.305  0.00  0.00    +0.000 A 
ATOM      6  C   UNL     1      -3.529  12.774  23.796  0.00  0.00    +0.000 A 
ATOM      7  C   UNL     1      -3.300  12.814  22.412  0.00  0.00    +0.000 A 
ATOM      8  C   UNL     1      -4.395  12.852  21.544  0.00  0.00    +0.000 A 
ATOM      9  C   UNL     1      -5.699  12.846  22.052  0.00  0.00    +0.000 A 
ENDBRANCH   1   7
BRANCH   2  10
ATOM     10  C   UNL     1      -0.021  14.134  20.864  0.00  0.00    +0.000 A 
ATOM     11  C   UNL     1       0.013  14.421  19.489  0.00  0.00    +0.000 A 
ATOM     12  C   UNL     1       1.217  14.754  18.864  0.00  0.00    +0.000 A 
ATOM     13  C   UNL     1       2.386  14.794  19.616  0.00  0.00    +0.000 A 
ATOM     14  C   UNL     1       2.375  14.475  20.968  0.00  0.00    +0.000 A 
ATOM     15  C   UNL     1       1.172  14.144  21.597  0.00  0.00    +0.000 A 
BRANCH  13  16
ATOM     16  O   UNL     1       3.573  15.168  19.059  0.00  0.00    +0.000 OA
ATOM     17  H   UNL     1       4.126  14.379  18.944  0.00  0.00    +0.000 HD
ENDBRANCH  13  16
ENDBRANCH   2  10
BRANCH   1  18
ATOM     18  C   UNL     1      -1.171  11.527  21.742  0.00  0.00    +0.000 A 
ATOM     19  C   UNL     1      -0.757  10.802  22.870  0.00  0.00    +0.000 A 
ATOM     20  C   UNL     1      -0.052   9.604  22.723  0.00  0.00    +0.000 A 
ATOM     21  C   UNL     1       0.228   9.129  21.447  0.00  0.00    +0.000 A 
ATOM     22  C   UNL     1      -0.218   9.809  20.319  0.00  0.00    +0.000 A 
ATOM     23  C   UNL     1      -0.916  11.009  20.466  0.00  0.00    +0.000 A 
BRANCH  21  24
ATOM     24  O   UNL     1       0.951   7.989  21.254  0.00  0.00    +0.000 OA
ATOM     25  H   UNL     1       0.847   7.424  22.037  0.00  0.00    +0.000 HD
ENDBRANCH  21  24
ENDBRANCH   1  18
BRANCH   2  26
ATOM     26  C   UNL     1      -2.046  15.302  21.779  0.00  0.00    +0.000 C 
ATOM     27  N   UNL     1      -2.645  16.394  21.977  0.00  0.00    +0.000 NA
ENDBRANCH   2  26
TORSDOF 6
ENDMDL
MODEL 7
REMARK VINA RESULT:      -5.4      0.544      1.475
REMARK  Name = 
REMARK  7 active torsions:
REMARK  status: ('A' for Active; 'I' for Inactive)
REMARK    1  A    between atoms: C_1  and  C_2
REMARK    2  A    between atoms: C_5  and  C_6
REMARK    3  A    between atoms: C_6  and  C_17
REMARK    4  A    between atoms: C_7  and  C_8
REMARK    5  A    between atoms: C_7  and  C_10
REMARK    6  A    between atoms: C_13  and  O_14
REMARK    7  A    between atoms: C_20  and  O_21
REMARK                            x       y       z     vdW  Elec       q    Type
REMARK                         _______ _______ _______ _____ _____    ______ ____
ROOT
ATOM      1  C   UNL     1      -2.191  13.011  22.379  0.00  0.00    +0.000 C 
ATOM      2  C   UNL     1      -1.540  14.188  22.579  0.00  0.00    +0.000 C 
ENDROOT
BRANCH   1   7
ATOM      3  C   UNL     1       0.893   8.259  21.096  0.00  0.00    +0.000 C 
ATOM      4  C   UNL     1       0.093   9.487  21.428  0.00  0.00    +0.000 A 
ATOM      5  C   UNL     1      -0.195  10.440  20.444  0.00  0.00    +0.000 A 
ATOM      6  C   UNL     1      -0.937  11.577  20.765  0.00  0.00    +0.000 A 
ATOM      7  C   UNL     1      -1.398  11.788  22.073  0.00  0.00    +0.000 A 
ATOM      8  C   UNL     1      -1.104  10.841  23.057  0.00  0.00    +0.000 A 
ATOM      9  C   UNL     1      -0.365   9.696  22.737  0.00  0.00    +0.000 A 
ENDBRANCH   1   7
BRANCH   2  10
ATOM     10  C   UNL     1      -2.156  15.444  23.053  0.00  0.00    +0.000 A 
ATOM     11  C   UNL     1      -2.928  16.209  22.164  0.00  0.00    +0.000 A 
ATOM     12  C   UNL     1      -3.676  17.294  22.628  0.00  0.00    +0.000 A 
ATOM     13  C   UNL     1      -3.645  17.613  23.982  0.00  0.00    +0.000 A 
ATOM     14  C   UNL     1      -2.855  16.889  24.867  0.00  0.00    +0.000 A 
ATOM     15  C   UNL     1      -2.108  15.802  24.406  0.00  0.00    +0.000 A 
BRANCH  13  16
ATOM     16  O   UNL     1      -4.402  18.627  24.487  0.00  0.00    +0.000 OA
ATOM     17  H   UNL     1      -4.071  19.469  24.136  0.00  0.00    +0.000 HD
ENDBRANCH  13  16
ENDBRANCH   2  10
BRANCH   1  18
ATOM     18  C   UNL     1      -3.665  12.927  22.522  0.00  0.00    +0.000 A 
ATOM     19  C   UNL     1      -4.243  12.782  23.792  0.00  0.00    +0.000 A 
ATOM     20  C   UNL     1      -5.631  12.683  23.933  0.00  0.00    +0.000 A 
ATOM     21  C   UNL     1      -6.436  12.739  22.801  0.00  0.00    +0.000 A 
ATOM     22  C   UNL     1      -5.883  12.933  21.541  0.00  0.00    +0.000 A 
ATOM     23  C   UNL     1      -4.497  13.026  21.400  0.00  0.00    +0.000 A 
BRANCH  21  24
ATOM     24  O   UNL     1      -7.790  12.602  22.884  0.00  0.00    +0.000 OA
ATOM     25  H   UNL     1      -8.148  13.369  23.361  0.00  0.00    +0.000 HD
ENDBRANCH  21  24
ENDBRANCH   1  18
BRANCH   2  26
ATOM     26  C   UNL     1      -0.040  14.287  22.355  0.00  0.00    +0.000 C 
ATOM     27  N   UNL     1       1.205  14.367  22.170  0.00  0.00    +0.000 NA
ENDBRANCH   2  26
TORSDOF 6
ENDMDL
MODEL 8
REMARK VINA RESULT:      -5.4      4.051      6.558
REMARK  Name = 
REMARK  7 active torsions:
REMARK  status: ('A' for Active; 'I' for Inactive)
REMARK    1  A    between atoms: C_1  and  C_2
REMARK    2  A    between atoms: C_5  and  C_6
REMARK    3  A    between atoms: C_6  and  C_17
REMARK    4  A    between atoms: C_7  and  C_8
REMARK    5  A    between atoms: C_7  and  C_10
REMARK    6  A    between atoms: C_13  and  O_14
REMARK    7  A    between atoms: C_20  and  O_21
REMARK                            x       y       z     vdW  Elec       q    Type
REMARK                         _______ _______ _______ _____ _____    ______ ____
ROOT
ATOM      1  C   UNL     1      -1.141  12.530  20.714  0.00  0.00    +0.000 C 
ATOM      2  C   UNL     1      -0.488  13.690  20.432  0.00  0.00    +0.000 C 
ENDROOT
BRANCH   1   7
ATOM      3  C   UNL     1      -6.944  12.572  20.957  0.00  0.00    +0.000 C 
ATOM      4  C   UNL     1      -5.444  12.563  20.895  0.00  0.00    +0.000 A 
ATOM      5  C   UNL     1      -4.779  12.353  19.680  0.00  0.00    +0.000 A 
ATOM      6  C   UNL     1      -3.385  12.345  19.635  0.00  0.00    +0.000 A 
ATOM      7  C   UNL     1      -2.628  12.540  20.800  0.00  0.00    +0.000 A 
ATOM      8  C   UNL     1      -3.290  12.743  22.014  0.00  0.00    +0.000 A 
ATOM      9  C   UNL     1      -4.689  12.757  22.061  0.00  0.00    +0.000 A 
ENDBRANCH   1   7
BRANCH   2  10
ATOM     10  C   UNL     1       0.954  13.818  20.145  0.00  0.00    +0.000 A 
ATOM     11  C   UNL     1       1.389  13.861  18.810  0.00  0.00    +0.000 A 
ATOM     12  C   UNL     1       2.716  14.171  18.506  0.00  0.00    +0.000 A 
ATOM     13  C   UNL     1       3.608  14.434  19.541  0.00  0.00    +0.000 A 
ATOM     14  C   UNL     1       3.202  14.357  20.868  0.00  0.00    +0.000 A 
ATOM     15  C   UNL     1       1.874  14.050  21.174  0.00  0.00    +0.000 A 
BRANCH  13  16
ATOM     16  O   UNL     1       4.898  14.795  19.289  0.00  0.00    +0.000 OA
ATOM     17  H   UNL     1       5.274  15.189  20.093  0.00  0.00    +0.000 HD
ENDBRANCH  13  16
ENDBRANCH   2  10
BRANCH   1  18
ATOM     18  C   UNL     1      -0.393  11.259  20.871  0.00  0.00    +0.000 A 
ATOM     19  C   UNL     1      -0.160  10.731  22.150  0.00  0.00    +0.000 A 
ATOM     20  C   UNL     1       0.562   9.544  22.307  0.00  0.00    +0.000 A 
ATOM     21  C   UNL     1       1.039   8.883  21.181  0.00  0.00    +0.000 A 
ATOM     22  C   UNL     1       0.775   9.366  19.904  0.00  0.00    +0.000 A 
ATOM     23  C   UNL     1       0.060  10.555  19.749  0.00  0.00    +0.000 A 
BRANCH  21  24
ATOM     24  O   UNL     1       1.786   7.747  21.286  0.00  0.00    +0.000 OA
ATOM     25  H   UNL     1       2.725   7.995  21.283  0.00  0.00    +0.000 HD
ENDBRANCH  21  24
ENDBRANCH   1  18
BRANCH   2  26
ATOM     26  C   UNL     1      -1.251  15.002  20.347  0.00  0.00    +0.000 C 
ATOM     27  N   UNL     1      -1.882  16.091  20.278  0.00  0.00    +0.000 NA
ENDBRANCH   2  26
TORSDOF 6
ENDMDL
MODEL 9
REMARK VINA RESULT:      -5.3      3.350      5.998
REMARK  Name = 
REMARK  7 active torsions:
REMARK  status: ('A' for Active; 'I' for Inactive)
REMARK    1  A    between atoms: C_1  and  C_2
REMARK    2  A    between atoms: C_5  and  C_6
REMARK    3  A    between atoms: C_6  and  C_17
REMARK    4  A    between atoms: C_7  and  C_8
REMARK    5  A    between atoms: C_7  and  C_10
REMARK    6  A    between atoms: C_13  and  O_14
REMARK    7  A    between atoms: C_20  and  O_21
REMARK                            x       y       z     vdW  Elec       q    Type
REMARK                         _______ _______ _______ _____ _____    ______ ____
ROOT
ATOM      1  C   UNL     1      -1.915  12.822  21.931  0.00  0.00    +0.000 C 
ATOM      2  C   UNL     1      -1.362  14.010  21.565  0.00  0.00    +0.000 C 
ENDROOT
BRANCH   1   7
ATOM      3  C   UNL     1      -7.372  12.781  23.920  0.00  0.00    +0.000 C 
ATOM      4  C   UNL     1      -5.961  12.794  23.407  0.00  0.00    +0.000 A 
ATOM      5  C   UNL     1      -5.700  12.817  22.031  0.00  0.00    +0.000 A 
ATOM      6  C   UNL     1      -4.385  12.827  21.566  0.00  0.00    +0.000 A 
ATOM      7  C   UNL     1      -3.306  12.806  22.463  0.00  0.00    +0.000 A 
ATOM      8  C   UNL     1      -3.565  12.776  23.836  0.00  0.00    +0.000 A 
ATOM      9  C   UNL     1      -4.884  12.771  24.305  0.00  0.00    +0.000 A 
ENDBRANCH   1   7
BRANCH   2  10
ATOM     10  C   UNL     1      -0.071  14.180  20.868  0.00  0.00    +0.000 A 
ATOM     11  C   UNL     1      -0.066  14.494  19.499  0.00  0.00    +0.000 A 
ATOM     12  C   UNL     1       1.124  14.847  18.858  0.00  0.00    +0.000 A 
ATOM     13  C   UNL     1       2.307  14.880  19.589  0.00  0.00    +0.000 A 
ATOM     14  C   UNL     1       2.324  14.533  20.935  0.00  0.00    +0.000 A 
ATOM     15  C   UNL     1       1.135  14.183  21.579  0.00  0.00    +0.000 A 
BRANCH  13  16
ATOM     16  O   UNL     1       3.482  15.272  19.018  0.00  0.00    +0.000 OA
ATOM     17  H   UNL     1       3.492  14.980  18.092  0.00  0.00    +0.000 HD
ENDBRANCH  13  16
ENDBRANCH   2  10
BRANCH   1  18
ATOM     18  C   UNL     1      -1.172  11.552  21.747  0.00  0.00    +0.000 A 
ATOM     19  C   UNL     1      -0.911  11.068  20.456  0.00  0.00    +0.000 A 
ATOM     20  C   UNL     1      -0.229   9.861  20.276  0.00  0.00    +0.000 A 
ATOM     21  C   UNL     1       0.200   9.147  21.389  0.00  0.00    +0.000 A 
ATOM     22  C   UNL     1      -0.007   9.637  22.674  0.00  0.00    +0.000 A 
ATOM     23  C   UNL     1      -0.694  10.839  22.854  0.00  0.00    +0.000 A 
BRANCH  21  24
ATOM     24  O   UNL     1       0.829   7.944  21.264  0.00  0.00    +0.000 OA
ATOM     25  H   UNL     1       1.693   8.002  21.706  0.00  0.00    +0.000 HD
ENDBRANCH  21  24
ENDBRANCH   1  18
BRANCH   2  26
ATOM     26  C   UNL     1      -2.095  15.315  21.827  0.00  0.00    +0.000 C 
ATOM     27  N   UNL     1      -2.703  16.398  22.044  0.00  0.00    +0.000 NA
ENDBRANCH   2  26
TORSDOF 6
ENDMDL
