MODEL 1
REMARK VINA RESULT:      -7.3      0.000      0.000
REMARK  Name = 
REMARK  3 active torsions:
REMARK  status: ('A' for Active; 'I' for Inactive)
REMARK    1  A    between atoms: C_1  and  C_2
REMARK    2  A    between atoms: N_11  and  C_12
REMARK    3  A    between atoms: C_12  and  C_13
REMARK                            x       y       z     vdW  Elec       q    Type
REMARK                         _______ _______ _______ _____ _____    ______ ____
ROOT
ATOM      1  C   UNL     1       2.893   7.656  18.093  0.00  0.00    +0.000 C 
ENDROOT
BRANCH   1  12
ATOM      2  C   UNL     1       2.996   2.544  16.824  0.00  0.00    +0.000 C 
ATOM      3  C   UNL     1       2.775   2.623  18.336  0.00  0.00    +0.000 C 
ATOM      4  C   UNL     1       1.352   2.166  18.701  0.00  0.00    +0.000 C 
ATOM      5  C   UNL     1       1.096   2.210  20.206  0.00  0.00    +0.000 C 
ATOM      6  C   UNL     1       1.430   3.568  20.812  0.00  0.00    +0.000 C 
ATOM      7  C   UNL     1       2.849   4.007  20.462  0.00  0.00    +0.000 C 
ATOM      8  C   UNL     1       3.102   4.001  18.938  0.00  0.00    +0.000 C 
ATOM      9  N   UNL     1       4.458   4.445  18.680  0.00  0.00    +0.000 N 
ATOM     10  C   UNL     1       4.518   5.801  18.439  0.00  0.00    +0.000 C 
ATOM     11  O   UNL     1       5.556   6.419  18.273  0.00  0.00    +0.000 OA
ATOM     12  N   UNL     1       3.249   6.280  18.370  0.00  0.00    +0.000 N 
ATOM     13  C   UNL     1       2.379   5.223  18.326  0.00  0.00    +0.000 C 
ATOM     14  O   UNL     1       1.220   5.256  17.941  0.00  0.00    +0.000 OA
ATOM     15  H   UNL     1       5.301   3.895  18.796  0.00  0.00    +0.000 HD
ENDBRANCH   1  12
BRANCH   1  16
ATOM     16  C   UNL     1       1.981   8.171  19.211  0.00  0.00    +0.000 C 
ATOM     17  O   UNL     1       1.868   7.518  20.256  0.00  0.00    +0.000 OA
ATOM     18  N   UNL     1       1.349   9.405  19.072  0.00  0.00    +0.000 N 
ATOM     19  C   UNL     1       0.536   9.910  20.190  0.00  0.00    +0.000 C 
ATOM     20  C   UNL     1       1.138  11.212  20.733  0.00  0.00    +0.000 C 
ATOM     21  N   UNL     1       1.259  12.189  19.647  0.00  0.00    +0.000 N 
ATOM     22  C   UNL     1       0.517  13.345  19.689  0.00  0.00    +0.000 A 
ATOM     23  N   UNL     1      -0.268  13.562  20.757  0.00  0.00    +0.000 NA
ATOM     24  C   UNL     1      -0.972  14.707  20.819  0.00  0.00    +0.000 A 
ATOM     25  C   UNL     1      -0.922  15.666  19.845  0.00  0.00    +0.000 A 
ATOM     26  C   UNL     1      -0.101  15.374  18.790  0.00  0.00    +0.000 A 
ATOM     27  N   UNL     1       0.616  14.232  18.687  0.00  0.00    +0.000 NA
ATOM     28  C   UNL     1       1.959  11.757  18.434  0.00  0.00    +0.000 C 
ATOM     29  C   UNL     1       1.472  10.363  17.964  0.00  0.00    +0.000 C 
ENDBRANCH   1  16
TORSDOF 2
ENDMDL
MODEL 2
REMARK VINA RESULT:      -7.1      8.649     10.769
REMARK  Name = 
REMARK  3 active torsions:
REMARK  status: ('A' for Active; 'I' for Inactive)
REMARK    1  A    between atoms: C_1  and  C_2
REMARK    2  A    between atoms: N_11  and  C_12
REMARK    3  A    between atoms: C_12  and  C_13
REMARK                            x       y       z     vdW  Elec       q    Type
REMARK                         _______ _______ _______ _____ _____    ______ ____
ROOT
ATOM      1  C   UNL     1       8.724  15.557  21.855  0.00  0.00    +0.000 C 
ENDROOT
BRANCH   1  12
ATOM      2  C   UNL     1       8.506  12.593  17.505  0.00  0.00    +0.000 C 
ATOM      3  C   UNL     1       9.984  12.744  17.867  0.00  0.00    +0.000 C 
ATOM      4  C   UNL     1      10.564  11.405  18.354  0.00  0.00    +0.000 C 
ATOM      5  C   UNL     1      12.047  11.508  18.705  0.00  0.00    +0.000 C 
ATOM      6  C   UNL     1      12.333  12.640  19.684  0.00  0.00    +0.000 C 
ATOM      7  C   UNL     1      11.773  13.970  19.187  0.00  0.00    +0.000 C 
ATOM      8  C   UNL     1      10.264  13.882  18.865  0.00  0.00    +0.000 C 
ATOM      9  N   UNL     1       9.798  15.180  18.418  0.00  0.00    +0.000 N 
ATOM     10  C   UNL     1       9.284  15.927  19.457  0.00  0.00    +0.000 C 
ATOM     11  O   UNL     1       8.902  17.080  19.344  0.00  0.00    +0.000 OA
ATOM     12  N   UNL     1       9.238  15.144  20.566  0.00  0.00    +0.000 N 
ATOM     13  C   UNL     1       9.489  13.847  20.202  0.00  0.00    +0.000 C 
ATOM     14  O   UNL     1       9.214  12.849  20.850  0.00  0.00    +0.000 OA
ATOM     15  H   UNL     1       9.943  15.586  17.502  0.00  0.00    +0.000 HD
ENDBRANCH   1  12
BRANCH   1  16
ATOM     16  C   UNL     1       7.324  14.963  22.048  0.00  0.00    +0.000 C 
ATOM     17  O   UNL     1       6.511  15.003  21.116  0.00  0.00    +0.000 OA
ATOM     18  N   UNL     1       7.007  14.318  23.242  0.00  0.00    +0.000 N 
ATOM     19  C   UNL     1       5.681  13.694  23.374  0.00  0.00    +0.000 C 
ATOM     20  C   UNL     1       5.828  12.179  23.559  0.00  0.00    +0.000 C 
ATOM     21  N   UNL     1       6.690  11.904  24.711  0.00  0.00    +0.000 N 
ATOM     22  C   UNL     1       6.167  11.274  25.815  0.00  0.00    +0.000 A 
ATOM     23  N   UNL     1       4.881  10.888  25.781  0.00  0.00    +0.000 NA
ATOM     24  C   UNL     1       4.373  10.241  26.845  0.00  0.00    +0.000 A 
ATOM     25  C   UNL     1       5.106   9.954  27.963  0.00  0.00    +0.000 A 
ATOM     26  C   UNL     1       6.407  10.377  27.923  0.00  0.00    +0.000 A 
ATOM     27  N   UNL     1       6.953  11.036  26.876  0.00  0.00    +0.000 NA
ATOM     28  C   UNL     1       8.000  12.562  24.739  0.00  0.00    +0.000 C 
ATOM     29  C   UNL     1       7.885  14.068  24.394  0.00  0.00    +0.000 C 
ENDBRANCH   1  16
TORSDOF 2
ENDMDL
MODEL 3
REMARK VINA RESULT:      -7.1      3.016      8.700
REMARK  Name = 
REMARK  3 active torsions:
REMARK  status: ('A' for Active; 'I' for Inactive)
REMARK    1  A    between atoms: C_1  and  C_2
REMARK    2  A    between atoms: N_11  and  C_12
REMARK    3  A    between atoms: C_12  and  C_13
REMARK                            x       y       z     vdW  Elec       q    Type
REMARK                         _______ _______ _______ _____ _____    ______ ____
ROOT
ATOM      1  C   UNL     1       1.271  10.895  19.427  0.00  0.00    +0.000 C 
ENDROOT
BRANCH   1  12
ATOM      2  C   UNL     1      -3.721  12.498  19.937  0.00  0.00    +0.000 C 
ATOM      3  C   UNL     1      -3.565  11.975  18.508  0.00  0.00    +0.000 C 
ATOM      4  C   UNL     1      -4.350  10.666  18.320  0.00  0.00    +0.000 C 
ATOM      5  C   UNL     1      -4.238  10.120  16.898  0.00  0.00    +0.000 C 
ATOM      6  C   UNL     1      -2.791   9.985  16.441  0.00  0.00    +0.000 C 
ATOM      7  C   UNL     1      -2.022  11.292  16.611  0.00  0.00    +0.000 C 
ATOM      8  C   UNL     1      -2.100  11.830  18.058  0.00  0.00    +0.000 C 
ATOM      9  N   UNL     1      -1.336  13.058  18.150  0.00  0.00    +0.000 N 
ATOM     10  C   UNL     1      -0.041  12.827  18.564  0.00  0.00    +0.000 C 
ATOM     11  O   UNL     1       0.815  13.693  18.643  0.00  0.00    +0.000 OA
ATOM     12  N   UNL     1       0.072  11.518  18.907  0.00  0.00    +0.000 N 
ATOM     13  C   UNL     1      -1.178  10.960  18.944  0.00  0.00    +0.000 C 
ATOM     14  O   UNL     1      -1.492   9.927  19.514  0.00  0.00    +0.000 OA
ATOM     15  H   UNL     1      -1.627  13.971  17.823  0.00  0.00    +0.000 HD
ENDBRANCH   1  12
BRANCH   1  16
ATOM     16  C   UNL     1       1.914  10.047  18.323  0.00  0.00    +0.000 C 
ATOM     17  O   UNL     1       2.515  10.607  17.397  0.00  0.00    +0.000 OA
ATOM     18  N   UNL     1       1.881   8.657  18.414  0.00  0.00    +0.000 N 
ATOM     19  C   UNL     1       2.568   7.869  17.379  0.00  0.00    +0.000 C 
ATOM     20  C   UNL     1       3.706   7.055  18.006  0.00  0.00    +0.000 C 
ATOM     21  N   UNL     1       3.177   6.216  19.085  0.00  0.00    +0.000 N 
ATOM     22  C   UNL     1       3.216   4.848  18.963  0.00  0.00    +0.000 A 
ATOM     23  N   UNL     1       3.784   4.321  17.867  0.00  0.00    +0.000 NA
ATOM     24  C   UNL     1       3.856   2.982  17.757  0.00  0.00    +0.000 A 
ATOM     25  C   UNL     1       3.378   2.129  18.714  0.00  0.00    +0.000 A 
ATOM     26  C   UNL     1       2.814   2.740  19.800  0.00  0.00    +0.000 A 
ATOM     27  N   UNL     1       2.717   4.081  19.944  0.00  0.00    +0.000 NA
ATOM     28  C   UNL     1       2.381   6.883  20.120  0.00  0.00    +0.000 C 
ATOM     29  C   UNL     1       1.328   7.836  19.500  0.00  0.00    +0.000 C 
ENDBRANCH   1  16
TORSDOF 2
ENDMDL
MODEL 4
REMARK VINA RESULT:      -7.1      2.869      8.873
REMARK  Name = 
REMARK  3 active torsions:
REMARK  status: ('A' for Active; 'I' for Inactive)
REMARK    1  A    between atoms: C_1  and  C_2
REMARK    2  A    between atoms: N_11  and  C_12
REMARK    3  A    between atoms: C_12  and  C_13
REMARK                            x       y       z     vdW  Elec       q    Type
REMARK                         _______ _______ _______ _____ _____    ______ ____
ROOT
ATOM      1  C   UNL     1      -0.799  10.494  20.086  0.00  0.00    +0.000 C 
ENDROOT
BRANCH   1  12
ATOM      2  C   UNL     1      -0.691  15.761  20.044  0.00  0.00    +0.000 C 
ATOM      3  C   UNL     1       0.757  15.285  19.919  0.00  0.00    +0.000 C 
ATOM      4  C   UNL     1       1.310  15.590  18.516  0.00  0.00    +0.000 C 
ATOM      5  C   UNL     1       2.764  15.149  18.356  0.00  0.00    +0.000 C 
ATOM      6  C   UNL     1       2.973  13.691  18.744  0.00  0.00    +0.000 C 
ATOM      7  C   UNL     1       2.441  13.398  20.144  0.00  0.00    +0.000 C 
ATOM      8  C   UNL     1       0.959  13.808  20.301  0.00  0.00    +0.000 C 
ATOM      9  N   UNL     1       0.517  13.485  21.644  0.00  0.00    +0.000 N 
ATOM     10  C   UNL     1      -0.073  12.241  21.705  0.00  0.00    +0.000 C 
ATOM     11  O   UNL     1      -0.454  11.717  22.739  0.00  0.00    +0.000 OA
ATOM     12  N   UNL     1      -0.193  11.760  20.441  0.00  0.00    +0.000 N 
ATOM     13  C   UNL     1       0.092  12.767  19.556  0.00  0.00    +0.000 C 
ATOM     14  O   UNL     1      -0.222  12.802  18.377  0.00  0.00    +0.000 OA
ATOM     15  H   UNL     1       0.723  14.010  22.485  0.00  0.00    +0.000 HD
ENDBRANCH   1  12
BRANCH   1  16
ATOM     16  C   UNL     1       0.005   9.358  20.729  0.00  0.00    +0.000 C 
ATOM     17  O   UNL     1      -0.448   8.779  21.725  0.00  0.00    +0.000 OA
ATOM     18  N   UNL     1       1.197   8.938  20.143  0.00  0.00    +0.000 N 
ATOM     19  C   UNL     1       1.911   7.798  20.739  0.00  0.00    +0.000 C 
ATOM     20  C   UNL     1       1.976   6.637  19.740  0.00  0.00    +0.000 C 
ATOM     21  N   UNL     1       2.597   7.093  18.493  0.00  0.00    +0.000 N 
ATOM     22  C   UNL     1       3.804   6.565  18.103  0.00  0.00    +0.000 A 
ATOM     23  N   UNL     1       4.358   5.606  18.864  0.00  0.00    +0.000 NA
ATOM     24  C   UNL     1       5.523   5.061  18.470  0.00  0.00    +0.000 A 
ATOM     25  C   UNL     1       6.172   5.436  17.326  0.00  0.00    +0.000 A 
ATOM     26  C   UNL     1       5.547   6.416  16.604  0.00  0.00    +0.000 A 
ATOM     27  N   UNL     1       4.381   6.993  16.970  0.00  0.00    +0.000 NA
ATOM     28  C   UNL     1       2.033   8.291  17.864  0.00  0.00    +0.000 C 
ATOM     29  C   UNL     1       1.810   9.423  18.898  0.00  0.00    +0.000 C 
ENDBRANCH   1  16
TORSDOF 2
ENDMDL
MODEL 5
REMARK VINA RESULT:      -7.0      2.893      9.083
REMARK  Name = 
REMARK  3 active torsions:
REMARK  status: ('A' for Active; 'I' for Inactive)
REMARK    1  A    between atoms: C_1  and  C_2
REMARK    2  A    between atoms: N_11  and  C_12
REMARK    3  A    between atoms: C_12  and  C_13
REMARK                            x       y       z     vdW  Elec       q    Type
REMARK                         _______ _______ _______ _____ _____    ______ ____
ROOT
ATOM      1  C   UNL     1      -0.722  10.745  19.237  0.00  0.00    +0.000 C 
ENDROOT
BRANCH   1  12
ATOM      2  C   UNL     1      -0.303  15.955  18.576  0.00  0.00    +0.000 C 
ATOM      3  C   UNL     1       0.721  15.558  19.641  0.00  0.00    +0.000 C 
ATOM      4  C   UNL     1       2.153  15.705  19.099  0.00  0.00    +0.000 C 
ATOM      5  C   UNL     1       3.209  15.338  20.140  0.00  0.00    +0.000 C 
ATOM      6  C   UNL     1       2.970  13.961  20.747  0.00  0.00    +0.000 C 
ATOM      7  C   UNL     1       1.554  13.827  21.300  0.00  0.00    +0.000 C 
ATOM      8  C   UNL     1       0.481  14.161  20.241  0.00  0.00    +0.000 C 
ATOM      9  N   UNL     1      -0.835  13.995  20.828  0.00  0.00    +0.000 N 
ATOM     10  C   UNL     1      -1.346  12.736  20.597  0.00  0.00    +0.000 C 
ATOM     11  O   UNL     1      -2.402  12.333  21.056  0.00  0.00    +0.000 OA
ATOM     12  N   UNL     1      -0.509  12.083  19.749  0.00  0.00    +0.000 N 
ATOM     13  C   UNL     1       0.400  12.977  19.249  0.00  0.00    +0.000 C 
ATOM     14  O   UNL     1       1.075  12.834  18.242  0.00  0.00    +0.000 OA
ATOM     15  H   UNL     1      -1.294  14.640  21.459  0.00  0.00    +0.000 HD
ENDBRANCH   1  12
BRANCH   1  16
ATOM     16  C   UNL     1      -0.007   9.742  20.149  0.00  0.00    +0.000 C 
ATOM     17  O   UNL     1      -0.540   9.396  21.211  0.00  0.00    +0.000 OA
ATOM     18  N   UNL     1       1.197   9.172  19.737  0.00  0.00    +0.000 N 
ATOM     19  C   UNL     1       1.825   8.158  20.598  0.00  0.00    +0.000 C 
ATOM     20  C   UNL     1       1.894   6.813  19.864  0.00  0.00    +0.000 C 
ATOM     21  N   UNL     1       2.603   6.981  18.593  0.00  0.00    +0.000 N 
ATOM     22  C   UNL     1       3.806   6.346  18.397  0.00  0.00    +0.000 A 
ATOM     23  N   UNL     1       4.272   5.548  19.372  0.00  0.00    +0.000 NA
ATOM     24  C   UNL     1       5.432   4.897  19.173  0.00  0.00    +0.000 A 
ATOM     25  C   UNL     1       6.160   5.006  18.020  0.00  0.00    +0.000 A 
ATOM     26  C   UNL     1       5.621   5.835  17.074  0.00  0.00    +0.000 A 
ATOM     27  N   UNL     1       4.463   6.512  17.239  0.00  0.00    +0.000 NA
ATOM     28  C   UNL     1       2.129   8.041  17.697  0.00  0.00    +0.000 C 
ATOM     29  C   UNL     1       1.899   9.369  18.462  0.00  0.00    +0.000 C 
ENDBRANCH   1  16
TORSDOF 2
ENDMDL
MODEL 6
REMARK VINA RESULT:      -7.0      2.986      9.186
REMARK  Name = 
REMARK  3 active torsions:
REMARK  status: ('A' for Active; 'I' for Inactive)
REMARK    1  A    between atoms: C_1  and  C_2
REMARK    2  A    between atoms: N_11  and  C_12
REMARK    3  A    between atoms: C_12  and  C_13
REMARK                            x       y       z     vdW  Elec       q    Type
REMARK                         _______ _______ _______ _____ _____    ______ ____
ROOT
ATOM      1  C   UNL     1      -0.487  10.904  18.660  0.00  0.00    +0.000 C 
ENDROOT
BRANCH   1  12
ATOM      2  C   UNL     1      -1.794  15.765  20.211  0.00  0.00    +0.000 C 
ATOM      3  C   UNL     1      -2.093  14.829  21.383  0.00  0.00    +0.000 C 
ATOM      4  C   UNL     1      -1.111  15.078  22.541  0.00  0.00    +0.000 C 
ATOM      5  C   UNL     1      -1.388  14.177  23.742  0.00  0.00    +0.000 C 
ATOM      6  C   UNL     1      -1.451  12.704  23.358  0.00  0.00    +0.000 C 
ATOM      7  C   UNL     1      -2.441  12.459  22.223  0.00  0.00    +0.000 C 
ATOM      8  C   UNL     1      -2.143  13.342  20.990  0.00  0.00    +0.000 C 
ATOM      9  N   UNL     1      -3.107  13.044  19.949  0.00  0.00    +0.000 N 
ATOM     10  C   UNL     1      -2.638  12.088  19.073  0.00  0.00    +0.000 C 
ATOM     11  O   UNL     1      -3.297  11.617  18.161  0.00  0.00    +0.000 OA
ATOM     12  N   UNL     1      -1.340  11.827  19.378  0.00  0.00    +0.000 N 
ATOM     13  C   UNL     1      -0.900  12.764  20.275  0.00  0.00    +0.000 C 
ATOM     14  O   UNL     1       0.265  13.041  20.516  0.00  0.00    +0.000 OA
ATOM     15  H   UNL     1      -4.067  13.364  19.912  0.00  0.00    +0.000 HD
ENDBRANCH   1  12
BRANCH   1  16
ATOM     16  C   UNL     1       0.073   9.872  19.645  0.00  0.00    +0.000 C 
ATOM     17  O   UNL     1      -0.598   9.544  20.631  0.00  0.00    +0.000 OA
ATOM     18  N   UNL     1       1.297   9.259  19.380  0.00  0.00    +0.000 N 
ATOM     19  C   UNL     1       1.777   8.220  20.304  0.00  0.00    +0.000 C 
ATOM     20  C   UNL     1       1.886   6.876  19.574  0.00  0.00    +0.000 C 
ATOM     21  N   UNL     1       2.752   7.020  18.400  0.00  0.00    +0.000 N 
ATOM     22  C   UNL     1       3.945   6.341  18.349  0.00  0.00    +0.000 A 
ATOM     23  N   UNL     1       4.259   5.524  19.368  0.00  0.00    +0.000 NA
ATOM     24  C   UNL     1       5.410   4.830  19.308  0.00  0.00    +0.000 A 
ATOM     25  C   UNL     1       6.277   4.915  18.254  0.00  0.00    +0.000 A 
ATOM     26  C   UNL     1       5.889   5.766  17.255  0.00  0.00    +0.000 A 
ATOM     27  N   UNL     1       4.745   6.486  17.281  0.00  0.00    +0.000 NA
ATOM     28  C   UNL     1       2.430   8.099  17.461  0.00  0.00    +0.000 C 
ATOM     29  C   UNL     1       2.157   9.433  18.202  0.00  0.00    +0.000 C 
ENDBRANCH   1  16
TORSDOF 2
ENDMDL
MODEL 7
REMARK VINA RESULT:      -7.0      2.162      3.915
REMARK  Name = 
REMARK  3 active torsions:
REMARK  status: ('A' for Active; 'I' for Inactive)
REMARK    1  A    between atoms: C_1  and  C_2
REMARK    2  A    between atoms: N_11  and  C_12
REMARK    3  A    between atoms: C_12  and  C_13
REMARK                            x       y       z     vdW  Elec       q    Type
REMARK                         _______ _______ _______ _____ _____    ______ ____
ROOT
ATOM      1  C   UNL     1       2.543   5.595  19.880  0.00  0.00    +0.000 C 
ENDROOT
BRANCH   1  12
ATOM      2  C   UNL     1       7.744   5.194  19.141  0.00  0.00    +0.000 C 
ATOM      3  C   UNL     1       7.075   4.770  17.833  0.00  0.00    +0.000 C 
ATOM      4  C   UNL     1       7.330   5.811  16.730  0.00  0.00    +0.000 C 
ATOM      5  C   UNL     1       6.695   5.414  15.398  0.00  0.00    +0.000 C 
ATOM      6  C   UNL     1       5.214   5.086  15.537  0.00  0.00    +0.000 C 
ATOM      7  C   UNL     1       4.968   4.039  16.619  0.00  0.00    +0.000 C 
ATOM      8  C   UNL     1       5.576   4.452  17.979  0.00  0.00    +0.000 C 
ATOM      9  N   UNL     1       5.289   3.423  18.959  0.00  0.00    +0.000 N 
ATOM     10  C   UNL     1       4.138   3.694  19.667  0.00  0.00    +0.000 C 
ATOM     11  O   UNL     1       3.650   2.938  20.491  0.00  0.00    +0.000 OA
ATOM     12  N   UNL     1       3.705   4.935  19.322  0.00  0.00    +0.000 N 
ATOM     13  C   UNL     1       4.681   5.555  18.589  0.00  0.00    +0.000 C 
ATOM     14  O   UNL     1       4.785   6.756  18.394  0.00  0.00    +0.000 OA
ATOM     15  H   UNL     1       5.762   2.532  19.049  0.00  0.00    +0.000 HD
ENDBRANCH   1  12
BRANCH   1  16
ATOM     16  C   UNL     1       2.186   6.801  19.004  0.00  0.00    +0.000 C 
ATOM     17  O   UNL     1       2.093   6.659  17.779  0.00  0.00    +0.000 OA
ATOM     18  N   UNL     1       1.897   8.026  19.603  0.00  0.00    +0.000 N 
ATOM     19  C   UNL     1       1.486   9.149  18.745  0.00  0.00    +0.000 C 
ATOM     20  C   UNL     1       0.057   9.581  19.091  0.00  0.00    +0.000 C 
ATOM     21  N   UNL     1      -0.028   9.910  20.517  0.00  0.00    +0.000 N 
ATOM     22  C   UNL     1      -0.301  11.201  20.900  0.00  0.00    +0.000 A 
ATOM     23  N   UNL     1      -0.528  12.117  19.945  0.00  0.00    +0.000 NA
ATOM     24  C   UNL     1      -0.828  13.375  20.314  0.00  0.00    +0.000 A 
ATOM     25  C   UNL     1      -0.918  13.766  21.622  0.00  0.00    +0.000 A 
ATOM     26  C   UNL     1      -0.675  12.778  22.537  0.00  0.00    +0.000 A 
ATOM     27  N   UNL     1      -0.363  11.505  22.206  0.00  0.00    +0.000 NA
ATOM     28  C   UNL     1       0.456   8.902  21.465  0.00  0.00    +0.000 C 
ATOM     29  C   UNL     1       1.834   8.337  21.038  0.00  0.00    +0.000 C 
ENDBRANCH   1  16
TORSDOF 2
ENDMDL
MODEL 8
REMARK VINA RESULT:      -7.0      7.525      9.371
REMARK  Name = 
REMARK  3 active torsions:
REMARK  status: ('A' for Active; 'I' for Inactive)
REMARK    1  A    between atoms: C_1  and  C_2
REMARK    2  A    between atoms: N_11  and  C_12
REMARK    3  A    between atoms: C_12  and  C_13
REMARK                            x       y       z     vdW  Elec       q    Type
REMARK                         _______ _______ _______ _____ _____    ______ ____
ROOT
ATOM      1  C   UNL     1       8.392  16.217  17.787  0.00  0.00    +0.000 C 
ENDROOT
BRANCH   1  12
ATOM      2  C   UNL     1      11.554  12.007  17.639  0.00  0.00    +0.000 C 
ATOM      3  C   UNL     1      11.021  12.113  19.069  0.00  0.00    +0.000 C 
ATOM      4  C   UNL     1      10.047  10.961  19.372  0.00  0.00    +0.000 C 
ATOM      5  C   UNL     1       9.506  11.017  20.799  0.00  0.00    +0.000 C 
ATOM      6  C   UNL     1       8.902  12.375  21.137  0.00  0.00    +0.000 C 
ATOM      7  C   UNL     1       9.879  13.512  20.853  0.00  0.00    +0.000 C 
ATOM      8  C   UNL     1      10.401  13.482  19.399  0.00  0.00    +0.000 C 
ATOM      9  N   UNL     1      11.306  14.597  19.197  0.00  0.00    +0.000 N 
ATOM     10  C   UNL     1      10.656  15.700  18.683  0.00  0.00    +0.000 C 
ATOM     11  O   UNL     1      11.189  16.782  18.500  0.00  0.00    +0.000 OA
ATOM     12  N   UNL     1       9.380  15.343  18.382  0.00  0.00    +0.000 N 
ATOM     13  C   UNL     1       9.269  13.981  18.472  0.00  0.00    +0.000 C 
ATOM     14  O   UNL     1       8.394  13.293  17.969  0.00  0.00    +0.000 OA
ATOM     15  H   UNL     1      12.266  14.655  19.512  0.00  0.00    +0.000 HD
ENDBRANCH   1  12
BRANCH   1  16
ATOM     16  C   UNL     1       7.461  16.741  18.886  0.00  0.00    +0.000 C 
ATOM     17  O   UNL     1       7.767  17.766  19.507  0.00  0.00    +0.000 OA
ATOM     18  N   UNL     1       6.244  16.103  19.122  0.00  0.00    +0.000 N 
ATOM     19  C   UNL     1       5.338  16.669  20.133  0.00  0.00    +0.000 C 
ATOM     20  C   UNL     1       4.028  17.118  19.473  0.00  0.00    +0.000 C 
ATOM     21  N   UNL     1       3.426  15.991  18.754  0.00  0.00    +0.000 N 
ATOM     22  C   UNL     1       2.218  15.487  19.171  0.00  0.00    +0.000 A 
ATOM     23  N   UNL     1       1.602  16.080  20.207  0.00  0.00    +0.000 NA
ATOM     24  C   UNL     1       0.403  15.612  20.599  0.00  0.00    +0.000 A 
ATOM     25  C   UNL     1      -0.222  14.560  19.989  0.00  0.00    +0.000 A 
ATOM     26  C   UNL     1       0.466  14.009  18.942  0.00  0.00    +0.000 A 
ATOM     27  N   UNL     1       1.675  14.445  18.523  0.00  0.00    +0.000 NA
ATOM     28  C   UNL     1       4.277  15.280  17.795  0.00  0.00    +0.000 C 
ATOM     29  C   UNL     1       5.668  14.961  18.398  0.00  0.00    +0.000 C 
ENDBRANCH   1  16
TORSDOF 2
ENDMDL
MODEL 9
REMARK VINA RESULT:      -7.0      2.304      9.283
REMARK  Name = 
REMARK  3 active torsions:
REMARK  status: ('A' for Active; 'I' for Inactive)
REMARK    1  A    between atoms: C_1  and  C_2
REMARK    2  A    between atoms: N_11  and  C_12
REMARK    3  A    between atoms: C_12  and  C_13
REMARK                            x       y       z     vdW  Elec       q    Type
REMARK                         _______ _______ _______ _____ _____    ______ ____
ROOT
ATOM      1  C   UNL     1       0.825  10.281  18.587  0.00  0.00    +0.000 C 
ENDROOT
BRANCH   1  12
ATOM      2  C   UNL     1      -0.182  15.448  18.792  0.00  0.00    +0.000 C 
ATOM      3  C   UNL     1      -0.766  14.830  20.063  0.00  0.00    +0.000 C 
ATOM      4  C   UNL     1       0.035  15.272  21.299  0.00  0.00    +0.000 C 
ATOM      5  C   UNL     1      -0.529  14.693  22.595  0.00  0.00    +0.000 C 
ATOM      6  C   UNL     1      -0.689  13.179  22.532  0.00  0.00    +0.000 C 
ATOM      7  C   UNL     1      -1.501  12.748  21.314  0.00  0.00    +0.000 C 
ATOM      8  C   UNL     1      -0.913  13.300  19.997  0.00  0.00    +0.000 C 
ATOM      9  N   UNL     1      -1.721  12.838  18.885  0.00  0.00    +0.000 N 
ATOM     10  C   UNL     1      -1.224  11.675  18.337  0.00  0.00    +0.000 C 
ATOM     11  O   UNL     1      -1.773  11.053  17.442  0.00  0.00    +0.000 OA
ATOM     12  N   UNL     1      -0.028  11.402  18.922  0.00  0.00    +0.000 N 
ATOM     13  C   UNL     1       0.359  12.488  19.662  0.00  0.00    +0.000 C 
ATOM     14  O   UNL     1       1.492  12.732  20.046  0.00  0.00    +0.000 OA
ATOM     15  H   UNL     1      -2.622  13.205  18.606  0.00  0.00    +0.000 HD
ENDBRANCH   1  12
BRANCH   1  16
ATOM     16  C   UNL     1       0.892   9.329  19.787  0.00  0.00    +0.000 C 
ATOM     17  O   UNL     1       0.145   9.516  20.756  0.00  0.00    +0.000 OA
ATOM     18  N   UNL     1       1.737   8.222  19.742  0.00  0.00    +0.000 N 
ATOM     19  C   UNL     1       1.728   7.284  20.876  0.00  0.00    +0.000 C 
ATOM     20  C   UNL     1       1.254   5.902  20.413  0.00  0.00    +0.000 C 
ATOM     21  N   UNL     1       2.097   5.434  19.309  0.00  0.00    +0.000 N 
ATOM     22  C   UNL     1       2.887   4.323  19.483  0.00  0.00    +0.000 A 
ATOM     23  N   UNL     1       2.823   3.671  20.655  0.00  0.00    +0.000 NA
ATOM     24  C   UNL     1       3.568   2.563  20.820  0.00  0.00    +0.000 A 
ATOM     25  C   UNL     1       4.388   2.065  19.845  0.00  0.00    +0.000 A 
ATOM     26  C   UNL     1       4.399   2.783  18.680  0.00  0.00    +0.000 A 
ATOM     27  N   UNL     1       3.671   3.904  18.479  0.00  0.00    +0.000 NA
ATOM     28  C   UNL     1       2.266   6.337  18.167  0.00  0.00    +0.000 C 
ATOM     29  C   UNL     1       2.589   7.781  18.629  0.00  0.00    +0.000 C 
ENDBRANCH   1  16
TORSDOF 2
ENDMDL
