MODEL 1
REMARK VINA RESULT:      -7.5      0.000      0.000
REMARK  Name = 
REMARK  9 active torsions:
REMARK  status: ('A' for Active; 'I' for Inactive)
REMARK    1  A    between atoms: C_1  and  N_2
REMARK    2  A    between atoms: C_6  and  S_7
REMARK    3  A    between atoms: S_7  and  C_8
REMARK    4  A    between atoms: C_11  and  C_12
REMARK    5  A    between atoms: C_12  and  C_13
REMARK    6  A    between atoms: C_12  and  C_14
REMARK    7  A    between atoms: C_12  and  C_15
REMARK    8  A    between atoms: C_17  and  C_18
REMARK    9  A    between atoms: C_23  and  O_24
REMARK                            x       y       z     vdW  Elec       q    Type
REMARK                         _______ _______ _______ _____ _____    ______ ____
ROOT
ATOM      1  C   UNL     1       2.967   4.845  17.620  0.00  0.00    +0.000 A 
ATOM      2  C   UNL     1       3.881   3.961  17.072  0.00  0.00    +0.000 A 
ATOM      3  N   UNL     1       5.186   4.228  16.842  0.00  0.00    +0.000 NA
ATOM      4  C   UNL     1       5.615   5.454  17.178  0.00  0.00    +0.000 A 
ATOM      5  N   UNL     1       4.793   6.424  17.609  0.00  0.00    +0.000 NA
ATOM      6  C   UNL     1       3.481   6.129  17.861  0.00  0.00    +0.000 A 
ENDROOT
BRANCH   6   7
ATOM      7  C   UNL     1       2.691   7.275  18.411  0.00  0.00    +0.000 A 
ATOM      8  C   UNL     1       2.316   8.367  17.598  0.00  0.00    +0.000 A 
ATOM      9  C   UNL     1       1.453   9.375  18.043  0.00  0.00    +0.000 A 
ATOM     10  C   UNL     1       1.010   9.375  19.357  0.00  0.00    +0.000 A 
ATOM     11  C   UNL     1       1.448   8.381  20.225  0.00  0.00    +0.000 A 
ATOM     12  C   UNL     1       2.265   7.342  19.755  0.00  0.00    +0.000 A 
BRANCH  12  13
ATOM     13  O   UNL     1       2.613   6.362  20.649  0.00  0.00    +0.000 OA
ATOM     14  H   UNL     1       2.414   5.493  20.270  0.00  0.00    +0.000 HD
ENDBRANCH  12  13
ENDBRANCH   6   7
BRANCH   4  15
ATOM     15  C   UNL     1       7.108   5.750  17.044  0.00  0.00    +0.000 C 
ATOM     16  C   UNL     1       7.883   4.910  18.069  0.00  0.00    +0.000 C 
ATOM     17  C   UNL     1       7.615   5.414  15.626  0.00  0.00    +0.000 C 
ATOM     18  C   UNL     1       7.401   7.246  17.294  0.00  0.00    +0.000 C 
ENDBRANCH   4  15
BRANCH   1  19
ATOM     19  S   UNL     1       1.276   4.332  17.883  0.00  0.00    +0.000 S 
BRANCH  19  25
ATOM     20  C   UNL     1       2.551   1.478  18.653  0.00  0.00    +0.000 C 
ATOM     21  N   UNL     1       1.951   2.351  19.634  0.00  0.00    +0.000 N 
ATOM     22  C   UNL     1       1.891   2.088  20.977  0.00  0.00    +0.000 A 
ATOM     23  C   UNL     1       1.261   3.178  21.527  0.00  0.00    +0.000 A 
ATOM     24  N   UNL     1       0.935   4.090  20.562  0.00  0.00    +0.000 NA
ATOM     25  C   UNL     1       1.348   3.569  19.430  0.00  0.00    +0.000 A 
ENDBRANCH  19  25
ENDBRANCH   1  19
TORSDOF 5
ENDMDL
MODEL 2
REMARK VINA RESULT:      -7.5      2.193      5.792
REMARK  Name = 
REMARK  9 active torsions:
REMARK  status: ('A' for Active; 'I' for Inactive)
REMARK    1  A    between atoms: C_1  and  N_2
REMARK    2  A    between atoms: C_6  and  S_7
REMARK    3  A    between atoms: S_7  and  C_8
REMARK    4  A    between atoms: C_11  and  C_12
REMARK    5  A    between atoms: C_12  and  C_13
REMARK    6  A    between atoms: C_12  and  C_14
REMARK    7  A    between atoms: C_12  and  C_15
REMARK    8  A    between atoms: C_17  and  C_18
REMARK    9  A    between atoms: C_23  and  O_24
REMARK                            x       y       z     vdW  Elec       q    Type
REMARK                         _______ _______ _______ _____ _____    ______ ____
ROOT
ATOM      1  C   UNL     1       3.626   6.289  17.805  0.00  0.00    +0.000 A 
ATOM      2  C   UNL     1       3.752   7.527  17.198  0.00  0.00    +0.000 A 
ATOM      3  N   UNL     1       2.973   8.603  17.447  0.00  0.00    +0.000 NA
ATOM      4  C   UNL     1       2.003   8.441  18.359  0.00  0.00    +0.000 A 
ATOM      5  N   UNL     1       1.719   7.257  18.924  0.00  0.00    +0.000 NA
ATOM      6  C   UNL     1       2.534   6.185  18.681  0.00  0.00    +0.000 A 
ENDROOT
BRANCH   6   7
ATOM      7  C   UNL     1       2.157   4.946  19.430  0.00  0.00    +0.000 A 
ATOM      8  C   UNL     1       2.506   4.771  20.787  0.00  0.00    +0.000 A 
ATOM      9  C   UNL     1       2.039   3.697  21.552  0.00  0.00    +0.000 A 
ATOM     10  C   UNL     1       1.280   2.701  20.954  0.00  0.00    +0.000 A 
ATOM     11  C   UNL     1       1.010   2.773  19.592  0.00  0.00    +0.000 A 
ATOM     12  C   UNL     1       1.432   3.884  18.845  0.00  0.00    +0.000 A 
BRANCH  12  13
ATOM     13  O   UNL     1       1.083   3.920  17.520  0.00  0.00    +0.000 OA
ATOM     14  H   UNL     1       1.842   3.656  16.979  0.00  0.00    +0.000 HD
ENDBRANCH  12  13
ENDBRANCH   6   7
BRANCH   4  15
ATOM     15  C   UNL     1       1.181   9.668  18.753  0.00  0.00    +0.000 C 
ATOM     16  C   UNL     1       0.876   9.609  20.256  0.00  0.00    +0.000 C 
ATOM     17  C   UNL     1       1.945  10.971  18.440  0.00  0.00    +0.000 C 
ATOM     18  C   UNL     1      -0.150   9.717  17.971  0.00  0.00    +0.000 C 
ENDBRANCH   4  15
BRANCH   1  19
ATOM     19  S   UNL     1       4.755   4.969  17.382  0.00  0.00    +0.000 S 
BRANCH  19  25
ATOM     20  C   UNL     1       7.263   6.823  16.586  0.00  0.00    +0.000 C 
ATOM     21  N   UNL     1       7.147   6.184  17.876  0.00  0.00    +0.000 N 
ATOM     22  C   UNL     1       8.052   6.321  18.897  0.00  0.00    +0.000 A 
ATOM     23  C   UNL     1       7.544   5.566  19.927  0.00  0.00    +0.000 A 
ATOM     24  N   UNL     1       6.366   4.974  19.563  0.00  0.00    +0.000 NA
ATOM     25  C   UNL     1       6.152   5.350  18.323  0.00  0.00    +0.000 A 
ENDBRANCH  19  25
ENDBRANCH   1  19
TORSDOF 5
ENDMDL
MODEL 3
REMARK VINA RESULT:      -7.3      1.709      5.169
REMARK  Name = 
REMARK  9 active torsions:
REMARK  status: ('A' for Active; 'I' for Inactive)
REMARK    1  A    between atoms: C_1  and  N_2
REMARK    2  A    between atoms: C_6  and  S_7
REMARK    3  A    between atoms: S_7  and  C_8
REMARK    4  A    between atoms: C_11  and  C_12
REMARK    5  A    between atoms: C_12  and  C_13
REMARK    6  A    between atoms: C_12  and  C_14
REMARK    7  A    between atoms: C_12  and  C_15
REMARK    8  A    between atoms: C_17  and  C_18
REMARK    9  A    between atoms: C_23  and  O_24
REMARK                            x       y       z     vdW  Elec       q    Type
REMARK                         _______ _______ _______ _____ _____    ______ ____
ROOT
ATOM      1  C   UNL     1       4.356   5.740  18.584  0.00  0.00    +0.000 A 
ATOM      2  C   UNL     1       4.717   4.424  18.815  0.00  0.00    +0.000 A 
ATOM      3  N   UNL     1       3.927   3.483  19.376  0.00  0.00    +0.000 NA
ATOM      4  C   UNL     1       2.693   3.872  19.732  0.00  0.00    +0.000 A 
ATOM      5  N   UNL     1       2.278   5.146  19.660  0.00  0.00    +0.000 NA
ATOM      6  C   UNL     1       3.081   6.081  19.066  0.00  0.00    +0.000 A 
ENDROOT
BRANCH   6   7
ATOM      7  C   UNL     1       2.472   7.445  18.977  0.00  0.00    +0.000 A 
ATOM      8  C   UNL     1       2.519   8.196  17.783  0.00  0.00    +0.000 A 
ATOM      9  C   UNL     1       1.831   9.404  17.626  0.00  0.00    +0.000 A 
ATOM     10  C   UNL     1       1.147   9.954  18.699  0.00  0.00    +0.000 A 
ATOM     11  C   UNL     1       1.171   9.306  19.929  0.00  0.00    +0.000 A 
ATOM     12  C   UNL     1       1.814   8.065  20.062  0.00  0.00    +0.000 A 
BRANCH  12  13
ATOM     13  O   UNL     1       1.750   7.452  21.286  0.00  0.00    +0.000 OA
ATOM     14  H   UNL     1       1.097   6.737  21.256  0.00  0.00    +0.000 HD
ENDBRANCH  12  13
ENDBRANCH   6   7
BRANCH   4  15
ATOM     15  C   UNL     1       1.732   2.806  20.259  0.00  0.00    +0.000 C 
ATOM     16  C   UNL     1       1.945   1.504  19.475  0.00  0.00    +0.000 C 
ATOM     17  C   UNL     1       1.969   2.540  21.760  0.00  0.00    +0.000 C 
ATOM     18  C   UNL     1       0.264   3.257  20.098  0.00  0.00    +0.000 C 
ENDBRANCH   4  15
BRANCH   1  19
ATOM     19  S   UNL     1       5.511   6.862  17.809  0.00  0.00    +0.000 S 
BRANCH  19  25
ATOM     20  C   UNL     1       7.796   4.606  17.570  0.00  0.00    +0.000 C 
ATOM     21  N   UNL     1       6.987   5.015  16.446  0.00  0.00    +0.000 N 
ATOM     22  C   UNL     1       7.073   4.477  15.188  0.00  0.00    +0.000 A 
ATOM     23  C   UNL     1       6.124   5.143  14.450  0.00  0.00    +0.000 A 
ATOM     24  N   UNL     1       5.470   6.067  15.217  0.00  0.00    +0.000 NA
ATOM     25  C   UNL     1       6.012   5.981  16.409  0.00  0.00    +0.000 A 
ENDBRANCH  19  25
ENDBRANCH   1  19
TORSDOF 5
ENDMDL
MODEL 4
REMARK VINA RESULT:      -7.2      2.020      5.686
REMARK  Name = 
REMARK  9 active torsions:
REMARK  status: ('A' for Active; 'I' for Inactive)
REMARK    1  A    between atoms: C_1  and  N_2
REMARK    2  A    between atoms: C_6  and  S_7
REMARK    3  A    between atoms: S_7  and  C_8
REMARK    4  A    between atoms: C_11  and  C_12
REMARK    5  A    between atoms: C_12  and  C_13
REMARK    6  A    between atoms: C_12  and  C_14
REMARK    7  A    between atoms: C_12  and  C_15
REMARK    8  A    between atoms: C_17  and  C_18
REMARK    9  A    between atoms: C_23  and  O_24
REMARK                            x       y       z     vdW  Elec       q    Type
REMARK                         _______ _______ _______ _____ _____    ______ ____
ROOT
ATOM      1  C   UNL     1       3.627   6.242  17.732  0.00  0.00    +0.000 A 
ATOM      2  C   UNL     1       3.868   7.512  17.235  0.00  0.00    +0.000 A 
ATOM      3  N   UNL     1       3.102   8.601  17.468  0.00  0.00    +0.000 NA
ATOM      4  C   UNL     1       2.025   8.420  18.246  0.00  0.00    +0.000 A 
ATOM      5  N   UNL     1       1.634   7.214  18.687  0.00  0.00    +0.000 NA
ATOM      6  C   UNL     1       2.435   6.127  18.464  0.00  0.00    +0.000 A 
ENDROOT
BRANCH   6   7
ATOM      7  C   UNL     1       1.927   4.857  19.073  0.00  0.00    +0.000 A 
ATOM      8  C   UNL     1       1.401   3.818  18.275  0.00  0.00    +0.000 A 
ATOM      9  C   UNL     1       1.060   2.566  18.798  0.00  0.00    +0.000 A 
ATOM     10  C   UNL     1       1.144   2.342  20.164  0.00  0.00    +0.000 A 
ATOM     11  C   UNL     1       1.547   3.376  21.002  0.00  0.00    +0.000 A 
ATOM     12  C   UNL     1       1.943   4.609  20.463  0.00  0.00    +0.000 A 
BRANCH  12  13
ATOM     13  O   UNL     1       2.385   5.566  21.340  0.00  0.00    +0.000 OA
ATOM     14  H   UNL     1       2.570   6.386  20.857  0.00  0.00    +0.000 HD
ENDBRANCH  12  13
ENDBRANCH   6   7
BRANCH   4  15
ATOM     15  C   UNL     1       1.204   9.651  18.628  0.00  0.00    +0.000 C 
ATOM     16  C   UNL     1       2.001  10.916  18.280  0.00  0.00    +0.000 C 
ATOM     17  C   UNL     1      -0.142   9.676  17.873  0.00  0.00    +0.000 C 
ATOM     18  C   UNL     1       0.884   9.658  20.139  0.00  0.00    +0.000 C 
ENDBRANCH   4  15
BRANCH   1  19
ATOM     19  S   UNL     1       4.751   4.906  17.352  0.00  0.00    +0.000 S 
BRANCH  19  25
ATOM     20  C   UNL     1       7.286   6.714  16.530  0.00  0.00    +0.000 C 
ATOM     21  N   UNL     1       7.150   6.113  17.837  0.00  0.00    +0.000 N 
ATOM     22  C   UNL     1       8.045   6.271  18.863  0.00  0.00    +0.000 A 
ATOM     23  C   UNL     1       7.519   5.550  19.908  0.00  0.00    +0.000 A 
ATOM     24  N   UNL     1       6.340   4.958  19.548  0.00  0.00    +0.000 NA
ATOM     25  C   UNL     1       6.142   5.301  18.296  0.00  0.00    +0.000 A 
ENDBRANCH  19  25
ENDBRANCH   1  19
TORSDOF 5
ENDMDL
MODEL 5
REMARK VINA RESULT:      -7.0      2.254      6.145
REMARK  Name = 
REMARK  9 active torsions:
REMARK  status: ('A' for Active; 'I' for Inactive)
REMARK    1  A    between atoms: C_1  and  N_2
REMARK    2  A    between atoms: C_6  and  S_7
REMARK    3  A    between atoms: S_7  and  C_8
REMARK    4  A    between atoms: C_11  and  C_12
REMARK    5  A    between atoms: C_12  and  C_13
REMARK    6  A    between atoms: C_12  and  C_14
REMARK    7  A    between atoms: C_12  and  C_15
REMARK    8  A    between atoms: C_17  and  C_18
REMARK    9  A    between atoms: C_23  and  O_24
REMARK                            x       y       z     vdW  Elec       q    Type
REMARK                         _______ _______ _______ _____ _____    ______ ____
ROOT
ATOM      1  C   UNL     1       3.214   6.876  17.915  0.00  0.00    +0.000 A 
ATOM      2  C   UNL     1       3.175   8.196  17.499  0.00  0.00    +0.000 A 
ATOM      3  N   UNL     1       2.367   9.151  18.008  0.00  0.00    +0.000 NA
ATOM      4  C   UNL     1       1.541   8.774  18.996  0.00  0.00    +0.000 A 
ATOM      5  N   UNL     1       1.415   7.500  19.398  0.00  0.00    +0.000 NA
ATOM      6  C   UNL     1       2.259   6.550  18.891  0.00  0.00    +0.000 A 
ENDROOT
BRANCH   6   7
ATOM      7  C   UNL     1       2.069   5.185  19.476  0.00  0.00    +0.000 A 
ATOM      8  C   UNL     1       2.452   4.895  20.803  0.00  0.00    +0.000 A 
ATOM      9  C   UNL     1       2.150   3.678  21.424  0.00  0.00    +0.000 A 
ATOM     10  C   UNL     1       1.536   2.666  20.701  0.00  0.00    +0.000 A 
ATOM     11  C   UNL     1       1.246   2.868  19.356  0.00  0.00    +0.000 A 
ATOM     12  C   UNL     1       1.498   4.113  18.758  0.00  0.00    +0.000 A 
BRANCH  12  13
ATOM     13  O   UNL     1       1.135   4.264  17.445  0.00  0.00    +0.000 OA
ATOM     14  H   UNL     1       0.330   3.753  17.271  0.00  0.00    +0.000 HD
ENDBRANCH  12  13
ENDBRANCH   6   7
BRANCH   4  15
ATOM     15  C   UNL     1       0.699   9.854  19.676  0.00  0.00    +0.000 C 
ATOM     16  C   UNL     1       0.400   9.425  21.119  0.00  0.00    +0.000 C 
ATOM     17  C   UNL     1       1.441  11.206  19.692  0.00  0.00    +0.000 C 
ATOM     18  C   UNL     1      -0.635  10.069  18.928  0.00  0.00    +0.000 C 
ENDBRANCH   4  15
BRANCH   1  19
ATOM     19  S   UNL     1       4.361   5.734  17.155  0.00  0.00    +0.000 S 
BRANCH  19  25
ATOM     20  C   UNL     1       6.416   4.989  19.518  0.00  0.00    +0.000 C 
ATOM     21  N   UNL     1       6.696   6.013  18.538  0.00  0.00    +0.000 N 
ATOM     22  C   UNL     1       7.856   6.741  18.483  0.00  0.00    +0.000 A 
ATOM     23  C   UNL     1       7.701   7.576  17.402  0.00  0.00    +0.000 A 
ATOM     24  N   UNL     1       6.487   7.380  16.805  0.00  0.00    +0.000 NA
ATOM     25  C   UNL     1       5.894   6.445  17.510  0.00  0.00    +0.000 A 
ENDBRANCH  19  25
ENDBRANCH   1  19
TORSDOF 5
ENDMDL
MODEL 6
REMARK VINA RESULT:      -7.0      1.052      1.645
REMARK  Name = 
REMARK  9 active torsions:
REMARK  status: ('A' for Active; 'I' for Inactive)
REMARK    1  A    between atoms: C_1  and  N_2
REMARK    2  A    between atoms: C_6  and  S_7
REMARK    3  A    between atoms: S_7  and  C_8
REMARK    4  A    between atoms: C_11  and  C_12
REMARK    5  A    between atoms: C_12  and  C_13
REMARK    6  A    between atoms: C_12  and  C_14
REMARK    7  A    between atoms: C_12  and  C_15
REMARK    8  A    between atoms: C_17  and  C_18
REMARK    9  A    between atoms: C_23  and  O_24
REMARK                            x       y       z     vdW  Elec       q    Type
REMARK                         _______ _______ _______ _____ _____    ______ ____
ROOT
ATOM      1  C   UNL     1       3.005   4.999  17.767  0.00  0.00    +0.000 A 
ATOM      2  C   UNL     1       4.003   4.303  17.107  0.00  0.00    +0.000 A 
ATOM      3  N   UNL     1       5.279   4.723  16.955  0.00  0.00    +0.000 NA
ATOM      4  C   UNL     1       5.586   5.913  17.492  0.00  0.00    +0.000 A 
ATOM      5  N   UNL     1       4.672   6.721  18.052  0.00  0.00    +0.000 NA
ATOM      6  C   UNL     1       3.392   6.270  18.223  0.00  0.00    +0.000 A 
ENDROOT
BRANCH   6   7
ATOM      7  C   UNL     1       2.491   7.234  18.929  0.00  0.00    +0.000 A 
ATOM      8  C   UNL     1       2.032   6.986  20.241  0.00  0.00    +0.000 A 
ATOM      9  C   UNL     1       1.316   7.934  20.980  0.00  0.00    +0.000 A 
ATOM     10  C   UNL     1       0.949   9.135  20.391  0.00  0.00    +0.000 A 
ATOM     11  C   UNL     1       1.280   9.373  19.062  0.00  0.00    +0.000 A 
ATOM     12  C   UNL     1       2.050   8.442  18.347  0.00  0.00    +0.000 A 
BRANCH  12  13
ATOM     13  O   UNL     1       2.391   8.765  17.060  0.00  0.00    +0.000 OA
ATOM     14  H   UNL     1       3.093   8.172  16.753  0.00  0.00    +0.000 HD
ENDBRANCH  12  13
ENDBRANCH   6   7
BRANCH   4  15
ATOM     15  C   UNL     1       7.046   6.364  17.443  0.00  0.00    +0.000 C 
ATOM     16  C   UNL     1       7.724   5.742  16.215  0.00  0.00    +0.000 C 
ATOM     17  C   UNL     1       7.148   7.901  17.354  0.00  0.00    +0.000 C 
ATOM     18  C   UNL     1       7.804   5.925  18.714  0.00  0.00    +0.000 C 
ENDBRANCH   4  15
BRANCH   1  19
ATOM     19  S   UNL     1       1.367   4.296  17.905  0.00  0.00    +0.000 S 
BRANCH  19  25
ATOM     20  C   UNL     1       2.914   1.583  18.684  0.00  0.00    +0.000 C 
ATOM     21  N   UNL     1       2.154   2.347  19.645  0.00  0.00    +0.000 N 
ATOM     22  C   UNL     1       2.037   2.032  20.974  0.00  0.00    +0.000 A 
ATOM     23  C   UNL     1       1.249   3.024  21.507  0.00  0.00    +0.000 A 
ATOM     24  N   UNL     1       0.883   3.925  20.547  0.00  0.00    +0.000 NA
ATOM     25  C   UNL     1       1.427   3.493  19.433  0.00  0.00    +0.000 A 
ENDBRANCH  19  25
ENDBRANCH   1  19
TORSDOF 5
ENDMDL
MODEL 7
REMARK VINA RESULT:      -7.0      2.037      5.906
REMARK  Name = 
REMARK  9 active torsions:
REMARK  status: ('A' for Active; 'I' for Inactive)
REMARK    1  A    between atoms: C_1  and  N_2
REMARK    2  A    between atoms: C_6  and  S_7
REMARK    3  A    between atoms: S_7  and  C_8
REMARK    4  A    between atoms: C_11  and  C_12
REMARK    5  A    between atoms: C_12  and  C_13
REMARK    6  A    between atoms: C_12  and  C_14
REMARK    7  A    between atoms: C_12  and  C_15
REMARK    8  A    between atoms: C_17  and  C_18
REMARK    9  A    between atoms: C_23  and  O_24
REMARK                            x       y       z     vdW  Elec       q    Type
REMARK                         _______ _______ _______ _____ _____    ______ ____
ROOT
ATOM      1  C   UNL     1       3.958   5.843  18.150  0.00  0.00    +0.000 A 
ATOM      2  C   UNL     1       4.183   7.024  17.463  0.00  0.00    +0.000 A 
ATOM      3  N   UNL     1       3.387   8.115  17.504  0.00  0.00    +0.000 NA
ATOM      4  C   UNL     1       2.295   8.031  18.278  0.00  0.00    +0.000 A 
ATOM      5  N   UNL     1       1.920   6.900  18.895  0.00  0.00    +0.000 NA
ATOM      6  C   UNL     1       2.750   5.812  18.865  0.00  0.00    +0.000 A 
ENDROOT
BRANCH   6   7
ATOM      7  C   UNL     1       2.256   4.641  19.655  0.00  0.00    +0.000 A 
ATOM      8  C   UNL     1       2.581   4.484  21.019  0.00  0.00    +0.000 A 
ATOM      9  C   UNL     1       2.013   3.487  21.819  0.00  0.00    +0.000 A 
ATOM     10  C   UNL     1       1.168   2.545  21.252  0.00  0.00    +0.000 A 
ATOM     11  C   UNL     1       0.911   2.592  19.886  0.00  0.00    +0.000 A 
ATOM     12  C   UNL     1       1.438   3.631  19.103  0.00  0.00    +0.000 A 
BRANCH  12  13
ATOM     13  O   UNL     1       1.099   3.652  17.776  0.00  0.00    +0.000 OA
ATOM     14  H   UNL     1       0.416   4.323  17.627  0.00  0.00    +0.000 HD
ENDBRANCH  12  13
ENDBRANCH   6   7
BRANCH   4  15
ATOM     15  C   UNL     1       1.437   9.286  18.443  0.00  0.00    +0.000 C 
ATOM     16  C   UNL     1       1.007   9.413  19.911  0.00  0.00    +0.000 C 
ATOM     17  C   UNL     1       2.220  10.550  18.031  0.00  0.00    +0.000 C 
ATOM     18  C   UNL     1       0.176   9.215  17.553  0.00  0.00    +0.000 C 
ENDBRANCH   4  15
BRANCH   1  19
ATOM     19  S   UNL     1       5.121   4.493  18.009  0.00  0.00    +0.000 S 
BRANCH  19  25
ATOM     20  C   UNL     1       7.579   6.278  16.943  0.00  0.00    +0.000 C 
ATOM     21  N   UNL     1       6.791   5.440  16.070  0.00  0.00    +0.000 N 
ATOM     22  C   UNL     1       7.017   5.285  14.727  0.00  0.00    +0.000 A 
ATOM     23  C   UNL     1       6.054   4.400  14.304  0.00  0.00    +0.000 A 
ATOM     24  N   UNL     1       5.252   4.018  15.343  0.00  0.00    +0.000 NA
ATOM     25  C   UNL     1       5.705   4.663  16.393  0.00  0.00    +0.000 A 
ENDBRANCH  19  25
ENDBRANCH   1  19
TORSDOF 5
ENDMDL
MODEL 8
REMARK VINA RESULT:      -7.0      1.965      5.570
REMARK  Name = 
REMARK  9 active torsions:
REMARK  status: ('A' for Active; 'I' for Inactive)
REMARK    1  A    between atoms: C_1  and  N_2
REMARK    2  A    between atoms: C_6  and  S_7
REMARK    3  A    between atoms: S_7  and  C_8
REMARK    4  A    between atoms: C_11  and  C_12
REMARK    5  A    between atoms: C_12  and  C_13
REMARK    6  A    between atoms: C_12  and  C_14
REMARK    7  A    between atoms: C_12  and  C_15
REMARK    8  A    between atoms: C_17  and  C_18
REMARK    9  A    between atoms: C_23  and  O_24
REMARK                            x       y       z     vdW  Elec       q    Type
REMARK                         _______ _______ _______ _____ _____    ______ ____
ROOT
ATOM      1  C   UNL     1       3.431   6.180  17.566  0.00  0.00    +0.000 A 
ATOM      2  C   UNL     1       3.658   7.440  17.040  0.00  0.00    +0.000 A 
ATOM      3  N   UNL     1       2.957   8.553  17.349  0.00  0.00    +0.000 NA
ATOM      4  C   UNL     1       1.964   8.408  18.238  0.00  0.00    +0.000 A 
ATOM      5  N   UNL     1       1.584   7.216  18.723  0.00  0.00    +0.000 NA
ATOM      6  C   UNL     1       2.321   6.103  18.421  0.00  0.00    +0.000 A 
ENDROOT
BRANCH   6   7
ATOM      7  C   UNL     1       1.840   4.851  19.085  0.00  0.00    +0.000 A 
ATOM      8  C   UNL     1       1.307   3.779  18.337  0.00  0.00    +0.000 A 
ATOM      9  C   UNL     1       0.991   2.544  18.911  0.00  0.00    +0.000 A 
ATOM     10  C   UNL     1       1.107   2.369  20.282  0.00  0.00    +0.000 A 
ATOM     11  C   UNL     1       1.518   3.436  21.074  0.00  0.00    +0.000 A 
ATOM     12  C   UNL     1       1.890   4.653  20.482  0.00  0.00    +0.000 A 
BRANCH  12  13
ATOM     13  O   UNL     1       2.341   5.644  21.314  0.00  0.00    +0.000 OA
ATOM     14  H   UNL     1       3.237   5.903  21.052  0.00  0.00    +0.000 HD
ENDBRANCH  12  13
ENDBRANCH   6   7
BRANCH   4  15
ATOM     15  C   UNL     1       1.228   9.666  18.700  0.00  0.00    +0.000 C 
ATOM     16  C   UNL     1      -0.124   9.753  17.979  0.00  0.00    +0.000 C 
ATOM     17  C   UNL     1       0.990   9.640  20.224  0.00  0.00    +0.000 C 
ATOM     18  C   UNL     1       2.050  10.935  18.384  0.00  0.00    +0.000 C 
ENDBRANCH   4  15
BRANCH   1  19
ATOM     19  S   UNL     1       4.465   4.807  17.073  0.00  0.00    +0.000 S 
BRANCH  19  25
ATOM     20  C   UNL     1       7.549   4.635  16.165  0.00  0.00    +0.000 C 
ATOM     21  N   UNL     1       7.153   4.965  17.514  0.00  0.00    +0.000 N 
ATOM     22  C   UNL     1       8.023   5.271  18.528  0.00  0.00    +0.000 A 
ATOM     23  C   UNL     1       7.225   5.531  19.616  0.00  0.00    +0.000 A 
ATOM     24  N   UNL     1       5.903   5.389  19.297  0.00  0.00    +0.000 NA
ATOM     25  C   UNL     1       5.883   5.037  18.032  0.00  0.00    +0.000 A 
ENDBRANCH  19  25
ENDBRANCH   1  19
TORSDOF 5
ENDMDL
MODEL 9
REMARK VINA RESULT:      -6.8      1.873      5.815
REMARK  Name = 
REMARK  9 active torsions:
REMARK  status: ('A' for Active; 'I' for Inactive)
REMARK    1  A    between atoms: C_1  and  N_2
REMARK    2  A    between atoms: C_6  and  S_7
REMARK    3  A    between atoms: S_7  and  C_8
REMARK    4  A    between atoms: C_11  and  C_12
REMARK    5  A    between atoms: C_12  and  C_13
REMARK    6  A    between atoms: C_12  and  C_14
REMARK    7  A    between atoms: C_12  and  C_15
REMARK    8  A    between atoms: C_17  and  C_18
REMARK    9  A    between atoms: C_23  and  O_24
REMARK                            x       y       z     vdW  Elec       q    Type
REMARK                         _______ _______ _______ _____ _____    ______ ____
ROOT
ATOM      1  C   UNL     1       3.873   5.859  18.054  0.00  0.00    +0.000 A 
ATOM      2  C   UNL     1       4.224   7.094  17.536  0.00  0.00    +0.000 A 
ATOM      3  N   UNL     1       3.461   8.208  17.585  0.00  0.00    +0.000 NA
ATOM      4  C   UNL     1       2.268   8.090  18.187  0.00  0.00    +0.000 A 
ATOM      5  N   UNL     1       1.779   6.918  18.621  0.00  0.00    +0.000 NA
ATOM      6  C   UNL     1       2.576   5.806  18.589  0.00  0.00    +0.000 A 
ENDROOT
BRANCH   6   7
ATOM      7  C   UNL     1       1.943   4.582  19.172  0.00  0.00    +0.000 A 
ATOM      8  C   UNL     1       1.353   3.596  18.352  0.00  0.00    +0.000 A 
ATOM      9  C   UNL     1       0.891   2.376  18.856  0.00  0.00    +0.000 A 
ATOM     10  C   UNL     1       0.914   2.139  20.222  0.00  0.00    +0.000 A 
ATOM     11  C   UNL     1       1.379   3.130  21.079  0.00  0.00    +0.000 A 
ATOM     12  C   UNL     1       1.897   4.327  20.561  0.00  0.00    +0.000 A 
BRANCH  12  13
ATOM     13  O   UNL     1       2.392   5.238  21.457  0.00  0.00    +0.000 OA
ATOM     14  H   UNL     1       3.317   5.027  21.654  0.00  0.00    +0.000 HD
ENDBRANCH  12  13
ENDBRANCH   6   7
BRANCH   4  15
ATOM     15  C   UNL     1       1.430   9.356  18.365  0.00  0.00    +0.000 C 
ATOM     16  C   UNL     1       1.033   9.494  19.842  0.00  0.00    +0.000 C 
ATOM     17  C   UNL     1       2.219  10.609  17.933  0.00  0.00    +0.000 C 
ATOM     18  C   UNL     1       0.150   9.299  17.503  0.00  0.00    +0.000 C 
ENDBRANCH   4  15
BRANCH   1  19
ATOM     19  S   UNL     1       5.007   4.484  17.931  0.00  0.00    +0.000 S 
BRANCH  19  25
ATOM     20  C   UNL     1       7.537   6.198  16.918  0.00  0.00    +0.000 C 
ATOM     21  N   UNL     1       6.739   5.390  16.027  0.00  0.00    +0.000 N 
ATOM     22  C   UNL     1       6.984   5.235  14.687  0.00  0.00    +0.000 A 
ATOM     23  C   UNL     1       6.002   4.382  14.242  0.00  0.00    +0.000 A 
ATOM     24  N   UNL     1       5.171   4.019  15.265  0.00  0.00    +0.000 NA
ATOM     25  C   UNL     1       5.625   4.644  16.326  0.00  0.00    +0.000 A 
ENDBRANCH  19  25
ENDBRANCH   1  19
TORSDOF 5
ENDMDL
