MODEL 1
REMARK VINA RESULT:      -6.9      0.000      0.000
REMARK  Name = 
REMARK  7 active torsions:
REMARK  status: ('A' for Active; 'I' for Inactive)
REMARK    1  A    between atoms: C_1  and  C_2
REMARK    2  A    between atoms: C_2  and  C_3
REMARK    3  A    between atoms: C_3  and  C_4
REMARK    4  A    between atoms: C_4  and  C_5
REMARK    5  A    between atoms: C_5  and  C_6
REMARK    6  A    between atoms: C_6  and  N_7
REMARK    7  A    between atoms: C_11  and  O_12
REMARK                            x       y       z     vdW  Elec       q    Type
REMARK                         _______ _______ _______ _____ _____    ______ ____
ROOT
ATOM      1  N   UNL     1       4.715   3.858  18.126  0.00  0.00    +0.000 N 
ATOM      2  C   UNL     1       5.006   4.745  19.134  0.00  0.00    +0.000 A 
ATOM      3  N   UNL     1       5.885   5.659  18.753  0.00  0.00    +0.000 NA
ATOM      4  C   UNL     1       6.177   5.324  17.454  0.00  0.00    +0.000 A 
ATOM      5  C   UNL     1       7.028   5.885  16.510  0.00  0.00    +0.000 A 
ATOM      6  N   UNL     1       7.142   5.339  15.287  0.00  0.00    +0.000 NA
ATOM      7  C   UNL     1       6.404   4.249  15.011  0.00  0.00    +0.000 A 
ATOM      8  N   UNL     1       6.538   3.742  13.747  0.00  0.00    +0.000 N 
ATOM      9  N   UNL     1       5.543   3.619  15.836  0.00  0.00    +0.000 NA
ATOM     10  C   UNL     1       5.474   4.209  17.041  0.00  0.00    +0.000 A 
ATOM     11  H   UNL     1       7.250   4.157  13.171  0.00  0.00    +0.000 HD
ATOM     12  H   UNL     1       6.090   2.870  13.536  0.00  0.00    +0.000 HD
ENDROOT
BRANCH   5  13
ATOM     13  O   UNL     1       7.779   7.004  16.776  0.00  0.00    +0.000 OA
ATOM     14  H   UNL     1       8.388   6.721  17.485  0.00  0.00    +0.000 HD
ENDBRANCH   5  13
BRANCH   1  15
ATOM     15  C   UNL     1       3.761   2.769  18.197  0.00  0.00    +0.000 C 
BRANCH  15  16
ATOM     16  C   UNL     1       2.491   3.045  17.391  0.00  0.00    +0.000 C 
BRANCH  16  17
ATOM     17  C   UNL     1       1.406   3.739  18.217  0.00  0.00    +0.000 C 
BRANCH  17  18
ATOM     18  C   UNL     1       0.959   2.831  19.367  0.00  0.00    +0.000 C 
BRANCH  18  20
ATOM     19  C   UNL     1       1.603   4.942  20.570  0.00  0.00    +0.000 C 
ATOM     20  C   UNL     1       1.125   3.507  20.726  0.00  0.00    +0.000 C 
ENDBRANCH  18  20
ENDBRANCH  17  18
ENDBRANCH  16  17
ENDBRANCH  15  16
ENDBRANCH   1  15
TORSDOF 6
ENDMDL
MODEL 2
REMARK VINA RESULT:      -6.8      0.934      1.105
REMARK  Name = 
REMARK  7 active torsions:
REMARK  status: ('A' for Active; 'I' for Inactive)
REMARK    1  A    between atoms: C_1  and  C_2
REMARK    2  A    between atoms: C_2  and  C_3
REMARK    3  A    between atoms: C_3  and  C_4
REMARK    4  A    between atoms: C_4  and  C_5
REMARK    5  A    between atoms: C_5  and  C_6
REMARK    6  A    between atoms: C_6  and  N_7
REMARK    7  A    between atoms: C_11  and  O_12
REMARK                            x       y       z     vdW  Elec       q    Type
REMARK                         _______ _______ _______ _____ _____    ______ ____
ROOT
ATOM      1  N   UNL     1       4.755   3.817  18.128  0.00  0.00    +0.000 N 
ATOM      2  C   UNL     1       4.912   4.317  19.397  0.00  0.00    +0.000 A 
ATOM      3  N   UNL     1       5.810   5.289  19.441  0.00  0.00    +0.000 NA
ATOM      4  C   UNL     1       6.254   5.394  18.145  0.00  0.00    +0.000 A 
ATOM      5  C   UNL     1       7.196   6.218  17.542  0.00  0.00    +0.000 A 
ATOM      6  N   UNL     1       7.459   6.102  16.228  0.00  0.00    +0.000 NA
ATOM      7  C   UNL     1       6.779   5.178  15.528  0.00  0.00    +0.000 A 
ATOM      8  N   UNL     1       7.065   5.113  14.192  0.00  0.00    +0.000 N 
ATOM      9  N   UNL     1       5.842   4.329  15.996  0.00  0.00    +0.000 NA
ATOM     10  C   UNL     1       5.625   4.491  17.312  0.00  0.00    +0.000 A 
ATOM     11  H   UNL     1       7.830   5.680  13.869  0.00  0.00    +0.000 HD
ATOM     12  H   UNL     1       6.662   4.367  13.656  0.00  0.00    +0.000 HD
ENDROOT
BRANCH   5  13
ATOM     13  O   UNL     1       7.890   7.173  18.245  0.00  0.00    +0.000 OA
ATOM     14  H   UNL     1       8.466   6.659  18.842  0.00  0.00    +0.000 HD
ENDBRANCH   5  13
BRANCH   1  15
ATOM     15  C   UNL     1       3.821   2.783  17.727  0.00  0.00    +0.000 C 
BRANCH  15  16
ATOM     16  C   UNL     1       2.368   3.260  17.754  0.00  0.00    +0.000 C 
BRANCH  16  17
ATOM     17  C   UNL     1       1.547   2.595  18.861  0.00  0.00    +0.000 C 
BRANCH  17  18
ATOM     18  C   UNL     1       0.861   3.662  19.720  0.00  0.00    +0.000 C 
BRANCH  18  20
ATOM     19  C   UNL     1       2.337   2.691  21.508  0.00  0.00    +0.000 C 
ATOM     20  C   UNL     1       1.632   3.942  21.007  0.00  0.00    +0.000 C 
ENDBRANCH  18  20
ENDBRANCH  17  18
ENDBRANCH  16  17
ENDBRANCH  15  16
ENDBRANCH   1  15
TORSDOF 6
ENDMDL
MODEL 3
REMARK VINA RESULT:      -6.8      2.824      5.684
REMARK  Name = 
REMARK  7 active torsions:
REMARK  status: ('A' for Active; 'I' for Inactive)
REMARK    1  A    between atoms: C_1  and  C_2
REMARK    2  A    between atoms: C_2  and  C_3
REMARK    3  A    between atoms: C_3  and  C_4
REMARK    4  A    between atoms: C_4  and  C_5
REMARK    5  A    between atoms: C_5  and  C_6
REMARK    6  A    between atoms: C_6  and  N_7
REMARK    7  A    between atoms: C_11  and  O_12
REMARK                            x       y       z     vdW  Elec       q    Type
REMARK                         _______ _______ _______ _____ _____    ______ ____
ROOT
ATOM      1  N   UNL     1       5.965   4.532  15.425  0.00  0.00    +0.000 N 
ATOM      2  C   UNL     1       7.298   4.803  15.620  0.00  0.00    +0.000 A 
ATOM      3  N   UNL     1       7.579   5.020  16.895  0.00  0.00    +0.000 NA
ATOM      4  C   UNL     1       6.368   4.901  17.532  0.00  0.00    +0.000 A 
ATOM      5  C   UNL     1       5.994   5.023  18.864  0.00  0.00    +0.000 A 
ATOM      6  N   UNL     1       4.708   4.869  19.226  0.00  0.00    +0.000 NA
ATOM      7  C   UNL     1       3.811   4.589  18.265  0.00  0.00    +0.000 A 
ATOM      8  N   UNL     1       2.520   4.420  18.685  0.00  0.00    +0.000 N 
ATOM      9  N   UNL     1       4.051   4.441  16.946  0.00  0.00    +0.000 NA
ATOM     10  C   UNL     1       5.349   4.607  16.647  0.00  0.00    +0.000 A 
ATOM     11  H   UNL     1       2.332   4.625  19.651  0.00  0.00    +0.000 HD
ATOM     12  H   UNL     1       1.804   4.318  17.990  0.00  0.00    +0.000 HD
ENDROOT
BRANCH   5  13
ATOM     13  O   UNL     1       6.903   5.299  19.857  0.00  0.00    +0.000 OA
ATOM     14  H   UNL     1       7.379   4.457  19.986  0.00  0.00    +0.000 HD
ENDBRANCH   5  13
BRANCH   1  15
ATOM     15  C   UNL     1       5.337   4.204  14.160  0.00  0.00    +0.000 C 
BRANCH  15  16
ATOM     16  C   UNL     1       6.325   3.629  13.144  0.00  0.00    +0.000 C 
BRANCH  16  17
ATOM     17  C   UNL     1       5.633   3.047  11.910  0.00  0.00    +0.000 C 
BRANCH  17  18
ATOM     18  C   UNL     1       4.218   3.619  11.782  0.00  0.00    +0.000 C 
BRANCH  18  20
ATOM     19  C   UNL     1       2.931   4.138   9.685  0.00  0.00    +0.000 C 
ATOM     20  C   UNL     1       3.472   3.036  10.584  0.00  0.00    +0.000 C 
ENDBRANCH  18  20
ENDBRANCH  17  18
ENDBRANCH  16  17
ENDBRANCH  15  16
ENDBRANCH   1  15
TORSDOF 6
ENDMDL
MODEL 4
REMARK VINA RESULT:      -6.7      1.543      1.872
REMARK  Name = 
REMARK  7 active torsions:
REMARK  status: ('A' for Active; 'I' for Inactive)
REMARK    1  A    between atoms: C_1  and  C_2
REMARK    2  A    between atoms: C_2  and  C_3
REMARK    3  A    between atoms: C_3  and  C_4
REMARK    4  A    between atoms: C_4  and  C_5
REMARK    5  A    between atoms: C_5  and  C_6
REMARK    6  A    between atoms: C_6  and  N_7
REMARK    7  A    between atoms: C_11  and  O_12
REMARK                            x       y       z     vdW  Elec       q    Type
REMARK                         _______ _______ _______ _____ _____    ______ ____
ROOT
ATOM      1  N   UNL     1       4.465   5.719  18.139  0.00  0.00    +0.000 N 
ATOM      2  C   UNL     1       4.891   5.346  19.390  0.00  0.00    +0.000 A 
ATOM      3  N   UNL     1       6.112   4.837  19.368  0.00  0.00    +0.000 NA
ATOM      4  C   UNL     1       6.467   4.871  18.042  0.00  0.00    +0.000 A 
ATOM      5  C   UNL     1       7.616   4.474  17.369  0.00  0.00    +0.000 A 
ATOM      6  N   UNL     1       7.701   4.606  16.033  0.00  0.00    +0.000 NA
ATOM      7  C   UNL     1       6.651   5.138  15.383  0.00  0.00    +0.000 A 
ATOM      8  N   UNL     1       6.793   5.272  14.029  0.00  0.00    +0.000 N 
ATOM      9  N   UNL     1       5.491   5.563  15.922  0.00  0.00    +0.000 NA
ATOM     10  C   UNL     1       5.465   5.404  17.256  0.00  0.00    +0.000 A 
ATOM     11  H   UNL     1       7.619   4.866  13.623  0.00  0.00    +0.000 HD
ATOM     12  H   UNL     1       5.996   5.562  13.494  0.00  0.00    +0.000 HD
ENDROOT
BRANCH   5  13
ATOM     13  O   UNL     1       8.699   3.940  18.023  0.00  0.00    +0.000 OA
ATOM     14  H   UNL     1       8.771   3.034  17.666  0.00  0.00    +0.000 HD
ENDBRANCH   5  13
BRANCH   1  15
ATOM     15  C   UNL     1       3.199   6.351  17.821  0.00  0.00    +0.000 C 
BRANCH  15  16
ATOM     16  C   UNL     1       2.004   5.607  18.416  0.00  0.00    +0.000 C 
BRANCH  16  17
ATOM     17  C   UNL     1       1.713   4.286  17.701  0.00  0.00    +0.000 C 
BRANCH  17  18
ATOM     18  C   UNL     1       1.970   3.108  18.647  0.00  0.00    +0.000 C 
BRANCH  18  20
ATOM     19  C   UNL     1       1.332   3.064  21.078  0.00  0.00    +0.000 C 
ATOM     20  C   UNL     1       0.834   2.919  19.648  0.00  0.00    +0.000 C 
ENDBRANCH  18  20
ENDBRANCH  17  18
ENDBRANCH  16  17
ENDBRANCH  15  16
ENDBRANCH   1  15
TORSDOF 6
ENDMDL
MODEL 5
REMARK VINA RESULT:      -6.7      1.515      2.122
REMARK  Name = 
REMARK  7 active torsions:
REMARK  status: ('A' for Active; 'I' for Inactive)
REMARK    1  A    between atoms: C_1  and  C_2
REMARK    2  A    between atoms: C_2  and  C_3
REMARK    3  A    between atoms: C_3  and  C_4
REMARK    4  A    between atoms: C_4  and  C_5
REMARK    5  A    between atoms: C_5  and  C_6
REMARK    6  A    between atoms: C_6  and  N_7
REMARK    7  A    between atoms: C_11  and  O_12
REMARK                            x       y       z     vdW  Elec       q    Type
REMARK                         _______ _______ _______ _____ _____    ______ ____
ROOT
ATOM      1  N   UNL     1       4.190   5.341  18.299  0.00  0.00    +0.000 N 
ATOM      2  C   UNL     1       4.703   4.938  19.508  0.00  0.00    +0.000 A 
ATOM      3  N   UNL     1       5.968   4.558  19.410  0.00  0.00    +0.000 NA
ATOM      4  C   UNL     1       6.261   4.710  18.077  0.00  0.00    +0.000 A 
ATOM      5  C   UNL     1       7.415   4.475  17.339  0.00  0.00    +0.000 A 
ATOM      6  N   UNL     1       7.431   4.696  16.012  0.00  0.00    +0.000 NA
ATOM      7  C   UNL     1       6.307   5.157  15.437  0.00  0.00    +0.000 A 
ATOM      8  N   UNL     1       6.378   5.387  14.090  0.00  0.00    +0.000 N 
ATOM      9  N   UNL     1       5.133   5.428  16.043  0.00  0.00    +0.000 NA
ATOM     10  C   UNL     1       5.179   5.185  17.363  0.00  0.00    +0.000 A 
ATOM     11  H   UNL     1       7.222   5.094  13.629  0.00  0.00    +0.000 HD
ATOM     12  H   UNL     1       5.534   5.626  13.603  0.00  0.00    +0.000 HD
ENDROOT
BRANCH   5  13
ATOM     13  O   UNL     1       8.572   4.014  17.918  0.00  0.00    +0.000 OA
ATOM     14  H   UNL     1       8.421   3.056  18.027  0.00  0.00    +0.000 HD
ENDBRANCH   5  13
BRANCH   1  15
ATOM     15  C   UNL     1       2.856   5.859  18.068  0.00  0.00    +0.000 C 
BRANCH  15  16
ATOM     16  C   UNL     1       1.847   4.759  17.738  0.00  0.00    +0.000 C 
BRANCH  16  17
ATOM     17  C   UNL     1       1.338   4.029  18.983  0.00  0.00    +0.000 C 
BRANCH  17  18
ATOM     18  C   UNL     1       1.371   2.514  18.754  0.00  0.00    +0.000 C 
BRANCH  18  20
ATOM     19  C   UNL     1       3.654   1.501  18.470  0.00  0.00    +0.000 C 
ATOM     20  C   UNL     1       2.455   2.110  17.759  0.00  0.00    +0.000 C 
ENDBRANCH  18  20
ENDBRANCH  17  18
ENDBRANCH  16  17
ENDBRANCH  15  16
ENDBRANCH   1  15
TORSDOF 6
ENDMDL
MODEL 6
REMARK VINA RESULT:      -6.7      1.636      2.860
REMARK  Name = 
REMARK  7 active torsions:
REMARK  status: ('A' for Active; 'I' for Inactive)
REMARK    1  A    between atoms: C_1  and  C_2
REMARK    2  A    between atoms: C_2  and  C_3
REMARK    3  A    between atoms: C_3  and  C_4
REMARK    4  A    between atoms: C_4  and  C_5
REMARK    5  A    between atoms: C_5  and  C_6
REMARK    6  A    between atoms: C_6  and  N_7
REMARK    7  A    between atoms: C_11  and  O_12
REMARK                            x       y       z     vdW  Elec       q    Type
REMARK                         _______ _______ _______ _____ _____    ______ ____
ROOT
ATOM      1  N   UNL     1       5.050   4.647  17.217  0.00  0.00    +0.000 N 
ATOM      2  C   UNL     1       4.774   5.461  16.146  0.00  0.00    +0.000 A 
ATOM      3  N   UNL     1       5.595   6.499  16.086  0.00  0.00    +0.000 NA
ATOM      4  C   UNL     1       6.413   6.344  17.179  0.00  0.00    +0.000 A 
ATOM      5  C   UNL     1       7.467   7.100  17.674  0.00  0.00    +0.000 A 
ATOM      6  N   UNL     1       8.104   6.725  18.798  0.00  0.00    +0.000 NA
ATOM      7  C   UNL     1       7.693   5.602  19.411  0.00  0.00    +0.000 A 
ATOM      8  N   UNL     1       8.385   5.249  20.538  0.00  0.00    +0.000 N 
ATOM      9  N   UNL     1       6.691   4.784  19.027  0.00  0.00    +0.000 NA
ATOM     10  C   UNL     1       6.094   5.211  17.902  0.00  0.00    +0.000 A 
ATOM     11  H   UNL     1       9.065   5.911  20.871  0.00  0.00    +0.000 HD
ATOM     12  H   UNL     1       8.043   4.481  21.084  0.00  0.00    +0.000 HD
ENDROOT
BRANCH   5  13
ATOM     13  O   UNL     1       7.903   8.244  17.051  0.00  0.00    +0.000 OA
ATOM     14  H   UNL     1       8.816   8.034  16.777  0.00  0.00    +0.000 HD
ENDBRANCH   5  13
BRANCH   1  15
ATOM     15  C   UNL     1       4.373   3.407  17.544  0.00  0.00    +0.000 C 
BRANCH  15  16
ATOM     16  C   UNL     1       2.874   3.459  17.246  0.00  0.00    +0.000 C 
BRANCH  16  17
ATOM     17  C   UNL     1       2.062   2.505  18.125  0.00  0.00    +0.000 C 
BRANCH  17  18
ATOM     18  C   UNL     1       2.718   2.374  19.504  0.00  0.00    +0.000 C 
BRANCH  18  20
ATOM     19  C   UNL     1       0.896   3.913  20.298  0.00  0.00    +0.000 C 
ATOM     20  C   UNL     1       1.741   2.694  20.633  0.00  0.00    +0.000 C 
ENDBRANCH  18  20
ENDBRANCH  17  18
ENDBRANCH  16  17
ENDBRANCH  15  16
ENDBRANCH   1  15
TORSDOF 6
ENDMDL
MODEL 7
REMARK VINA RESULT:      -6.7      1.329      1.501
REMARK  Name = 
REMARK  7 active torsions:
REMARK  status: ('A' for Active; 'I' for Inactive)
REMARK    1  A    between atoms: C_1  and  C_2
REMARK    2  A    between atoms: C_2  and  C_3
REMARK    3  A    between atoms: C_3  and  C_4
REMARK    4  A    between atoms: C_4  and  C_5
REMARK    5  A    between atoms: C_5  and  C_6
REMARK    6  A    between atoms: C_6  and  N_7
REMARK    7  A    between atoms: C_11  and  O_12
REMARK                            x       y       z     vdW  Elec       q    Type
REMARK                         _______ _______ _______ _____ _____    ______ ____
ROOT
ATOM      1  N   UNL     1       4.025   3.689  17.707  0.00  0.00    +0.000 N 
ATOM      2  C   UNL     1       4.293   3.536  19.046  0.00  0.00    +0.000 A 
ATOM      3  N   UNL     1       5.530   3.900  19.349  0.00  0.00    +0.000 NA
ATOM      4  C   UNL     1       6.072   4.282  18.147  0.00  0.00    +0.000 A 
ATOM      5  C   UNL     1       7.330   4.755  17.794  0.00  0.00    +0.000 A 
ATOM      6  N   UNL     1       7.613   5.046  16.512  0.00  0.00    +0.000 NA
ATOM      7  C   UNL     1       6.643   4.874  15.598  0.00  0.00    +0.000 A 
ATOM      8  N   UNL     1       6.970   5.205  14.311  0.00  0.00    +0.000 N 
ATOM      9  N   UNL     1       5.388   4.430  15.815  0.00  0.00    +0.000 NA
ATOM     10  C   UNL     1       5.167   4.154  17.111  0.00  0.00    +0.000 A 
ATOM     11  H   UNL     1       7.932   5.443  14.140  0.00  0.00    +0.000 HD
ATOM     12  H   UNL     1       6.314   4.989  13.584  0.00  0.00    +0.000 HD
ENDROOT
BRANCH   5  13
ATOM     13  O   UNL     1       8.326   4.945  18.721  0.00  0.00    +0.000 OA
ATOM     14  H   UNL     1       8.210   5.870  19.011  0.00  0.00    +0.000 HD
ENDBRANCH   5  13
BRANCH   1  15
ATOM     15  C   UNL     1       2.756   3.427  17.056  0.00  0.00    +0.000 C 
BRANCH  15  16
ATOM     16  C   UNL     1       1.591   4.164  17.720  0.00  0.00    +0.000 C 
BRANCH  16  17
ATOM     17  C   UNL     1       0.702   3.237  18.552  0.00  0.00    +0.000 C 
BRANCH  17  18
ATOM     18  C   UNL     1       0.717   3.674  20.020  0.00  0.00    +0.000 C 
BRANCH  18  20
ATOM     19  C   UNL     1       2.228   3.236  21.981  0.00  0.00    +0.000 C 
ATOM     20  C   UNL     1       1.328   2.608  20.927  0.00  0.00    +0.000 C 
ENDBRANCH  18  20
ENDBRANCH  17  18
ENDBRANCH  16  17
ENDBRANCH  15  16
ENDBRANCH   1  15
TORSDOF 6
ENDMDL
MODEL 8
REMARK VINA RESULT:      -6.6      1.749      3.252
REMARK  Name = 
REMARK  7 active torsions:
REMARK  status: ('A' for Active; 'I' for Inactive)
REMARK    1  A    between atoms: C_1  and  C_2
REMARK    2  A    between atoms: C_2  and  C_3
REMARK    3  A    between atoms: C_3  and  C_4
REMARK    4  A    between atoms: C_4  and  C_5
REMARK    5  A    between atoms: C_5  and  C_6
REMARK    6  A    between atoms: C_6  and  N_7
REMARK    7  A    between atoms: C_11  and  O_12
REMARK                            x       y       z     vdW  Elec       q    Type
REMARK                         _______ _______ _______ _____ _____    ______ ____
ROOT
ATOM      1  N   UNL     1       4.114   5.494  18.619  0.00  0.00    +0.000 N 
ATOM      2  C   UNL     1       3.711   5.275  17.324  0.00  0.00    +0.000 A 
ATOM      3  N   UNL     1       4.723   4.935  16.540  0.00  0.00    +0.000 NA
ATOM      4  C   UNL     1       5.816   4.959  17.371  0.00  0.00    +0.000 A 
ATOM      5  C   UNL     1       7.164   4.706  17.153  0.00  0.00    +0.000 A 
ATOM      6  N   UNL     1       8.049   4.819  18.160  0.00  0.00    +0.000 NA
ATOM      7  C   UNL     1       7.584   5.172  19.371  0.00  0.00    +0.000 A 
ATOM      8  N   UNL     1       8.518   5.252  20.368  0.00  0.00    +0.000 N 
ATOM      9  N   UNL     1       6.305   5.437  19.707  0.00  0.00    +0.000 NA
ATOM     10  C   UNL     1       5.472   5.309  18.662  0.00  0.00    +0.000 A 
ATOM     11  H   UNL     1       9.479   5.148  20.091  0.00  0.00    +0.000 HD
ATOM     12  H   UNL     1       8.233   5.617  21.258  0.00  0.00    +0.000 HD
ENDROOT
BRANCH   5  13
ATOM     13  O   UNL     1       7.649   4.334  15.923  0.00  0.00    +0.000 OA
ATOM     14  H   UNL     1       6.863   4.339  15.344  0.00  0.00    +0.000 HD
ENDBRANCH   5  13
BRANCH   1  15
ATOM     15  C   UNL     1       3.253   5.834  19.734  0.00  0.00    +0.000 C 
BRANCH  15  16
ATOM     16  C   UNL     1       2.809   4.606  20.530  0.00  0.00    +0.000 C 
BRANCH  16  17
ATOM     17  C   UNL     1       1.298   4.378  20.473  0.00  0.00    +0.000 C 
BRANCH  17  18
ATOM     18  C   UNL     1       0.998   2.953  19.995  0.00  0.00    +0.000 C 
BRANCH  18  20
ATOM     19  C   UNL     1       2.320   2.022  18.070  0.00  0.00    +0.000 C 
ATOM     20  C   UNL     1       1.095   2.827  18.477  0.00  0.00    +0.000 C 
ENDBRANCH  18  20
ENDBRANCH  17  18
ENDBRANCH  16  17
ENDBRANCH  15  16
ENDBRANCH   1  15
TORSDOF 6
ENDMDL
MODEL 9
REMARK VINA RESULT:      -6.6      0.802      1.068
REMARK  Name = 
REMARK  7 active torsions:
REMARK  status: ('A' for Active; 'I' for Inactive)
REMARK    1  A    between atoms: C_1  and  C_2
REMARK    2  A    between atoms: C_2  and  C_3
REMARK    3  A    between atoms: C_3  and  C_4
REMARK    4  A    between atoms: C_4  and  C_5
REMARK    5  A    between atoms: C_5  and  C_6
REMARK    6  A    between atoms: C_6  and  N_7
REMARK    7  A    between atoms: C_11  and  O_12
REMARK                            x       y       z     vdW  Elec       q    Type
REMARK                         _______ _______ _______ _____ _____    ______ ____
ROOT
ATOM      1  N   UNL     1       3.912   4.376  17.384  0.00  0.00    +0.000 N 
ATOM      2  C   UNL     1       4.156   5.151  18.491  0.00  0.00    +0.000 A 
ATOM      3  N   UNL     1       5.263   5.867  18.363  0.00  0.00    +0.000 NA
ATOM      4  C   UNL     1       5.750   5.514  17.128  0.00  0.00    +0.000 A 
ATOM      5  C   UNL     1       6.879   5.906  16.419  0.00  0.00    +0.000 A 
ATOM      6  N   UNL     1       7.137   5.382  15.208  0.00  0.00    +0.000 NA
ATOM      7  C   UNL     1       6.269   4.484  14.711  0.00  0.00    +0.000 A 
ATOM      8  N   UNL     1       6.563   3.996  13.467  0.00  0.00    +0.000 N 
ATOM      9  N   UNL     1       5.143   4.030  15.297  0.00  0.00    +0.000 NA
ATOM     10  C   UNL     1       4.940   4.587  16.502  0.00  0.00    +0.000 A 
ATOM     11  H   UNL     1       7.450   4.264  13.078  0.00  0.00    +0.000 HD
ATOM     12  H   UNL     1       6.003   3.246  13.107  0.00  0.00    +0.000 HD
ENDROOT
BRANCH   5  13
ATOM     13  O   UNL     1       7.767   6.831  16.912  0.00  0.00    +0.000 OA
ATOM     14  H   UNL     1       7.769   6.672  17.875  0.00  0.00    +0.000 HD
ENDBRANCH   5  13
BRANCH   1  15
ATOM     15  C   UNL     1       2.764   3.514  17.181  0.00  0.00    +0.000 C 
BRANCH  15  16
ATOM     16  C   UNL     1       2.957   2.124  17.788  0.00  0.00    +0.000 C 
BRANCH  16  17
ATOM     17  C   UNL     1       2.175   1.933  19.089  0.00  0.00    +0.000 C 
BRANCH  17  18
ATOM     18  C   UNL     1       1.032   2.950  19.170  0.00  0.00    +0.000 C 
BRANCH  18  20
ATOM     19  C   UNL     1       1.616   2.871  21.614  0.00  0.00    +0.000 C 
ATOM     20  C   UNL     1       1.045   3.720  20.489  0.00  0.00    +0.000 C 
ENDBRANCH  18  20
ENDBRANCH  17  18
ENDBRANCH  16  17
ENDBRANCH  15  16
ENDBRANCH   1  15
TORSDOF 6
ENDMDL
