MODEL 1
REMARK VINA RESULT:      -7.4      0.000      0.000
REMARK  Name = 
REMARK  4 active torsions:
REMARK  status: ('A' for Active; 'I' for Inactive)
REMARK    1  A    between atoms: N_1  and  C_2
REMARK    2  A    between atoms: N_13  and  S_14
REMARK    3  A    between atoms: S_14  and  C_17
REMARK    4  A    between atoms: C_21  and  C_22
REMARK                            x       y       z     vdW  Elec       q    Type
REMARK                         _______ _______ _______ _____ _____    ______ ____
ROOT
ATOM      1  C   UNL     1       2.220   2.280  17.927  0.00  0.00    +0.000 C 
ATOM      2  C   UNL     1       3.665   1.850  18.257  0.00  0.00    +0.000 C 
ATOM      3  C   UNL     1       4.694   2.702  17.473  0.00  0.00    +0.000 C 
ATOM      4  C   UNL     1       4.310   4.158  17.473  0.00  0.00    +0.000 A 
ATOM      5  C   UNL     1       3.080   4.609  17.919  0.00  0.00    +0.000 A 
ATOM      6  C   UNL     1       3.098   5.974  17.796  0.00  0.00    +0.000 A 
ATOM      7  C   UNL     1       2.131   6.925  18.110  0.00  0.00    +0.000 A 
ATOM      8  C   UNL     1       2.431   8.272  17.851  0.00  0.00    +0.000 A 
ATOM      9  C   UNL     1       3.675   8.632  17.288  0.00  0.00    +0.000 A 
ATOM     10  C   UNL     1       4.638   7.647  16.985  0.00  0.00    +0.000 A 
ATOM     11  C   UNL     1       4.317   6.312  17.252  0.00  0.00    +0.000 A 
ATOM     12  N   UNL     1       5.066   5.201  17.047  0.00  0.00    +0.000 N 
ATOM     13  C   UNL     1       1.984   3.727  18.420  0.00  0.00    +0.000 C 
ENDROOT
BRANCH   1  14
ATOM     14  N   UNL     1       1.249   1.385  18.553  0.00  0.00    +0.000 NA
ATOM     15  H   UNL     1       1.570   1.168  19.524  0.00  0.00    +0.000 HD
ATOM     16  H   UNL     1       1.217   0.481  18.027  0.00  0.00    +0.000 HD
ENDBRANCH   1  14
BRANCH  12  17
ATOM     17  S   UNL     1       6.735   5.135  16.443  0.00  0.00    +0.000 S 
ATOM     18  O   UNL     1       7.401   6.447  16.881  0.00  0.00    +0.000 OA
ATOM     19  O   UNL     1       7.464   4.092  17.306  0.00  0.00    +0.000 OA
BRANCH  17  20
ATOM     20  C   UNL     1       6.833   4.833  14.682  0.00  0.00    +0.000 A 
ATOM     21  C   UNL     1       7.896   5.356  13.938  0.00  0.00    +0.000 A 
ATOM     22  C   UNL     1       7.936   5.180  12.554  0.00  0.00    +0.000 A 
ATOM     23  C   UNL     1       6.911   4.486  11.904  0.00  0.00    +0.000 A 
ATOM     24  C   UNL     1       5.837   3.950  12.643  0.00  0.00    +0.000 A 
ATOM     25  C   UNL     1       5.812   4.126  14.037  0.00  0.00    +0.000 A 
BRANCH  24  26
ATOM     26  C   UNL     1       4.708   3.209  11.973  0.00  0.00    +0.000 C 
ATOM     27  F   UNL     1       4.200   3.916  10.896  0.00  0.00    +0.000 F 
ATOM     28  F   UNL     1       5.161   1.983  11.525  0.00  0.00    +0.000 F 
ATOM     29  F   UNL     1       3.687   3.008  12.886  0.00  0.00    +0.000 F 
ENDBRANCH  24  26
ENDBRANCH  17  20
ENDBRANCH  12  17
TORSDOF 4
ENDMDL
MODEL 2
REMARK VINA RESULT:      -7.3      7.678     10.339
REMARK  Name = 
REMARK  4 active torsions:
REMARK  status: ('A' for Active; 'I' for Inactive)
REMARK    1  A    between atoms: N_1  and  C_2
REMARK    2  A    between atoms: N_13  and  S_14
REMARK    3  A    between atoms: S_14  and  C_17
REMARK    4  A    between atoms: C_21  and  C_22
REMARK                            x       y       z     vdW  Elec       q    Type
REMARK                         _______ _______ _______ _____ _____    ______ ____
ROOT
ATOM      1  C   UNL     1       2.103   7.399  18.601  0.00  0.00    +0.000 C 
ATOM      2  C   UNL     1       2.402   8.647  17.744  0.00  0.00    +0.000 C 
ATOM      3  C   UNL     1       1.244   9.671  17.825  0.00  0.00    +0.000 C 
ATOM      4  C   UNL     1       0.740   9.814  19.237  0.00  0.00    +0.000 A 
ATOM      5  C   UNL     1       1.122   8.963  20.260  0.00  0.00    +0.000 A 
ATOM      6  C   UNL     1       0.493   9.410  21.393  0.00  0.00    +0.000 A 
ATOM      7  C   UNL     1       0.535   8.933  22.700  0.00  0.00    +0.000 A 
ATOM      8  C   UNL     1      -0.244   9.595  23.662  0.00  0.00    +0.000 A 
ATOM      9  C   UNL     1      -1.039  10.705  23.299  0.00  0.00    +0.000 A 
ATOM     10  C   UNL     1      -1.058  11.168  21.967  0.00  0.00    +0.000 A 
ATOM     11  C   UNL     1      -0.274  10.493  21.026  0.00  0.00    +0.000 A 
ATOM     12  N   UNL     1      -0.130  10.746  19.702  0.00  0.00    +0.000 N 
ATOM     13  C   UNL     1       2.039   7.797  20.094  0.00  0.00    +0.000 C 
ENDROOT
BRANCH   1  14
ATOM     14  N   UNL     1       3.126   6.372  18.410  0.00  0.00    +0.000 NA
ATOM     15  H   UNL     1       2.666   5.433  18.427  0.00  0.00    +0.000 HD
ATOM     16  H   UNL     1       3.803   6.400  19.207  0.00  0.00    +0.000 HD
ENDBRANCH   1  14
BRANCH  12  17
ATOM     17  S   UNL     1      -0.852  12.085  18.786  0.00  0.00    +0.000 S 
ATOM     18  O   UNL     1      -1.161  13.187  19.811  0.00  0.00    +0.000 OA
ATOM     19  O   UNL     1       0.288  12.709  17.966  0.00  0.00    +0.000 OA
BRANCH  17  20
ATOM     20  C   UNL     1      -2.271  11.589  17.816  0.00  0.00    +0.000 A 
ATOM     21  C   UNL     1      -2.116  11.255  16.466  0.00  0.00    +0.000 A 
ATOM     22  C   UNL     1      -3.233  10.936  15.691  0.00  0.00    +0.000 A 
ATOM     23  C   UNL     1      -4.511  10.955  16.259  0.00  0.00    +0.000 A 
ATOM     24  C   UNL     1      -4.679  11.285  17.618  0.00  0.00    +0.000 A 
ATOM     25  C   UNL     1      -3.547  11.597  18.390  0.00  0.00    +0.000 A 
BRANCH  24  26
ATOM     26  C   UNL     1      -6.043  11.331  18.258  0.00  0.00    +0.000 C 
ATOM     27  F   UNL     1      -6.973  11.951  17.440  0.00  0.00    +0.000 F 
ATOM     28  F   UNL     1      -6.473  10.043  18.522  0.00  0.00    +0.000 F 
ATOM     29  F   UNL     1      -5.968  12.034  19.447  0.00  0.00    +0.000 F 
ENDBRANCH  24  26
ENDBRANCH  17  20
ENDBRANCH  12  17
TORSDOF 4
ENDMDL
MODEL 3
REMARK VINA RESULT:      -7.3      6.185      8.650
REMARK  Name = 
REMARK  4 active torsions:
REMARK  status: ('A' for Active; 'I' for Inactive)
REMARK    1  A    between atoms: N_1  and  C_2
REMARK    2  A    between atoms: N_13  and  S_14
REMARK    3  A    between atoms: S_14  and  C_17
REMARK    4  A    between atoms: C_21  and  C_22
REMARK                            x       y       z     vdW  Elec       q    Type
REMARK                         _______ _______ _______ _____ _____    ______ ____
ROOT
ATOM      1  C   UNL     1      -2.237  10.906  16.668  0.00  0.00    +0.000 C 
ATOM      2  C   UNL     1      -2.731   9.903  17.732  0.00  0.00    +0.000 C 
ATOM      3  C   UNL     1      -1.575   9.465  18.665  0.00  0.00    +0.000 C 
ATOM      4  C   UNL     1      -0.715  10.638  19.057  0.00  0.00    +0.000 A 
ATOM      5  C   UNL     1      -0.829  11.883  18.463  0.00  0.00    +0.000 A 
ATOM      6  C   UNL     1       0.083  12.696  19.085  0.00  0.00    +0.000 A 
ATOM      7  C   UNL     1       0.378  14.042  18.889  0.00  0.00    +0.000 A 
ATOM      8  C   UNL     1       1.393  14.610  19.677  0.00  0.00    +0.000 A 
ATOM      9  C   UNL     1       2.083  13.826  20.627  0.00  0.00    +0.000 A 
ATOM     10  C   UNL     1       1.759  12.464  20.807  0.00  0.00    +0.000 A 
ATOM     11  C   UNL     1       0.744  11.922  20.012  0.00  0.00    +0.000 A 
ATOM     12  N   UNL     1       0.262  10.655  19.998  0.00  0.00    +0.000 N 
ATOM     13  C   UNL     1      -1.777  12.211  17.357  0.00  0.00    +0.000 C 
ENDROOT
BRANCH   1  14
ATOM     14  N   UNL     1      -3.291  11.207  15.701  0.00  0.00    +0.000 NA
ATOM     15  H   UNL     1      -4.179  10.757  16.021  0.00  0.00    +0.000 HD
ATOM     16  H   UNL     1      -3.048  10.788  14.774  0.00  0.00    +0.000 HD
ENDBRANCH   1  14
BRANCH  12  17
ATOM     17  S   UNL     1       0.740   9.319  21.066  0.00  0.00    +0.000 S 
ATOM     18  O   UNL     1       1.610   9.942  22.169  0.00  0.00    +0.000 OA
ATOM     19  O   UNL     1      -0.525   8.910  21.837  0.00  0.00    +0.000 OA
BRANCH  17  20
ATOM     20  C   UNL     1       1.539   7.975  20.196  0.00  0.00    +0.000 A 
ATOM     21  C   UNL     1       2.116   8.196  18.941  0.00  0.00    +0.000 A 
ATOM     22  C   UNL     1       2.677   7.132  18.231  0.00  0.00    +0.000 A 
ATOM     23  C   UNL     1       2.657   5.841  18.768  0.00  0.00    +0.000 A 
ATOM     24  C   UNL     1       2.082   5.607  20.032  0.00  0.00    +0.000 A 
ATOM     25  C   UNL     1       1.529   6.686  20.741  0.00  0.00    +0.000 A 
BRANCH  24  26
ATOM     26  C   UNL     1       2.030   4.226  20.634  0.00  0.00    +0.000 C 
ATOM     27  F   UNL     1       2.388   4.236  21.972  0.00  0.00    +0.000 F 
ATOM     28  F   UNL     1       0.747   3.721  20.522  0.00  0.00    +0.000 F 
ATOM     29  F   UNL     1       2.902   3.395  19.953  0.00  0.00    +0.000 F 
ENDBRANCH  24  26
ENDBRANCH  17  20
ENDBRANCH  12  17
TORSDOF 4
ENDMDL
MODEL 4
REMARK VINA RESULT:      -7.2      6.846      9.654
REMARK  Name = 
REMARK  4 active torsions:
REMARK  status: ('A' for Active; 'I' for Inactive)
REMARK    1  A    between atoms: N_1  and  C_2
REMARK    2  A    between atoms: N_13  and  S_14
REMARK    3  A    between atoms: S_14  and  C_17
REMARK    4  A    between atoms: C_21  and  C_22
REMARK                            x       y       z     vdW  Elec       q    Type
REMARK                         _______ _______ _______ _____ _____    ______ ____
ROOT
ATOM      1  C   UNL     1      -4.023  13.157  21.922  0.00  0.00    +0.000 C 
ATOM      2  C   UNL     1      -2.639  13.806  22.140  0.00  0.00    +0.000 C 
ATOM      3  C   UNL     1      -1.501  12.857  21.692  0.00  0.00    +0.000 C 
ATOM      4  C   UNL     1      -1.833  12.184  20.387  0.00  0.00    +0.000 A 
ATOM      5  C   UNL     1      -3.090  12.245  19.809  0.00  0.00    +0.000 A 
ATOM      6  C   UNL     1      -3.012  11.548  18.632  0.00  0.00    +0.000 A 
ATOM      7  C   UNL     1      -3.977  11.306  17.658  0.00  0.00    +0.000 A 
ATOM      8  C   UNL     1      -3.604  10.528  16.549  0.00  0.00    +0.000 A 
ATOM      9  C   UNL     1      -2.292  10.014  16.445  0.00  0.00    +0.000 A 
ATOM     10  C   UNL     1      -1.335  10.280  17.446  0.00  0.00    +0.000 A 
ATOM     11  C   UNL     1      -1.729  11.057  18.540  0.00  0.00    +0.000 A 
ATOM     12  N   UNL     1      -1.000  11.440  19.616  0.00  0.00    +0.000 N 
ATOM     13  C   UNL     1      -4.264  12.946  20.409  0.00  0.00    +0.000 C 
ENDROOT
BRANCH   1  14
ATOM     14  N   UNL     1      -5.088  13.990  22.477  0.00  0.00    +0.000 NA
ATOM     15  H   UNL     1      -4.820  14.274  23.447  0.00  0.00    +0.000 HD
ATOM     16  H   UNL     1      -5.969  13.432  22.549  0.00  0.00    +0.000 HD
ENDBRANCH   1  14
BRANCH  12  17
ATOM     17  S   UNL     1       0.724  11.122  19.906  0.00  0.00    +0.000 S 
ATOM     18  O   UNL     1       1.486  11.829  18.775  0.00  0.00    +0.000 OA
ATOM     19  O   UNL     1       1.114  11.957  21.137  0.00  0.00    +0.000 OA
BRANCH  17  20
ATOM     20  C   UNL     1       1.103   9.380  20.048  0.00  0.00    +0.000 A 
ATOM     21  C   UNL     1       0.721   8.669  21.191  0.00  0.00    +0.000 A 
ATOM     22  C   UNL     1       1.079   7.327  21.333  0.00  0.00    +0.000 A 
ATOM     23  C   UNL     1       1.824   6.689  20.337  0.00  0.00    +0.000 A 
ATOM     24  C   UNL     1       2.210   7.393  19.179  0.00  0.00    +0.000 A 
ATOM     25  C   UNL     1       1.837   8.741  19.043  0.00  0.00    +0.000 A 
BRANCH  24  26
ATOM     26  C   UNL     1       3.026   6.741  18.092  0.00  0.00    +0.000 C 
ATOM     27  F   UNL     1       2.351   5.681  17.510  0.00  0.00    +0.000 F 
ATOM     28  F   UNL     1       3.318   7.672  17.113  0.00  0.00    +0.000 F 
ATOM     29  F   UNL     1       4.209   6.265  18.630  0.00  0.00    +0.000 F 
ENDBRANCH  24  26
ENDBRANCH  17  20
ENDBRANCH  12  17
TORSDOF 4
ENDMDL
MODEL 5
REMARK VINA RESULT:      -7.2      6.706      9.417
REMARK  Name = 
REMARK  4 active torsions:
REMARK  status: ('A' for Active; 'I' for Inactive)
REMARK    1  A    between atoms: N_1  and  C_2
REMARK    2  A    between atoms: N_13  and  S_14
REMARK    3  A    between atoms: S_14  and  C_17
REMARK    4  A    between atoms: C_21  and  C_22
REMARK                            x       y       z     vdW  Elec       q    Type
REMARK                         _______ _______ _______ _____ _____    ______ ____
ROOT
ATOM      1  C   UNL     1      -3.441  11.046  16.462  0.00  0.00    +0.000 C 
ATOM      2  C   UNL     1      -2.429   9.903  16.692  0.00  0.00    +0.000 C 
ATOM      3  C   UNL     1      -1.229  10.383  17.544  0.00  0.00    +0.000 C 
ATOM      4  C   UNL     1      -1.684  11.245  18.692  0.00  0.00    +0.000 A 
ATOM      5  C   UNL     1      -2.980  11.719  18.807  0.00  0.00    +0.000 A 
ATOM      6  C   UNL     1      -3.030  12.435  19.974  0.00  0.00    +0.000 A 
ATOM      7  C   UNL     1      -4.088  13.112  20.576  0.00  0.00    +0.000 A 
ATOM      8  C   UNL     1      -3.830  13.784  21.782  0.00  0.00    +0.000 A 
ATOM      9  C   UNL     1      -2.536  13.768  22.348  0.00  0.00    +0.000 A 
ATOM     10  C   UNL     1      -1.486  13.069  21.717  0.00  0.00    +0.000 A 
ATOM     11  C   UNL     1      -1.766  12.407  20.518  0.00  0.00    +0.000 A 
ATOM     12  N   UNL     1      -0.932  11.681  19.734  0.00  0.00    +0.000 N 
ATOM     13  C   UNL     1      -4.065  11.467  17.812  0.00  0.00    +0.000 C 
ENDROOT
BRANCH   1  14
ATOM     14  N   UNL     1      -4.497  10.636  15.540  0.00  0.00    +0.000 NA
ATOM     15  H   UNL     1      -5.296  11.305  15.625  0.00  0.00    +0.000 HD
ATOM     16  H   UNL     1      -4.853   9.690  15.812  0.00  0.00    +0.000 HD
ENDBRANCH   1  14
BRANCH  12  17
ATOM     17  S   UNL     1       0.770  11.291  20.059  0.00  0.00    +0.000 S 
ATOM     18  O   UNL     1       1.584  11.967  18.946  0.00  0.00    +0.000 OA
ATOM     19  O   UNL     1       1.169  12.108  21.299  0.00  0.00    +0.000 OA
BRANCH  17  20
ATOM     20  C   UNL     1       1.074   9.534  20.206  0.00  0.00    +0.000 A 
ATOM     21  C   UNL     1       0.664   8.845  21.352  0.00  0.00    +0.000 A 
ATOM     22  C   UNL     1       0.964   7.489  21.497  0.00  0.00    +0.000 A 
ATOM     23  C   UNL     1       1.679   6.816  20.501  0.00  0.00    +0.000 A 
ATOM     24  C   UNL     1       2.092   7.499  19.341  0.00  0.00    +0.000 A 
ATOM     25  C   UNL     1       1.779   8.861  19.202  0.00  0.00    +0.000 A 
BRANCH  24  26
ATOM     26  C   UNL     1       2.878   6.809  18.255  0.00  0.00    +0.000 C 
ATOM     27  F   UNL     1       2.144   5.799  17.654  0.00  0.00    +0.000 F 
ATOM     28  F   UNL     1       3.237   7.730  17.289  0.00  0.00    +0.000 F 
ATOM     29  F   UNL     1       4.023   6.255  18.798  0.00  0.00    +0.000 F 
ENDBRANCH  24  26
ENDBRANCH  17  20
ENDBRANCH  12  17
TORSDOF 4
ENDMDL
MODEL 6
REMARK VINA RESULT:      -7.2      7.097      9.726
REMARK  Name = 
REMARK  4 active torsions:
REMARK  status: ('A' for Active; 'I' for Inactive)
REMARK    1  A    between atoms: N_1  and  C_2
REMARK    2  A    between atoms: N_13  and  S_14
REMARK    3  A    between atoms: S_14  and  C_17
REMARK    4  A    between atoms: C_21  and  C_22
REMARK                            x       y       z     vdW  Elec       q    Type
REMARK                         _______ _______ _______ _____ _____    ______ ____
ROOT
ATOM      1  C   UNL     1      -4.221  13.262  22.121  0.00  0.00    +0.000 C 
ATOM      2  C   UNL     1      -2.840  13.772  22.582  0.00  0.00    +0.000 C 
ATOM      3  C   UNL     1      -1.734  12.727  22.295  0.00  0.00    +0.000 C 
ATOM      4  C   UNL     1      -1.907  12.110  20.933  0.00  0.00    +0.000 A 
ATOM      5  C   UNL     1      -3.040  12.299  20.161  0.00  0.00    +0.000 A 
ATOM      6  C   UNL     1      -2.833  11.617  18.991  0.00  0.00    +0.000 A 
ATOM      7  C   UNL     1      -3.641  11.483  17.865  0.00  0.00    +0.000 A 
ATOM      8  C   UNL     1      -3.164  10.692  16.808  0.00  0.00    +0.000 A 
ATOM      9  C   UNL     1      -1.905  10.057  16.902  0.00  0.00    +0.000 A 
ATOM     10  C   UNL     1      -1.106  10.214  18.054  0.00  0.00    +0.000 A 
ATOM     11  C   UNL     1      -1.603  11.008  19.093  0.00  0.00    +0.000 A 
ATOM     12  N   UNL     1      -1.028  11.303  20.285  0.00  0.00    +0.000 N 
ATOM     13  C   UNL     1      -4.228  13.099  20.584  0.00  0.00    +0.000 C 
ENDROOT
BRANCH   1  14
ATOM     14  N   UNL     1      -5.283  14.183  22.522  0.00  0.00    +0.000 NA
ATOM     15  H   UNL     1      -5.863  13.725  23.261  0.00  0.00    +0.000 HD
ATOM     16  H   UNL     1      -5.910  14.371  21.706  0.00  0.00    +0.000 HD
ENDBRANCH   1  14
BRANCH  12  17
ATOM     17  S   UNL     1       0.587  10.818  20.841  0.00  0.00    +0.000 S 
ATOM     18  O   UNL     1       1.395  12.115  20.994  0.00  0.00    +0.000 OA
ATOM     19  O   UNL     1       0.421  10.360  22.299  0.00  0.00    +0.000 OA
BRANCH  17  20
ATOM     20  C   UNL     1       1.364   9.610  19.774  0.00  0.00    +0.000 A 
ATOM     21  C   UNL     1       1.750   9.964  18.477  0.00  0.00    +0.000 A 
ATOM     22  C   UNL     1       2.292   9.003  17.621  0.00  0.00    +0.000 A 
ATOM     23  C   UNL     1       2.445   7.682  18.054  0.00  0.00    +0.000 A 
ATOM     24  C   UNL     1       2.064   7.315  19.359  0.00  0.00    +0.000 A 
ATOM     25  C   UNL     1       1.528   8.292  20.215  0.00  0.00    +0.000 A 
BRANCH  24  26
ATOM     26  C   UNL     1       2.201   5.897  19.854  0.00  0.00    +0.000 C 
ATOM     27  F   UNL     1       3.503   5.608  20.227  0.00  0.00    +0.000 F 
ATOM     28  F   UNL     1       1.374   5.707  20.945  0.00  0.00    +0.000 F 
ATOM     29  F   UNL     1       1.829   5.023  18.848  0.00  0.00    +0.000 F 
ENDBRANCH  24  26
ENDBRANCH  17  20
ENDBRANCH  12  17
TORSDOF 4
ENDMDL
MODEL 7
REMARK VINA RESULT:      -7.1      7.805     10.552
REMARK  Name = 
REMARK  4 active torsions:
REMARK  status: ('A' for Active; 'I' for Inactive)
REMARK    1  A    between atoms: N_1  and  C_2
REMARK    2  A    between atoms: N_13  and  S_14
REMARK    3  A    between atoms: S_14  and  C_17
REMARK    4  A    between atoms: C_21  and  C_22
REMARK                            x       y       z     vdW  Elec       q    Type
REMARK                         _______ _______ _______ _____ _____    ______ ____
ROOT
ATOM      1  C   UNL     1      -3.615  10.933  15.795  0.00  0.00    +0.000 C 
ATOM      2  C   UNL     1      -2.427  10.136  16.374  0.00  0.00    +0.000 C 
ATOM      3  C   UNL     1      -1.742  10.914  17.525  0.00  0.00    +0.000 C 
ATOM      4  C   UNL     1      -2.759  11.545  18.439  0.00  0.00    +0.000 A 
ATOM      5  C   UNL     1      -4.108  11.601  18.134  0.00  0.00    +0.000 A 
ATOM      6  C   UNL     1      -4.721  12.214  19.196  0.00  0.00    +0.000 A 
ATOM      7  C   UNL     1      -6.063  12.513  19.417  0.00  0.00    +0.000 A 
ATOM      8  C   UNL     1      -6.396  13.174  20.611  0.00  0.00    +0.000 A 
ATOM      9  C   UNL     1      -5.392  13.520  21.541  0.00  0.00    +0.000 A 
ATOM     10  C   UNL     1      -4.041  13.200  21.291  0.00  0.00    +0.000 A 
ATOM     11  C   UNL     1      -3.733  12.541  20.097  0.00  0.00    +0.000 A 
ATOM     12  N   UNL     1      -2.524  12.136  19.637  0.00  0.00    +0.000 N 
ATOM     13  C   UNL     1      -4.714  11.083  16.872  0.00  0.00    +0.000 C 
ENDROOT
BRANCH   1  14
ATOM     14  N   UNL     1      -4.170  10.267  14.618  0.00  0.00    +0.000 NA
ATOM     15  H   UNL     1      -4.678   9.407  14.927  0.00  0.00    +0.000 HD
ATOM     16  H   UNL     1      -3.392   9.959  13.990  0.00  0.00    +0.000 HD
ENDBRANCH   1  14
BRANCH  12  17
ATOM     17  S   UNL     1      -0.965  12.261  20.479  0.00  0.00    +0.000 S 
ATOM     18  O   UNL     1      -0.152  13.321  19.721  0.00  0.00    +0.000 OA
ATOM     19  O   UNL     1      -1.254  12.964  21.816  0.00  0.00    +0.000 OA
BRANCH  17  20
ATOM     20  C   UNL     1      -0.125  10.690  20.639  0.00  0.00    +0.000 A 
ATOM     21  C   UNL     1      -0.114  10.022  21.869  0.00  0.00    +0.000 A 
ATOM     22  C   UNL     1       0.601   8.831  22.012  0.00  0.00    +0.000 A 
ATOM     23  C   UNL     1       1.313   8.305  20.930  0.00  0.00    +0.000 A 
ATOM     24  C   UNL     1       1.306   8.966  19.686  0.00  0.00    +0.000 A 
ATOM     25  C   UNL     1       0.577  10.159  19.551  0.00  0.00    +0.000 A 
BRANCH  24  26
ATOM     26  C   UNL     1       2.075   8.435  18.503  0.00  0.00    +0.000 C 
ATOM     27  F   UNL     1       1.230   7.972  17.508  0.00  0.00    +0.000 F 
ATOM     28  F   UNL     1       2.868   9.439  17.979  0.00  0.00    +0.000 F 
ATOM     29  F   UNL     1       2.883   7.390  18.913  0.00  0.00    +0.000 F 
ENDBRANCH  24  26
ENDBRANCH  17  20
ENDBRANCH  12  17
TORSDOF 4
ENDMDL
MODEL 8
REMARK VINA RESULT:      -7.1      7.259     10.028
REMARK  Name = 
REMARK  4 active torsions:
REMARK  status: ('A' for Active; 'I' for Inactive)
REMARK    1  A    between atoms: N_1  and  C_2
REMARK    2  A    between atoms: N_13  and  S_14
REMARK    3  A    between atoms: S_14  and  C_17
REMARK    4  A    between atoms: C_21  and  C_22
REMARK                            x       y       z     vdW  Elec       q    Type
REMARK                         _______ _______ _______ _____ _____    ______ ____
ROOT
ATOM      1  C   UNL     1      -4.642  12.744  22.034  0.00  0.00    +0.000 C 
ATOM      2  C   UNL     1      -3.344  13.533  22.311  0.00  0.00    +0.000 C 
ATOM      3  C   UNL     1      -2.116  12.822  21.691  0.00  0.00    +0.000 C 
ATOM      4  C   UNL     1      -2.422  12.310  20.308  0.00  0.00    +0.000 A 
ATOM      5  C   UNL     1      -3.702  12.287  19.782  0.00  0.00    +0.000 A 
ATOM      6  C   UNL     1      -3.592  11.788  18.511  0.00  0.00    +0.000 A 
ATOM      7  C   UNL     1      -4.564  11.566  17.538  0.00  0.00    +0.000 A 
ATOM      8  C   UNL     1      -4.148  11.018  16.314  0.00  0.00    +0.000 A 
ATOM      9  C   UNL     1      -2.788  10.705  16.095  0.00  0.00    +0.000 A 
ATOM     10  C   UNL     1      -1.826  10.946  17.098  0.00  0.00    +0.000 A 
ATOM     11  C   UNL     1      -2.263  11.493  18.308  0.00  0.00    +0.000 A 
ATOM     12  N   UNL     1      -1.538  11.807  19.410  0.00  0.00    +0.000 N 
ATOM     13  C   UNL     1      -4.927  12.729  20.515  0.00  0.00    +0.000 C 
ENDROOT
BRANCH   1  14
ATOM     14  N   UNL     1      -5.776  13.336  22.740  0.00  0.00    +0.000 NA
ATOM     15  H   UNL     1      -5.417  13.872  23.563  0.00  0.00    +0.000 HD
ATOM     16  H   UNL     1      -6.394  12.577  23.109  0.00  0.00    +0.000 HD
ENDBRANCH   1  14
BRANCH  12  17
ATOM     17  S   UNL     1       0.224  11.684  19.599  0.00  0.00    +0.000 S 
ATOM     18  O   UNL     1       0.835  12.287  18.325  0.00  0.00    +0.000 OA
ATOM     19  O   UNL     1       0.615  12.713  20.671  0.00  0.00    +0.000 OA
BRANCH  17  20
ATOM     20  C   UNL     1       0.779  10.017  19.941  0.00  0.00    +0.000 A 
ATOM     21  C   UNL     1       0.611   9.470  21.218  0.00  0.00    +0.000 A 
ATOM     22  C   UNL     1       1.107   8.197  21.504  0.00  0.00    +0.000 A 
ATOM     23  C   UNL     1       1.778   7.466  20.519  0.00  0.00    +0.000 A 
ATOM     24  C   UNL     1       1.950   8.005  19.229  0.00  0.00    +0.000 A 
ATOM     25  C   UNL     1       1.439   9.284  18.950  0.00  0.00    +0.000 A 
BRANCH  24  26
ATOM     26  C   UNL     1       2.682   7.252  18.148  0.00  0.00    +0.000 C 
ATOM     27  F   UNL     1       2.990   8.069  17.073  0.00  0.00    +0.000 F 
ATOM     28  F   UNL     1       3.857   6.733  18.661  0.00  0.00    +0.000 F 
ATOM     29  F   UNL     1       1.889   6.213  17.695  0.00  0.00    +0.000 F 
ENDBRANCH  24  26
ENDBRANCH  17  20
ENDBRANCH  12  17
TORSDOF 4
ENDMDL
MODEL 9
REMARK VINA RESULT:      -7.1     10.224     12.262
REMARK  Name = 
REMARK  4 active torsions:
REMARK  status: ('A' for Active; 'I' for Inactive)
REMARK    1  A    between atoms: N_1  and  C_2
REMARK    2  A    between atoms: N_13  and  S_14
REMARK    3  A    between atoms: S_14  and  C_17
REMARK    4  A    between atoms: C_21  and  C_22
REMARK                            x       y       z     vdW  Elec       q    Type
REMARK                         _______ _______ _______ _____ _____    ______ ____
ROOT
ATOM      1  C   UNL     1      -2.919  10.825  16.096  0.00  0.00    +0.000 C 
ATOM      2  C   UNL     1      -2.238  10.204  17.334  0.00  0.00    +0.000 C 
ATOM      3  C   UNL     1      -2.306  11.162  18.548  0.00  0.00    +0.000 C 
ATOM      4  C   UNL     1      -3.664  11.803  18.661  0.00  0.00    +0.000 A 
ATOM      5  C   UNL     1      -4.623  11.710  17.668  0.00  0.00    +0.000 A 
ATOM      6  C   UNL     1      -5.725  12.384  18.126  0.00  0.00    +0.000 A 
ATOM      7  C   UNL     1      -6.970  12.590  17.538  0.00  0.00    +0.000 A 
ATOM      8  C   UNL     1      -7.911  13.352  18.250  0.00  0.00    +0.000 A 
ATOM      9  C   UNL     1      -7.587  13.886  19.517  0.00  0.00    +0.000 A 
ATOM     10  C   UNL     1      -6.318  13.656  20.090  0.00  0.00    +0.000 A 
ATOM     11  C   UNL     1      -5.399  12.895  19.363  0.00  0.00    +0.000 A 
ATOM     12  N   UNL     1      -4.132  12.545  19.697  0.00  0.00    +0.000 N 
ATOM     13  C   UNL     1      -4.430  11.001  16.368  0.00  0.00    +0.000 C 
ENDROOT
BRANCH   1  14
ATOM     14  N   UNL     1      -2.728   9.986  14.914  0.00  0.00    +0.000 NA
ATOM     15  H   UNL     1      -2.900  10.564  14.060  0.00  0.00    +0.000 HD
ATOM     16  H   UNL     1      -3.433   9.214  14.915  0.00  0.00    +0.000 HD
ENDBRANCH   1  14
BRANCH  12  17
ATOM     17  S   UNL     1      -3.295  12.898  21.223  0.00  0.00    +0.000 S 
ATOM     18  O   UNL     1      -3.426  14.412  21.444  0.00  0.00    +0.000 OA
ATOM     19  O   UNL     1      -4.181  12.325  22.342  0.00  0.00    +0.000 OA
BRANCH  17  20
ATOM     20  C   UNL     1      -1.605  12.311  21.250  0.00  0.00    +0.000 A 
ATOM     21  C   UNL     1      -0.607  13.016  20.569  0.00  0.00    +0.000 A 
ATOM     22  C   UNL     1       0.698  12.521  20.531  0.00  0.00    +0.000 A 
ATOM     23  C   UNL     1       1.011  11.316  21.167  0.00  0.00    +0.000 A 
ATOM     24  C   UNL     1       0.015  10.599  21.859  0.00  0.00    +0.000 A 
ATOM     25  C   UNL     1      -1.292  11.111  21.897  0.00  0.00    +0.000 A 
BRANCH  24  26
ATOM     26  C   UNL     1       0.314   9.288  22.542  0.00  0.00    +0.000 C 
ATOM     27  F   UNL     1       1.644   8.929  22.401  0.00  0.00    +0.000 F 
ATOM     28  F   UNL     1       0.024   9.394  23.890  0.00  0.00    +0.000 F 
ATOM     29  F   UNL     1      -0.470   8.293  21.988  0.00  0.00    +0.000 F 
ENDBRANCH  24  26
ENDBRANCH  17  20
ENDBRANCH  12  17
TORSDOF 4
ENDMDL
