MODEL 1
REMARK VINA RESULT:      -9.6      0.000      0.000
REMARK  Name = 
REMARK  7 active torsions:
REMARK  status: ('A' for Active; 'I' for Inactive)
REMARK    1  A    between atoms: N_1  and  C_2
REMARK    2  A    between atoms: C_3  and  C_4
REMARK    3  A    between atoms: N_6  and  C_7
REMARK    4  A    between atoms: C_7  and  C_8
REMARK    5  A    between atoms: C_8  and  C_9
REMARK    6  A    between atoms: C_21  and  C_22
REMARK    7  A    between atoms: C_29  and  C_30
REMARK                            x       y       z     vdW  Elec       q    Type
REMARK                         _______ _______ _______ _____ _____    ______ ____
ROOT
ATOM      1  C   UNL     1       2.356   5.552  19.554  0.00  0.00    +0.000 A 
ATOM      2  C   UNL     1       2.255   6.936  19.535  0.00  0.00    +0.000 A 
ATOM      3  S   UNL     1       3.198   7.600  18.267  0.00  0.00    +0.000 S 
ATOM      4  C   UNL     1       3.707   6.068  17.744  0.00  0.00    +0.000 A 
ATOM      5  N   UNL     1       4.527   5.977  16.679  0.00  0.00    +0.000 NA
ATOM      6  C   UNL     1       4.870   4.731  16.311  0.00  0.00    +0.000 A 
ATOM      7  C   UNL     1       4.441   3.604  17.002  0.00  0.00    +0.000 A 
ATOM      8  C   UNL     1       3.586   3.716  18.117  0.00  0.00    +0.000 A 
ATOM      9  C   UNL     1       3.194   5.024  18.503  0.00  0.00    +0.000 A 
ENDROOT
BRANCH   6  10
ATOM     10  C   UNL     1       5.727   4.635  15.116  0.00  0.00    +0.000 A 
ATOM     11  C   UNL     1       5.386   3.836  14.016  0.00  0.00    +0.000 A 
ATOM     12  C   UNL     1       6.221   3.768  12.900  0.00  0.00    +0.000 A 
ATOM     13  C   UNL     1       7.392   4.504  12.911  0.00  0.00    +0.000 A 
ATOM     14  N   UNL     1       7.773   5.283  13.942  0.00  0.00    +0.000 NA
ATOM     15  C   UNL     1       6.940   5.322  15.011  0.00  0.00    +0.000 A 
ENDBRANCH   6  10
BRANCH   2  16
ATOM     16  C   UNL     1       1.486   7.810  20.422  0.00  0.00    +0.000 C 
ATOM     17  O   UNL     1       1.099   7.466  21.536  0.00  0.00    +0.000 OA
ATOM     18  N   UNL     1       1.189   9.060  19.909  0.00  0.00    +0.000 N 
ATOM     19  H   UNL     1       1.460   9.255  18.951  0.00  0.00    +0.000 HD
BRANCH  18  20
ATOM     20  C   UNL     1       0.348  10.015  20.605  0.00  0.00    +0.000 C 
BRANCH  20  21
ATOM     21  C   UNL     1       0.192  11.342  19.853  0.00  0.00    +0.000 C 
BRANCH  21  22
ATOM     22  C   UNL     1      -1.217  11.642  19.427  0.00  0.00    +0.000 A 
ATOM     23  C   UNL     1      -2.081  12.536  20.030  0.00  0.00    +0.000 A 
ATOM     24  N   UNL     1      -3.264  12.528  19.344  0.00  0.00    +0.000 N 
ATOM     25  C   UNL     1      -3.196  11.653  18.287  0.00  0.00    +0.000 A 
ATOM     26  C   UNL     1      -4.159  11.329  17.322  0.00  0.00    +0.000 A 
ATOM     27  C   UNL     1      -3.808  10.396  16.344  0.00  0.00    +0.000 A 
ATOM     28  C   UNL     1      -2.542   9.814  16.330  0.00  0.00    +0.000 A 
ATOM     29  C   UNL     1      -1.592  10.149  17.303  0.00  0.00    +0.000 A 
ATOM     30  C   UNL     1      -1.919  11.084  18.307  0.00  0.00    +0.000 A 
ATOM     31  H   UNL     1      -4.075  13.088  19.571  0.00  0.00    +0.000 HD
ENDBRANCH  21  22
ENDBRANCH  20  21
ENDBRANCH  18  20
ENDBRANCH   2  16
BRANCH   8  32
ATOM     32  C   UNL     1       3.141   2.463  18.818  0.00  0.00    +0.000 C 
ATOM     33  F   UNL     1       3.610   1.323  18.232  0.00  0.00    +0.000 F 
ATOM     34  F   UNL     1       3.552   2.402  20.113  0.00  0.00    +0.000 F 
ATOM     35  F   UNL     1       1.787   2.323  18.850  0.00  0.00    +0.000 F 
ENDBRANCH   8  32
BRANCH   1  36
ATOM     36  N   UNL     1       1.713   4.787  20.462  0.00  0.00    +0.000 N 
ATOM     37  H   UNL     1       1.203   3.948  20.170  0.00  0.00    +0.000 HD
ATOM     38  H   UNL     1       1.575   5.010  21.443  0.00  0.00    +0.000 HD
ENDBRANCH   1  36
TORSDOF 7
ENDMDL
MODEL 2
REMARK VINA RESULT:      -9.2      0.652      1.122
REMARK  Name = 
REMARK  7 active torsions:
REMARK  status: ('A' for Active; 'I' for Inactive)
REMARK    1  A    between atoms: N_1  and  C_2
REMARK    2  A    between atoms: C_3  and  C_4
REMARK    3  A    between atoms: N_6  and  C_7
REMARK    4  A    between atoms: C_7  and  C_8
REMARK    5  A    between atoms: C_8  and  C_9
REMARK    6  A    between atoms: C_21  and  C_22
REMARK    7  A    between atoms: C_29  and  C_30
REMARK                            x       y       z     vdW  Elec       q    Type
REMARK                         _______ _______ _______ _____ _____    ______ ____
ROOT
ATOM      1  C   UNL     1       2.654   5.468  19.225  0.00  0.00    +0.000 A 
ATOM      2  C   UNL     1       2.561   6.853  19.198  0.00  0.00    +0.000 A 
ATOM      3  S   UNL     1       3.458   7.501  17.888  0.00  0.00    +0.000 S 
ATOM      4  C   UNL     1       3.936   5.962  17.358  0.00  0.00    +0.000 A 
ATOM      5  N   UNL     1       4.711   5.857  16.262  0.00  0.00    +0.000 NA
ATOM      6  C   UNL     1       5.032   4.606  15.890  0.00  0.00    +0.000 A 
ATOM      7  C   UNL     1       4.623   3.487  16.606  0.00  0.00    +0.000 A 
ATOM      8  C   UNL     1       3.814   3.613  17.754  0.00  0.00    +0.000 A 
ATOM      9  C   UNL     1       3.446   4.927  18.145  0.00  0.00    +0.000 A 
ENDROOT
BRANCH   6  10
ATOM     10  C   UNL     1       5.840   4.495  14.663  0.00  0.00    +0.000 A 
ATOM     11  C   UNL     1       7.032   5.211  14.488  0.00  0.00    +0.000 A 
ATOM     12  C   UNL     1       7.773   5.082  13.313  0.00  0.00    +0.000 A 
ATOM     13  C   UNL     1       7.299   4.234  12.327  0.00  0.00    +0.000 A 
ATOM     14  N   UNL     1       6.158   3.527  12.439  0.00  0.00    +0.000 NA
ATOM     15  C   UNL     1       5.461   3.680  13.592  0.00  0.00    +0.000 A 
ENDBRANCH   6  10
BRANCH   2  16
ATOM     16  C   UNL     1       1.834   7.739  20.109  0.00  0.00    +0.000 C 
ATOM     17  O   UNL     1       1.667   7.490  21.300  0.00  0.00    +0.000 OA
ATOM     18  N   UNL     1       1.307   8.879  19.528  0.00  0.00    +0.000 N 
ATOM     19  H   UNL     1       1.401   8.986  18.524  0.00  0.00    +0.000 HD
BRANCH  18  20
ATOM     20  C   UNL     1       0.470   9.814  20.255  0.00  0.00    +0.000 C 
BRANCH  20  21
ATOM     21  C   UNL     1       0.339  11.174  19.558  0.00  0.00    +0.000 C 
BRANCH  21  22
ATOM     22  C   UNL     1      -1.076  11.554  19.222  0.00  0.00    +0.000 A 
ATOM     23  C   UNL     1      -1.846  12.497  19.876  0.00  0.00    +0.000 A 
ATOM     24  N   UNL     1      -3.069  12.557  19.266  0.00  0.00    +0.000 N 
ATOM     25  C   UNL     1      -3.119  11.681  18.209  0.00  0.00    +0.000 A 
ATOM     26  C   UNL     1      -4.158  11.414  17.309  0.00  0.00    +0.000 A 
ATOM     27  C   UNL     1      -3.924  10.462  16.313  0.00  0.00    +0.000 A 
ATOM     28  C   UNL     1      -2.698   9.809  16.221  0.00  0.00    +0.000 A 
ATOM     29  C   UNL     1      -1.670  10.088  17.130  0.00  0.00    +0.000 A 
ATOM     30  C   UNL     1      -1.878  11.039  18.150  0.00  0.00    +0.000 A 
ATOM     31  H   UNL     1      -3.830  13.163  19.543  0.00  0.00    +0.000 HD
ENDBRANCH  21  22
ENDBRANCH  20  21
ENDBRANCH  18  20
ENDBRANCH   2  16
BRANCH   8  32
ATOM     32  C   UNL     1       3.389   2.368  18.483  0.00  0.00    +0.000 C 
ATOM     33  F   UNL     1       3.844   2.317  19.768  0.00  0.00    +0.000 F 
ATOM     34  F   UNL     1       2.039   2.235  18.569  0.00  0.00    +0.000 F 
ATOM     35  F   UNL     1       3.840   1.227  17.893  0.00  0.00    +0.000 F 
ENDBRANCH   8  32
BRANCH   1  36
ATOM     36  N   UNL     1       2.043   4.714  20.163  0.00  0.00    +0.000 N 
ATOM     37  H   UNL     1       1.335   4.023  19.897  0.00  0.00    +0.000 HD
ATOM     38  H   UNL     1       2.125   4.828  21.169  0.00  0.00    +0.000 HD
ENDBRANCH   1  36
TORSDOF 7
ENDMDL
MODEL 3
REMARK VINA RESULT:      -9.1      0.914      1.667
REMARK  Name = 
REMARK  7 active torsions:
REMARK  status: ('A' for Active; 'I' for Inactive)
REMARK    1  A    between atoms: N_1  and  C_2
REMARK    2  A    between atoms: C_3  and  C_4
REMARK    3  A    between atoms: N_6  and  C_7
REMARK    4  A    between atoms: C_7  and  C_8
REMARK    5  A    between atoms: C_8  and  C_9
REMARK    6  A    between atoms: C_21  and  C_22
REMARK    7  A    between atoms: C_29  and  C_30
REMARK                            x       y       z     vdW  Elec       q    Type
REMARK                         _______ _______ _______ _____ _____    ______ ____
ROOT
ATOM      1  C   UNL     1       2.465   5.838  19.526  0.00  0.00    +0.000 A 
ATOM      2  C   UNL     1       2.299   7.210  19.398  0.00  0.00    +0.000 A 
ATOM      3  S   UNL     1       3.184   7.810  18.057  0.00  0.00    +0.000 S 
ATOM      4  C   UNL     1       3.752   6.264  17.647  0.00  0.00    +0.000 A 
ATOM      5  N   UNL     1       4.552   6.123  16.572  0.00  0.00    +0.000 NA
ATOM      6  C   UNL     1       4.944   4.868  16.298  0.00  0.00    +0.000 A 
ATOM      7  C   UNL     1       4.582   3.782  17.088  0.00  0.00    +0.000 A 
ATOM      8  C   UNL     1       3.747   3.947  18.211  0.00  0.00    +0.000 A 
ATOM      9  C   UNL     1       3.303   5.264  18.501  0.00  0.00    +0.000 A 
ENDROOT
BRANCH   6  10
ATOM     10  C   UNL     1       5.780   4.712  15.093  0.00  0.00    +0.000 A 
ATOM     11  C   UNL     1       5.419   3.858  14.042  0.00  0.00    +0.000 A 
ATOM     12  C   UNL     1       6.234   3.734  12.916  0.00  0.00    +0.000 A 
ATOM     13  C   UNL     1       7.403   4.472  12.867  0.00  0.00    +0.000 A 
ATOM     14  N   UNL     1       7.802   5.303  13.850  0.00  0.00    +0.000 NA
ATOM     15  C   UNL     1       6.988   5.395  14.932  0.00  0.00    +0.000 A 
ENDBRANCH   6  10
BRANCH   2  16
ATOM     16  C   UNL     1       1.510   8.119  20.231  0.00  0.00    +0.000 C 
ATOM     17  O   UNL     1       1.204   7.871  21.394  0.00  0.00    +0.000 OA
ATOM     18  N   UNL     1       1.092   9.280  19.606  0.00  0.00    +0.000 N 
ATOM     19  H   UNL     1       1.300   9.389  18.619  0.00  0.00    +0.000 HD
BRANCH  18  20
ATOM     20  C   UNL     1       0.215  10.243  20.245  0.00  0.00    +0.000 C 
BRANCH  20  21
ATOM     21  C   UNL     1      -0.274  11.339  19.290  0.00  0.00    +0.000 C 
BRANCH  21  22
ATOM     22  C   UNL     1      -1.514  10.974  18.524  0.00  0.00    +0.000 A 
ATOM     23  C   UNL     1      -1.595  10.072  17.480  0.00  0.00    +0.000 A 
ATOM     24  N   UNL     1      -2.894  10.013  17.057  0.00  0.00    +0.000 N 
ATOM     25  C   UNL     1      -3.681  10.849  17.811  0.00  0.00    +0.000 A 
ATOM     26  C   UNL     1      -5.056  11.102  17.737  0.00  0.00    +0.000 A 
ATOM     27  C   UNL     1      -5.598  12.010  18.650  0.00  0.00    +0.000 A 
ATOM     28  C   UNL     1      -4.795  12.635  19.601  0.00  0.00    +0.000 A 
ATOM     29  C   UNL     1      -3.421  12.371  19.660  0.00  0.00    +0.000 A 
ATOM     30  C   UNL     1      -2.844  11.463  18.748  0.00  0.00    +0.000 A 
ATOM     31  H   UNL     1      -3.236   9.433  16.302  0.00  0.00    +0.000 HD
ENDBRANCH  21  22
ENDBRANCH  20  21
ENDBRANCH  18  20
ENDBRANCH   2  16
BRANCH   8  32
ATOM     32  C   UNL     1       3.375   2.737  19.023  0.00  0.00    +0.000 C 
ATOM     33  F   UNL     1       2.028   2.532  19.095  0.00  0.00    +0.000 F 
ATOM     34  F   UNL     1       3.893   1.582  18.525  0.00  0.00    +0.000 F 
ATOM     35  F   UNL     1       3.800   2.811  20.314  0.00  0.00    +0.000 F 
ENDBRANCH   8  32
BRANCH   1  36
ATOM     36  N   UNL     1       1.877   5.122  20.508  0.00  0.00    +0.000 N 
ATOM     37  H   UNL     1       0.856   5.087  20.589  0.00  0.00    +0.000 HD
ATOM     38  H   UNL     1       2.350   4.673  21.286  0.00  0.00    +0.000 HD
ENDBRANCH   1  36
TORSDOF 7
ENDMDL
MODEL 4
REMARK VINA RESULT:      -9.0      0.863      1.113
REMARK  Name = 
REMARK  7 active torsions:
REMARK  status: ('A' for Active; 'I' for Inactive)
REMARK    1  A    between atoms: N_1  and  C_2
REMARK    2  A    between atoms: C_3  and  C_4
REMARK    3  A    between atoms: N_6  and  C_7
REMARK    4  A    between atoms: C_7  and  C_8
REMARK    5  A    between atoms: C_8  and  C_9
REMARK    6  A    between atoms: C_21  and  C_22
REMARK    7  A    between atoms: C_29  and  C_30
REMARK                            x       y       z     vdW  Elec       q    Type
REMARK                         _______ _______ _______ _____ _____    ______ ____
ROOT
ATOM      1  C   UNL     1       2.335   5.778  19.668  0.00  0.00    +0.000 A 
ATOM      2  C   UNL     1       2.226   7.160  19.590  0.00  0.00    +0.000 A 
ATOM      3  S   UNL     1       3.148   7.773  18.281  0.00  0.00    +0.000 S 
ATOM      4  C   UNL     1       3.658   6.222  17.818  0.00  0.00    +0.000 A 
ATOM      5  N   UNL     1       4.463   6.089  16.746  0.00  0.00    +0.000 NA
ATOM      6  C   UNL     1       4.808   4.830  16.427  0.00  0.00    +0.000 A 
ATOM      7  C   UNL     1       4.394   3.731  17.173  0.00  0.00    +0.000 A 
ATOM      8  C   UNL     1       3.554   3.888  18.294  0.00  0.00    +0.000 A 
ATOM      9  C   UNL     1       3.161   5.209  18.629  0.00  0.00    +0.000 A 
ENDROOT
BRANCH   6  10
ATOM     10  C   UNL     1       5.648   4.686  15.226  0.00  0.00    +0.000 A 
ATOM     11  C   UNL     1       5.282   3.860  14.154  0.00  0.00    +0.000 A 
ATOM     12  C   UNL     1       6.102   3.746  13.031  0.00  0.00    +0.000 A 
ATOM     13  C   UNL     1       7.283   4.466  13.006  0.00  0.00    +0.000 A 
ATOM     14  N   UNL     1       7.689   5.269  14.009  0.00  0.00    +0.000 NA
ATOM     15  C   UNL     1       6.869   5.352  15.086  0.00  0.00    +0.000 A 
ENDBRANCH   6  10
BRANCH   2  16
ATOM     16  C   UNL     1       1.465   8.068  20.450  0.00  0.00    +0.000 C 
ATOM     17  O   UNL     1       0.841   7.694  21.439  0.00  0.00    +0.000 OA
ATOM     18  N   UNL     1       1.465   9.394  20.055  0.00  0.00    +0.000 N 
ATOM     19  H   UNL     1       1.924   9.628  19.182  0.00  0.00    +0.000 HD
BRANCH  18  20
ATOM     20  C   UNL     1       0.680  10.412  20.726  0.00  0.00    +0.000 C 
BRANCH  20  21
ATOM     21  C   UNL     1      -0.806  10.374  20.349  0.00  0.00    +0.000 C 
BRANCH  21  22
ATOM     22  C   UNL     1      -1.133  11.100  19.075  0.00  0.00    +0.000 A 
ATOM     23  C   UNL     1      -0.615  12.316  18.671  0.00  0.00    +0.000 A 
ATOM     24  N   UNL     1      -1.152  12.634  17.454  0.00  0.00    +0.000 N 
ATOM     25  C   UNL     1      -2.008  11.644  17.036  0.00  0.00    +0.000 A 
ATOM     26  C   UNL     1      -2.767  11.545  15.864  0.00  0.00    +0.000 A 
ATOM     27  C   UNL     1      -3.556  10.404  15.697  0.00  0.00    +0.000 A 
ATOM     28  C   UNL     1      -3.580   9.402  16.664  0.00  0.00    +0.000 A 
ATOM     29  C   UNL     1      -2.815   9.518  17.831  0.00  0.00    +0.000 A 
ATOM     30  C   UNL     1      -2.013  10.661  18.031  0.00  0.00    +0.000 A 
ATOM     31  H   UNL     1      -0.948  13.474  16.927  0.00  0.00    +0.000 HD
ENDBRANCH  21  22
ENDBRANCH  20  21
ENDBRANCH  18  20
ENDBRANCH   2  16
BRANCH   8  32
ATOM     32  C   UNL     1       3.126   2.664  19.056  0.00  0.00    +0.000 C 
ATOM     33  F   UNL     1       3.531   2.673  20.359  0.00  0.00    +0.000 F 
ATOM     34  F   UNL     1       1.776   2.506  19.095  0.00  0.00    +0.000 F 
ATOM     35  F   UNL     1       3.622   1.510  18.531  0.00  0.00    +0.000 F 
ENDBRANCH   8  32
BRANCH   1  36
ATOM     36  N   UNL     1       1.709   5.050  20.617  0.00  0.00    +0.000 N 
ATOM     37  H   UNL     1       1.243   5.510  21.405  0.00  0.00    +0.000 HD
ATOM     38  H   UNL     1       1.734   4.040  20.710  0.00  0.00    +0.000 HD
ENDBRANCH   1  36
TORSDOF 7
ENDMDL
MODEL 5
REMARK VINA RESULT:      -9.0      1.154      2.317
REMARK  Name = 
REMARK  7 active torsions:
REMARK  status: ('A' for Active; 'I' for Inactive)
REMARK    1  A    between atoms: N_1  and  C_2
REMARK    2  A    between atoms: C_3  and  C_4
REMARK    3  A    between atoms: N_6  and  C_7
REMARK    4  A    between atoms: C_7  and  C_8
REMARK    5  A    between atoms: C_8  and  C_9
REMARK    6  A    between atoms: C_21  and  C_22
REMARK    7  A    between atoms: C_29  and  C_30
REMARK                            x       y       z     vdW  Elec       q    Type
REMARK                         _______ _______ _______ _____ _____    ______ ____
ROOT
ATOM      1  C   UNL     1       2.553   5.518  19.323  0.00  0.00    +0.000 A 
ATOM      2  C   UNL     1       2.451   6.903  19.316  0.00  0.00    +0.000 A 
ATOM      3  S   UNL     1       3.382   7.577  18.044  0.00  0.00    +0.000 S 
ATOM      4  C   UNL     1       3.886   6.049  17.504  0.00  0.00    +0.000 A 
ATOM      5  N   UNL     1       4.695   5.967  16.430  0.00  0.00    +0.000 NA
ATOM      6  C   UNL     1       5.035   4.724  16.049  0.00  0.00    +0.000 A 
ATOM      7  C   UNL     1       4.612   3.590  16.735  0.00  0.00    +0.000 A 
ATOM      8  C   UNL     1       3.768   3.694  17.859  0.00  0.00    +0.000 A 
ATOM      9  C   UNL     1       3.380   4.999  18.260  0.00  0.00    +0.000 A 
ENDROOT
BRANCH   6  10
ATOM     10  C   UNL     1       5.880   4.637  14.845  0.00  0.00    +0.000 A 
ATOM     11  C   UNL     1       5.541   3.826  13.752  0.00  0.00    +0.000 A 
ATOM     12  C   UNL     1       6.364   3.768  12.628  0.00  0.00    +0.000 A 
ATOM     13  C   UNL     1       7.522   4.525  12.622  0.00  0.00    +0.000 A 
ATOM     14  N   UNL     1       7.901   5.316  13.645  0.00  0.00    +0.000 NA
ATOM     15  C   UNL     1       7.079   5.345  14.723  0.00  0.00    +0.000 A 
ENDBRANCH   6  10
BRANCH   2  16
ATOM     16  C   UNL     1       1.691   7.769  20.218  0.00  0.00    +0.000 C 
ATOM     17  O   UNL     1       1.358   7.435  21.352  0.00  0.00    +0.000 OA
ATOM     18  N   UNL     1       1.335   8.999  19.694  0.00  0.00    +0.000 N 
ATOM     19  H   UNL     1       1.561   9.185  18.723  0.00  0.00    +0.000 HD
BRANCH  18  20
ATOM     20  C   UNL     1       0.493   9.941  20.407  0.00  0.00    +0.000 C 
BRANCH  20  21
ATOM     21  C   UNL     1       0.298  11.264  19.655  0.00  0.00    +0.000 C 
BRANCH  21  22
ATOM     22  C   UNL     1      -1.092  11.826  19.756  0.00  0.00    +0.000 A 
ATOM     23  C   UNL     1      -1.903  12.195  18.700  0.00  0.00    +0.000 A 
ATOM     24  N   UNL     1      -3.091  12.650  19.203  0.00  0.00    +0.000 N 
ATOM     25  C   UNL     1      -3.088  12.577  20.575  0.00  0.00    +0.000 A 
ATOM     26  C   UNL     1      -4.081  12.926  21.498  0.00  0.00    +0.000 A 
ATOM     27  C   UNL     1      -3.802  12.734  22.854  0.00  0.00    +0.000 A 
ATOM     28  C   UNL     1      -2.579  12.211  23.266  0.00  0.00    +0.000 A 
ATOM     29  C   UNL     1      -1.597  11.868  22.329  0.00  0.00    +0.000 A 
ATOM     30  C   UNL     1      -1.847  12.055  20.954  0.00  0.00    +0.000 A 
ATOM     31  H   UNL     1      -3.868  12.988  18.650  0.00  0.00    +0.000 HD
ENDBRANCH  21  22
ENDBRANCH  20  21
ENDBRANCH  18  20
ENDBRANCH   2  16
BRANCH   8  32
ATOM     32  C   UNL     1       3.330   2.435  18.555  0.00  0.00    +0.000 C 
ATOM     33  F   UNL     1       1.975   2.282  18.586  0.00  0.00    +0.000 F 
ATOM     34  F   UNL     1       3.811   1.306  17.969  0.00  0.00    +0.000 F 
ATOM     35  F   UNL     1       3.730   2.380  19.856  0.00  0.00    +0.000 F 
ENDBRANCH   8  32
BRANCH   1  36
ATOM     36  N   UNL     1       1.919   4.746  20.231  0.00  0.00    +0.000 N 
ATOM     37  H   UNL     1       1.646   5.128  21.142  0.00  0.00    +0.000 HD
ATOM     38  H   UNL     1       1.763   3.745  20.161  0.00  0.00    +0.000 HD
ENDBRANCH   1  36
TORSDOF 7
ENDMDL
MODEL 6
REMARK VINA RESULT:      -8.9      1.612      2.658
REMARK  Name = 
REMARK  7 active torsions:
REMARK  status: ('A' for Active; 'I' for Inactive)
REMARK    1  A    between atoms: N_1  and  C_2
REMARK    2  A    between atoms: C_3  and  C_4
REMARK    3  A    between atoms: N_6  and  C_7
REMARK    4  A    between atoms: C_7  and  C_8
REMARK    5  A    between atoms: C_8  and  C_9
REMARK    6  A    between atoms: C_21  and  C_22
REMARK    7  A    between atoms: C_29  and  C_30
REMARK                            x       y       z     vdW  Elec       q    Type
REMARK                         _______ _______ _______ _____ _____    ______ ____
ROOT
ATOM      1  C   UNL     1       2.505   5.625  19.362  0.00  0.00    +0.000 A 
ATOM      2  C   UNL     1       2.389   7.007  19.307  0.00  0.00    +0.000 A 
ATOM      3  S   UNL     1       3.308   7.646  18.008  0.00  0.00    +0.000 S 
ATOM      4  C   UNL     1       3.824   6.106  17.518  0.00  0.00    +0.000 A 
ATOM      5  N   UNL     1       4.628   5.994  16.443  0.00  0.00    +0.000 NA
ATOM      6  C   UNL     1       4.978   4.742  16.103  0.00  0.00    +0.000 A 
ATOM      7  C   UNL     1       4.570   3.629  16.830  0.00  0.00    +0.000 A 
ATOM      8  C   UNL     1       3.730   3.763  17.954  0.00  0.00    +0.000 A 
ATOM      9  C   UNL     1       3.332   5.077  18.312  0.00  0.00    +0.000 A 
ENDROOT
BRANCH   6  10
ATOM     10  C   UNL     1       5.818   4.622  14.898  0.00  0.00    +0.000 A 
ATOM     11  C   UNL     1       5.458   3.806  13.817  0.00  0.00    +0.000 A 
ATOM     12  C   UNL     1       6.278   3.715  12.692  0.00  0.00    +0.000 A 
ATOM     13  C   UNL     1       7.452   4.448  12.673  0.00  0.00    +0.000 A 
ATOM     14  N   UNL     1       7.850   5.243  13.685  0.00  0.00    +0.000 NA
ATOM     15  C   UNL     1       7.032   5.303  14.765  0.00  0.00    +0.000 A 
ENDBRANCH   6  10
BRANCH   2  16
ATOM     16  C   UNL     1       1.626   7.897  20.183  0.00  0.00    +0.000 C 
ATOM     17  O   UNL     1       1.286   7.591  21.323  0.00  0.00    +0.000 OA
ATOM     18  N   UNL     1       1.275   9.114  19.627  0.00  0.00    +0.000 N 
ATOM     19  H   UNL     1       1.507   9.275  18.653  0.00  0.00    +0.000 HD
BRANCH  18  20
ATOM     20  C   UNL     1       0.430  10.075  20.311  0.00  0.00    +0.000 C 
BRANCH  20  21
ATOM     21  C   UNL     1      -0.600  10.737  19.388  0.00  0.00    +0.000 C 
BRANCH  21  22
ATOM     22  C   UNL     1      -0.501  12.236  19.338  0.00  0.00    +0.000 A 
ATOM     23  C   UNL     1      -1.503  13.132  19.660  0.00  0.00    +0.000 A 
ATOM     24  N   UNL     1      -1.020  14.401  19.494  0.00  0.00    +0.000 N 
ATOM     25  C   UNL     1       0.289  14.363  19.080  0.00  0.00    +0.000 A 
ATOM     26  C   UNL     1       1.175  15.410  18.794  0.00  0.00    +0.000 A 
ATOM     27  C   UNL     1       2.470  15.073  18.394  0.00  0.00    +0.000 A 
ATOM     28  C   UNL     1       2.863  13.741  18.288  0.00  0.00    +0.000 A 
ATOM     29  C   UNL     1       1.964  12.707  18.578  0.00  0.00    +0.000 A 
ATOM     30  C   UNL     1       0.648  13.016  18.978  0.00  0.00    +0.000 A 
ATOM     31  H   UNL     1      -1.544  15.251  19.657  0.00  0.00    +0.000 HD
ENDBRANCH  21  22
ENDBRANCH  20  21
ENDBRANCH  18  20
ENDBRANCH   2  16
BRANCH   8  32
ATOM     32  C   UNL     1       3.308   2.525  18.695  0.00  0.00    +0.000 C 
ATOM     33  F   UNL     1       3.727   2.507  19.994  0.00  0.00    +0.000 F 
ATOM     34  F   UNL     1       1.958   2.368  18.746  0.00  0.00    +0.000 F 
ATOM     35  F   UNL     1       3.796   1.381  18.141  0.00  0.00    +0.000 F 
ENDBRANCH   8  32
BRANCH   1  36
ATOM     36  N   UNL     1       1.882   4.878  20.299  0.00  0.00    +0.000 N 
ATOM     37  H   UNL     1       2.237   3.950  20.546  0.00  0.00    +0.000 HD
ATOM     38  H   UNL     1       0.993   5.090  20.739  0.00  0.00    +0.000 HD
ENDBRANCH   1  36
TORSDOF 7
ENDMDL
MODEL 7
REMARK VINA RESULT:      -8.8      3.473      9.629
REMARK  Name = 
REMARK  7 active torsions:
REMARK  status: ('A' for Active; 'I' for Inactive)
REMARK    1  A    between atoms: N_1  and  C_2
REMARK    2  A    between atoms: C_3  and  C_4
REMARK    3  A    between atoms: N_6  and  C_7
REMARK    4  A    between atoms: C_7  and  C_8
REMARK    5  A    between atoms: C_8  and  C_9
REMARK    6  A    between atoms: C_21  and  C_22
REMARK    7  A    between atoms: C_29  and  C_30
REMARK                            x       y       z     vdW  Elec       q    Type
REMARK                         _______ _______ _______ _____ _____    ______ ____
ROOT
ATOM      1  C   UNL     1       1.614   7.752  20.102  0.00  0.00    +0.000 A 
ATOM      2  C   UNL     1       2.200   7.357  18.907  0.00  0.00    +0.000 A 
ATOM      3  S   UNL     1       2.356   8.686  17.835  0.00  0.00    +0.000 S 
ATOM      4  C   UNL     1       1.680   9.766  18.956  0.00  0.00    +0.000 A 
ATOM      5  N   UNL     1       1.558  11.065  18.625  0.00  0.00    +0.000 NA
ATOM      6  C   UNL     1       1.034  11.862  19.571  0.00  0.00    +0.000 A 
ATOM      7  C   UNL     1       0.608  11.379  20.804  0.00  0.00    +0.000 A 
ATOM      8  C   UNL     1       0.740  10.014  21.134  0.00  0.00    +0.000 A 
ATOM      9  C   UNL     1       1.314   9.163  20.154  0.00  0.00    +0.000 A 
ENDROOT
BRANCH   6  10
ATOM     10  C   UNL     1       0.948  13.292  19.222  0.00  0.00    +0.000 A 
ATOM     11  C   UNL     1       2.080  14.047  18.888  0.00  0.00    +0.000 A 
ATOM     12  C   UNL     1       1.962  15.398  18.563  0.00  0.00    +0.000 A 
ATOM     13  C   UNL     1       0.703  15.971  18.582  0.00  0.00    +0.000 A 
ATOM     14  N   UNL     1      -0.418  15.295  18.901  0.00  0.00    +0.000 NA
ATOM     15  C   UNL     1      -0.266  13.985  19.217  0.00  0.00    +0.000 A 
ENDBRANCH   6  10
BRANCH   2  16
ATOM     16  C   UNL     1       2.654   6.025  18.506  0.00  0.00    +0.000 C 
ATOM     17  O   UNL     1       1.890   5.083  18.314  0.00  0.00    +0.000 OA
ATOM     18  N   UNL     1       4.024   5.879  18.387  0.00  0.00    +0.000 N 
ATOM     19  H   UNL     1       4.609   6.667  18.644  0.00  0.00    +0.000 HD
BRANCH  18  20
ATOM     20  C   UNL     1       4.656   4.605  18.102  0.00  0.00    +0.000 C 
BRANCH  20  21
ATOM     21  C   UNL     1       4.570   4.206  16.624  0.00  0.00    +0.000 C 
BRANCH  21  22
ATOM     22  C   UNL     1       5.733   4.675  15.795  0.00  0.00    +0.000 A 
ATOM     23  C   UNL     1       6.762   5.495  16.220  0.00  0.00    +0.000 A 
ATOM     24  N   UNL     1       7.626   5.682  15.177  0.00  0.00    +0.000 N 
ATOM     25  C   UNL     1       7.197   4.991  14.070  0.00  0.00    +0.000 A 
ATOM     26  C   UNL     1       7.764   4.890  12.794  0.00  0.00    +0.000 A 
ATOM     27  C   UNL     1       7.104   4.098  11.851  0.00  0.00    +0.000 A 
ATOM     28  C   UNL     1       5.925   3.431  12.176  0.00  0.00    +0.000 A 
ATOM     29  C   UNL     1       5.371   3.543  13.457  0.00  0.00    +0.000 A 
ATOM     30  C   UNL     1       6.012   4.340  14.429  0.00  0.00    +0.000 A 
ATOM     31  H   UNL     1       8.467   6.243  15.209  0.00  0.00    +0.000 HD
ENDBRANCH  21  22
ENDBRANCH  20  21
ENDBRANCH  18  20
ENDBRANCH   2  16
BRANCH   8  32
ATOM     32  C   UNL     1       0.276   9.548  22.486  0.00  0.00    +0.000 C 
ATOM     33  F   UNL     1      -0.288  10.541  23.232  0.00  0.00    +0.000 F 
ATOM     34  F   UNL     1      -0.663   8.566  22.418  0.00  0.00    +0.000 F 
ATOM     35  F   UNL     1       1.284   9.048  23.251  0.00  0.00    +0.000 F 
ENDBRANCH   8  32
BRANCH   1  36
ATOM     36  N   UNL     1       1.373   6.892  21.114  0.00  0.00    +0.000 N 
ATOM     37  H   UNL     1       1.622   5.902  21.028  0.00  0.00    +0.000 HD
ATOM     38  H   UNL     1       0.849   7.094  21.960  0.00  0.00    +0.000 HD
ENDBRANCH   1  36
TORSDOF 7
ENDMDL
MODEL 8
REMARK VINA RESULT:      -8.8      3.508      9.577
REMARK  Name = 
REMARK  7 active torsions:
REMARK  status: ('A' for Active; 'I' for Inactive)
REMARK    1  A    between atoms: N_1  and  C_2
REMARK    2  A    between atoms: C_3  and  C_4
REMARK    3  A    between atoms: N_6  and  C_7
REMARK    4  A    between atoms: C_7  and  C_8
REMARK    5  A    between atoms: C_8  and  C_9
REMARK    6  A    between atoms: C_21  and  C_22
REMARK    7  A    between atoms: C_29  and  C_30
REMARK                            x       y       z     vdW  Elec       q    Type
REMARK                         _______ _______ _______ _____ _____    ______ ____
ROOT
ATOM      1  C   UNL     1       1.654   7.777  20.030  0.00  0.00    +0.000 A 
ATOM      2  C   UNL     1       2.236   7.399  18.827  0.00  0.00    +0.000 A 
ATOM      3  S   UNL     1       2.379   8.741  17.770  0.00  0.00    +0.000 S 
ATOM      4  C   UNL     1       1.703   9.804  18.907  0.00  0.00    +0.000 A 
ATOM      5  N   UNL     1       1.571  11.106  18.591  0.00  0.00    +0.000 NA
ATOM      6  C   UNL     1       1.047  11.890  19.548  0.00  0.00    +0.000 A 
ATOM      7  C   UNL     1       0.630  11.390  20.777  0.00  0.00    +0.000 A 
ATOM      8  C   UNL     1       0.772  10.023  21.091  0.00  0.00    +0.000 A 
ATOM      9  C   UNL     1       1.346   9.186  20.099  0.00  0.00    +0.000 A 
ENDROOT
BRANCH   6  10
ATOM     10  C   UNL     1       0.950  13.322  19.216  0.00  0.00    +0.000 A 
ATOM     11  C   UNL     1      -0.280  13.990  19.145  0.00  0.00    +0.000 A 
ATOM     12  C   UNL     1      -0.335  15.347  18.827  0.00  0.00    +0.000 A 
ATOM     13  C   UNL     1       0.853  16.013  18.581  0.00  0.00    +0.000 A 
ATOM     14  N   UNL     1       2.062  15.421  18.628  0.00  0.00    +0.000 NA
ATOM     15  C   UNL     1       2.078  14.100  18.936  0.00  0.00    +0.000 A 
ENDBRANCH   6  10
BRANCH   2  16
ATOM     16  C   UNL     1       2.696   6.074  18.410  0.00  0.00    +0.000 C 
ATOM     17  O   UNL     1       1.934   5.172  18.072  0.00  0.00    +0.000 OA
ATOM     18  N   UNL     1       4.066   5.885  18.450  0.00  0.00    +0.000 N 
ATOM     19  H   UNL     1       4.637   6.636  18.821  0.00  0.00    +0.000 HD
BRANCH  18  20
ATOM     20  C   UNL     1       4.689   4.605  18.172  0.00  0.00    +0.000 C 
BRANCH  20  21
ATOM     21  C   UNL     1       4.594   4.196  16.697  0.00  0.00    +0.000 C 
BRANCH  21  22
ATOM     22  C   UNL     1       5.744   4.673  15.855  0.00  0.00    +0.000 A 
ATOM     23  C   UNL     1       6.769   5.505  16.266  0.00  0.00    +0.000 A 
ATOM     24  N   UNL     1       7.620   5.697  15.213  0.00  0.00    +0.000 N 
ATOM     25  C   UNL     1       7.186   4.997  14.114  0.00  0.00    +0.000 A 
ATOM     26  C   UNL     1       7.741   4.897  12.832  0.00  0.00    +0.000 A 
ATOM     27  C   UNL     1       7.080   4.094  11.899  0.00  0.00    +0.000 A 
ATOM     28  C   UNL     1       5.911   3.417  12.239  0.00  0.00    +0.000 A 
ATOM     29  C   UNL     1       5.369   3.529  13.525  0.00  0.00    +0.000 A 
ATOM     30  C   UNL     1       6.012   4.336  14.487  0.00  0.00    +0.000 A 
ATOM     31  H   UNL     1       8.456   6.267  15.234  0.00  0.00    +0.000 HD
ENDBRANCH  21  22
ENDBRANCH  20  21
ENDBRANCH  18  20
ENDBRANCH   2  16
BRANCH   8  32
ATOM     32  C   UNL     1       0.317   9.538  22.440  0.00  0.00    +0.000 C 
ATOM     33  F   UNL     1      -0.616   8.545  22.368  0.00  0.00    +0.000 F 
ATOM     34  F   UNL     1       1.329   9.033  23.195  0.00  0.00    +0.000 F 
ATOM     35  F   UNL     1      -0.256  10.518  23.192  0.00  0.00    +0.000 F 
ENDBRANCH   8  32
BRANCH   1  36
ATOM     36  N   UNL     1       1.423   6.904  21.034  0.00  0.00    +0.000 N 
ATOM     37  H   UNL     1       0.468   6.615  21.265  0.00  0.00    +0.000 HD
ATOM     38  H   UNL     1       2.111   6.559  21.696  0.00  0.00    +0.000 HD
ENDBRANCH   1  36
TORSDOF 7
ENDMDL
MODEL 9
REMARK VINA RESULT:      -8.7      2.076      3.243
REMARK  Name = 
REMARK  7 active torsions:
REMARK  status: ('A' for Active; 'I' for Inactive)
REMARK    1  A    between atoms: N_1  and  C_2
REMARK    2  A    between atoms: C_3  and  C_4
REMARK    3  A    between atoms: N_6  and  C_7
REMARK    4  A    between atoms: C_7  and  C_8
REMARK    5  A    between atoms: C_8  and  C_9
REMARK    6  A    between atoms: C_21  and  C_22
REMARK    7  A    between atoms: C_29  and  C_30
REMARK                            x       y       z     vdW  Elec       q    Type
REMARK                         _______ _______ _______ _____ _____    ______ ____
ROOT
ATOM      1  C   UNL     1       2.552   5.395  19.325  0.00  0.00    +0.000 A 
ATOM      2  C   UNL     1       2.436   6.779  19.332  0.00  0.00    +0.000 A 
ATOM      3  S   UNL     1       3.356   7.476  18.064  0.00  0.00    +0.000 S 
ATOM      4  C   UNL     1       3.873   5.959  17.506  0.00  0.00    +0.000 A 
ATOM      5  N   UNL     1       4.679   5.897  16.429  0.00  0.00    +0.000 NA
ATOM      6  C   UNL     1       5.030   4.661  16.033  0.00  0.00    +0.000 A 
ATOM      7  C   UNL     1       4.622   3.517  16.708  0.00  0.00    +0.000 A 
ATOM      8  C   UNL     1       3.781   3.600  17.837  0.00  0.00    +0.000 A 
ATOM      9  C   UNL     1       3.381   4.896  18.253  0.00  0.00    +0.000 A 
ENDROOT
BRANCH   6  10
ATOM     10  C   UNL     1       5.871   4.596  14.825  0.00  0.00    +0.000 A 
ATOM     11  C   UNL     1       5.550   3.773  13.736  0.00  0.00    +0.000 A 
ATOM     12  C   UNL     1       6.370   3.735  12.608  0.00  0.00    +0.000 A 
ATOM     13  C   UNL     1       7.505   4.526  12.594  0.00  0.00    +0.000 A 
ATOM     14  N   UNL     1       7.865   5.331  13.613  0.00  0.00    +0.000 NA
ATOM     15  C   UNL     1       7.048   5.339  14.696  0.00  0.00    +0.000 A 
ENDBRANCH   6  10
BRANCH   2  16
ATOM     16  C   UNL     1       1.671   7.628  20.246  0.00  0.00    +0.000 C 
ATOM     17  O   UNL     1       1.177   7.217  21.293  0.00  0.00    +0.000 OA
ATOM     18  N   UNL     1       1.507   8.939  19.836  0.00  0.00    +0.000 N 
ATOM     19  H   UNL     1       1.862   9.198  18.922  0.00  0.00    +0.000 HD
BRANCH  18  20
ATOM     20  C   UNL     1       0.690   9.892  20.564  0.00  0.00    +0.000 C 
BRANCH  20  21
ATOM     21  C   UNL     1       0.096  10.985  19.666  0.00  0.00    +0.000 C 
BRANCH  21  22
ATOM     22  C   UNL     1       1.124  11.803  18.937  0.00  0.00    +0.000 A 
ATOM     23  C   UNL     1       2.033  11.334  18.007  0.00  0.00    +0.000 A 
ATOM     24  N   UNL     1       2.788  12.386  17.568  0.00  0.00    +0.000 N 
ATOM     25  C   UNL     1       2.387  13.549  18.180  0.00  0.00    +0.000 A 
ATOM     26  C   UNL     1       2.867  14.857  18.034  0.00  0.00    +0.000 A 
ATOM     27  C   UNL     1       2.256  15.861  18.789  0.00  0.00    +0.000 A 
ATOM     28  C   UNL     1       1.204  15.567  19.652  0.00  0.00    +0.000 A 
ATOM     29  C   UNL     1       0.736  14.253  19.787  0.00  0.00    +0.000 A 
ATOM     30  C   UNL     1       1.337  13.217  19.042  0.00  0.00    +0.000 A 
ATOM     31  H   UNL     1       3.532  12.327  16.886  0.00  0.00    +0.000 HD
ENDBRANCH  21  22
ENDBRANCH  20  21
ENDBRANCH  18  20
ENDBRANCH   2  16
BRANCH   8  32
ATOM     32  C   UNL     1       3.358   2.329  18.521  0.00  0.00    +0.000 C 
ATOM     33  F   UNL     1       3.732   2.275  19.832  0.00  0.00    +0.000 F 
ATOM     34  F   UNL     1       2.011   2.144  18.519  0.00  0.00    +0.000 F 
ATOM     35  F   UNL     1       3.889   1.214  17.948  0.00  0.00    +0.000 F 
ENDBRANCH   8  32
BRANCH   1  36
ATOM     36  N   UNL     1       1.930   4.607  20.227  0.00  0.00    +0.000 N 
ATOM     37  H   UNL     1       1.870   3.595  20.082  0.00  0.00    +0.000 HD
ATOM     38  H   UNL     1       1.389   4.923  21.025  0.00  0.00    +0.000 HD
ENDBRANCH   1  36
TORSDOF 7
ENDMDL
