MODEL 1
REMARK VINA RESULT:      -6.7      0.000      0.000
REMARK  Name = 
REMARK  6 active torsions:
REMARK  status: ('A' for Active; 'I' for Inactive)
REMARK    1  A    between atoms: C_1  and  C_2
REMARK    2  A    between atoms: C_2  and  C_3
REMARK    3  A    between atoms: C_3  and  C_4
REMARK    4  A    between atoms: C_3  and  N_5
REMARK    5  A    between atoms: C_10  and  C_11
REMARK    6  A    between atoms: N_16  and  C_17
REMARK                            x       y       z     vdW  Elec       q    Type
REMARK                         _______ _______ _______ _____ _____    ______ ____
ROOT
ATOM      1  C   UNL     1       3.385   4.537  18.054  0.00  0.00    +0.000 C 
ATOM      2  O   UNL     1       3.293   3.483  18.687  0.00  0.00    +0.000 OA
ATOM      3  N   UNL     1       2.632   5.652  18.398  0.00  0.00    +0.000 N 
ATOM      4  C   UNL     1       1.924   5.713  19.688  0.00  0.00    +0.000 C 
ATOM      5  C   UNL     1       2.160   7.062  20.412  0.00  0.00    +0.000 C 
ATOM      6  N   UNL     1       2.035   8.231  19.514  0.00  0.00    +0.000 N 
ATOM      7  C   UNL     1       2.695   8.119  18.202  0.00  0.00    +0.000 C 
ATOM      8  C   UNL     1       2.336   6.787  17.525  0.00  0.00    +0.000 C 
ENDROOT
BRANCH   6   9
ATOM      9  C   UNL     1       1.042   9.192  19.662  0.00  0.00    +0.000 A 
ATOM     10  C   UNL     1       0.500   9.811  18.516  0.00  0.00    +0.000 A 
ATOM     11  C   UNL     1      -0.531  10.754  18.594  0.00  0.00    +0.000 A 
ATOM     12  C   UNL     1      -1.045  11.118  19.833  0.00  0.00    +0.000 A 
ATOM     13  C   UNL     1      -0.516  10.547  20.986  0.00  0.00    +0.000 A 
ATOM     14  C   UNL     1       0.514   9.605  20.897  0.00  0.00    +0.000 A 
ATOM     15  F   UNL     1       0.950   9.056  22.042  0.00  0.00    +0.000 F 
ENDBRANCH   6   9
BRANCH   1  21
ATOM     16  N   UNL     1       5.775   4.955  17.248  0.00  0.00    +0.000 N 
ATOM     17  C   UNL     1       6.655   4.429  16.309  0.00  0.00    +0.000 C 
ATOM     18  O   UNL     1       7.852   4.653  16.203  0.00  0.00    +0.000 OA
ATOM     19  C   UNL     1       5.866   3.586  15.345  0.00  0.00    +0.000 C 
ATOM     20  C   UNL     1       4.518   3.422  16.040  0.00  0.00    +0.000 C 
ATOM     21  C   UNL     1       4.388   4.690  16.876  0.00  0.00    +0.000 C 
BRANCH  16  22
ATOM     22  C   UNL     1       6.138   6.016  18.193  0.00  0.00    +0.000 C 
ATOM     23  C   UNL     1       6.992   7.085  17.506  0.00  0.00    +0.000 C 
BRANCH  22  25
ATOM     24  C   UNL     1       8.322   5.839  19.506  0.00  0.00    +0.000 C 
ATOM     25  C   UNL     1       6.843   5.474  19.451  0.00  0.00    +0.000 C 
ENDBRANCH  22  25
ENDBRANCH  16  22
ENDBRANCH   1  21
TORSDOF 4
ENDMDL
MODEL 2
REMARK VINA RESULT:      -6.5      4.032      7.741
REMARK  Name = 
REMARK  6 active torsions:
REMARK  status: ('A' for Active; 'I' for Inactive)
REMARK    1  A    between atoms: C_1  and  C_2
REMARK    2  A    between atoms: C_2  and  C_3
REMARK    3  A    between atoms: C_3  and  C_4
REMARK    4  A    between atoms: C_3  and  N_5
REMARK    5  A    between atoms: C_10  and  C_11
REMARK    6  A    between atoms: N_16  and  C_17
REMARK                            x       y       z     vdW  Elec       q    Type
REMARK                         _______ _______ _______ _____ _____    ______ ____
ROOT
ATOM      1  C   UNL     1       4.772   5.108  19.125  0.00  0.00    +0.000 C 
ATOM      2  O   UNL     1       5.501   5.307  20.098  0.00  0.00    +0.000 OA
ATOM      3  N   UNL     1       5.281   5.100  17.833  0.00  0.00    +0.000 N 
ATOM      4  C   UNL     1       6.733   5.036  17.597  0.00  0.00    +0.000 C 
ATOM      5  C   UNL     1       7.097   3.975  16.528  0.00  0.00    +0.000 C 
ATOM      6  N   UNL     1       6.219   4.026  15.339  0.00  0.00    +0.000 N 
ATOM      7  C   UNL     1       4.775   4.157  15.601  0.00  0.00    +0.000 C 
ATOM      8  C   UNL     1       4.506   5.287  16.607  0.00  0.00    +0.000 C 
ENDROOT
BRANCH   6   9
ATOM      9  C   UNL     1       6.683   4.359  14.072  0.00  0.00    +0.000 A 
ATOM     10  C   UNL     1       7.609   5.413  13.929  0.00  0.00    +0.000 A 
ATOM     11  C   UNL     1       8.148   5.770  12.687  0.00  0.00    +0.000 A 
ATOM     12  C   UNL     1       7.761   5.084  11.542  0.00  0.00    +0.000 A 
ATOM     13  C   UNL     1       6.830   4.056  11.643  0.00  0.00    +0.000 A 
ATOM     14  C   UNL     1       6.298   3.707  12.888  0.00  0.00    +0.000 A 
ATOM     15  F   UNL     1       5.439   2.676  12.927  0.00  0.00    +0.000 F 
ENDBRANCH   6   9
BRANCH   1  21
ATOM     16  N   UNL     1       2.932   3.593  20.048  0.00  0.00    +0.000 N 
ATOM     17  C   UNL     1       1.720   3.729  20.716  0.00  0.00    +0.000 C 
ATOM     18  O   UNL     1       1.061   2.849  21.250  0.00  0.00    +0.000 OA
ATOM     19  C   UNL     1       1.274   5.161  20.594  0.00  0.00    +0.000 C 
ATOM     20  C   UNL     1       2.520   5.878  20.086  0.00  0.00    +0.000 C 
ATOM     21  C   UNL     1       3.257   4.802  19.297  0.00  0.00    +0.000 C 
BRANCH  16  22
ATOM     22  C   UNL     1       3.547   2.297  19.743  0.00  0.00    +0.000 C 
ATOM     23  C   UNL     1       4.911   2.171  20.427  0.00  0.00    +0.000 C 
BRANCH  22  25
ATOM     24  C   UNL     1       2.341   2.210  17.493  0.00  0.00    +0.000 C 
ATOM     25  C   UNL     1       3.665   2.038  18.229  0.00  0.00    +0.000 C 
ENDBRANCH  22  25
ENDBRANCH  16  22
ENDBRANCH   1  21
TORSDOF 4
ENDMDL
MODEL 3
REMARK VINA RESULT:      -6.5      0.940      1.338
REMARK  Name = 
REMARK  6 active torsions:
REMARK  status: ('A' for Active; 'I' for Inactive)
REMARK    1  A    between atoms: C_1  and  C_2
REMARK    2  A    between atoms: C_2  and  C_3
REMARK    3  A    between atoms: C_3  and  C_4
REMARK    4  A    between atoms: C_3  and  N_5
REMARK    5  A    between atoms: C_10  and  C_11
REMARK    6  A    between atoms: N_16  and  C_17
REMARK                            x       y       z     vdW  Elec       q    Type
REMARK                         _______ _______ _______ _____ _____    ______ ____
ROOT
ATOM      1  C   UNL     1       3.370   4.535  18.043  0.00  0.00    +0.000 C 
ATOM      2  O   UNL     1       3.281   3.466  18.649  0.00  0.00    +0.000 OA
ATOM      3  N   UNL     1       2.622   5.642  18.420  0.00  0.00    +0.000 N 
ATOM      4  C   UNL     1       1.924   5.672  19.717  0.00  0.00    +0.000 C 
ATOM      5  C   UNL     1       2.168   7.002  20.472  0.00  0.00    +0.000 C 
ATOM      6  N   UNL     1       2.037   8.193  19.606  0.00  0.00    +0.000 N 
ATOM      7  C   UNL     1       2.688   8.113  18.286  0.00  0.00    +0.000 C 
ATOM      8  C   UNL     1       2.321   6.800  17.578  0.00  0.00    +0.000 C 
ENDROOT
BRANCH   6   9
ATOM      9  C   UNL     1       1.047   9.152  19.786  0.00  0.00    +0.000 A 
ATOM     10  C   UNL     1       0.710   9.563  21.092  0.00  0.00    +0.000 A 
ATOM     11  C   UNL     1      -0.247  10.554  21.339  0.00  0.00    +0.000 A 
ATOM     12  C   UNL     1      -0.909  11.158  20.277  0.00  0.00    +0.000 A 
ATOM     13  C   UNL     1      -0.620  10.759  18.976  0.00  0.00    +0.000 A 
ATOM     14  C   UNL     1       0.338   9.768  18.740  0.00  0.00    +0.000 A 
ATOM     15  F   UNL     1       0.606   9.458  17.461  0.00  0.00    +0.000 F 
ENDBRANCH   6   9
BRANCH   1  21
ATOM     16  N   UNL     1       5.752   4.982  17.229  0.00  0.00    +0.000 N 
ATOM     17  C   UNL     1       6.629   4.478  16.274  0.00  0.00    +0.000 C 
ATOM     18  O   UNL     1       7.824   4.711  16.164  0.00  0.00    +0.000 OA
ATOM     19  C   UNL     1       5.837   3.650  15.299  0.00  0.00    +0.000 C 
ATOM     20  C   UNL     1       4.495   3.466  15.999  0.00  0.00    +0.000 C 
ATOM     21  C   UNL     1       4.364   4.716  16.861  0.00  0.00    +0.000 C 
BRANCH  16  22
ATOM     22  C   UNL     1       6.116   6.026  18.192  0.00  0.00    +0.000 C 
ATOM     23  C   UNL     1       7.005   7.084  17.533  0.00  0.00    +0.000 C 
BRANCH  22  25
ATOM     24  C   UNL     1       8.270   5.786  19.544  0.00  0.00    +0.000 C 
ATOM     25  C   UNL     1       6.784   5.457  19.459  0.00  0.00    +0.000 C 
ENDBRANCH  22  25
ENDBRANCH  16  22
ENDBRANCH   1  21
TORSDOF 4
ENDMDL
MODEL 4
REMARK VINA RESULT:      -6.5      4.057      7.701
REMARK  Name = 
REMARK  6 active torsions:
REMARK  status: ('A' for Active; 'I' for Inactive)
REMARK    1  A    between atoms: C_1  and  C_2
REMARK    2  A    between atoms: C_2  and  C_3
REMARK    3  A    between atoms: C_3  and  C_4
REMARK    4  A    between atoms: C_3  and  N_5
REMARK    5  A    between atoms: C_10  and  C_11
REMARK    6  A    between atoms: N_16  and  C_17
REMARK                            x       y       z     vdW  Elec       q    Type
REMARK                         _______ _______ _______ _____ _____    ______ ____
ROOT
ATOM      1  C   UNL     1       4.889   5.401  18.998  0.00  0.00    +0.000 C 
ATOM      2  O   UNL     1       5.622   5.584  19.972  0.00  0.00    +0.000 OA
ATOM      3  N   UNL     1       5.403   5.347  17.709  0.00  0.00    +0.000 N 
ATOM      4  C   UNL     1       6.852   5.213  17.482  0.00  0.00    +0.000 C 
ATOM      5  C   UNL     1       7.172   4.118  16.434  0.00  0.00    +0.000 C 
ATOM      6  N   UNL     1       6.303   4.188  15.239  0.00  0.00    +0.000 N 
ATOM      7  C   UNL     1       4.866   4.390  15.490  0.00  0.00    +0.000 C 
ATOM      8  C   UNL     1       4.643   5.548  16.475  0.00  0.00    +0.000 C 
ENDROOT
BRANCH   6   9
ATOM      9  C   UNL     1       6.789   4.477  13.970  0.00  0.00    +0.000 A 
ATOM     10  C   UNL     1       7.721   5.523  13.806  0.00  0.00    +0.000 A 
ATOM     11  C   UNL     1       8.280   5.837  12.562  0.00  0.00    +0.000 A 
ATOM     12  C   UNL     1       7.910   5.115  11.434  0.00  0.00    +0.000 A 
ATOM     13  C   UNL     1       6.972   4.094  11.554  0.00  0.00    +0.000 A 
ATOM     14  C   UNL     1       6.420   3.788  12.802  0.00  0.00    +0.000 A 
ATOM     15  F   UNL     1       5.556   2.762  12.861  0.00  0.00    +0.000 F 
ENDBRANCH   6   9
BRANCH   1  21
ATOM     16  N   UNL     1       2.948   3.786  19.392  0.00  0.00    +0.000 N 
ATOM     17  C   UNL     1       1.792   3.728  20.164  0.00  0.00    +0.000 C 
ATOM     18  O   UNL     1       1.072   2.759  20.354  0.00  0.00    +0.000 OA
ATOM     19  C   UNL     1       1.495   5.114  20.670  0.00  0.00    +0.000 C 
ATOM     20  C   UNL     1       2.783   5.879  20.384  0.00  0.00    +0.000 C 
ATOM     21  C   UNL     1       3.361   5.168  19.166  0.00  0.00    +0.000 C 
BRANCH  16  22
ATOM     22  C   UNL     1       3.406   2.686  18.537  0.00  0.00    +0.000 C 
ATOM     23  C   UNL     1       2.329   2.309  17.517  0.00  0.00    +0.000 C 
BRANCH  22  25
ATOM     24  C   UNL     1       4.807   1.804  20.482  0.00  0.00    +0.000 C 
ATOM     25  C   UNL     1       3.854   1.453  19.346  0.00  0.00    +0.000 C 
ENDBRANCH  22  25
ENDBRANCH  16  22
ENDBRANCH   1  21
TORSDOF 4
ENDMDL
MODEL 5
REMARK VINA RESULT:      -6.3      1.895      3.094
REMARK  Name = 
REMARK  6 active torsions:
REMARK  status: ('A' for Active; 'I' for Inactive)
REMARK    1  A    between atoms: C_1  and  C_2
REMARK    2  A    between atoms: C_2  and  C_3
REMARK    3  A    between atoms: C_3  and  C_4
REMARK    4  A    between atoms: C_3  and  N_5
REMARK    5  A    between atoms: C_10  and  C_11
REMARK    6  A    between atoms: N_16  and  C_17
REMARK                            x       y       z     vdW  Elec       q    Type
REMARK                         _______ _______ _______ _____ _____    ______ ____
ROOT
ATOM      1  C   UNL     1       3.142   5.505  19.719  0.00  0.00    +0.000 C 
ATOM      2  O   UNL     1       2.963   4.837  20.739  0.00  0.00    +0.000 OA
ATOM      3  N   UNL     1       2.332   6.591  19.417  0.00  0.00    +0.000 N 
ATOM      4  C   UNL     1       1.427   7.160  20.430  0.00  0.00    +0.000 C 
ATOM      5  C   UNL     1       1.530   8.704  20.494  0.00  0.00    +0.000 C 
ATOM      6  N   UNL     1       1.536   9.340  19.158  0.00  0.00    +0.000 N 
ATOM      7  C   UNL     1       2.398   8.712  18.142  0.00  0.00    +0.000 C 
ATOM      8  C   UNL     1       2.166   7.194  18.094  0.00  0.00    +0.000 C 
ENDROOT
BRANCH   6   9
ATOM      9  C   UNL     1       0.522  10.182  18.720  0.00  0.00    +0.000 A 
ATOM     10  C   UNL     1      -0.554   9.646  17.982  0.00  0.00    +0.000 A 
ATOM     11  C   UNL     1      -1.628  10.433  17.549  0.00  0.00    +0.000 A 
ATOM     12  C   UNL     1      -1.649  11.793  17.833  0.00  0.00    +0.000 A 
ATOM     13  C   UNL     1      -0.591  12.361  18.536  0.00  0.00    +0.000 A 
ATOM     14  C   UNL     1       0.477  11.565  18.964  0.00  0.00    +0.000 A 
ATOM     15  F   UNL     1       1.445  12.163  19.678  0.00  0.00    +0.000 F 
ENDBRANCH   6   9
BRANCH   1  21
ATOM     16  N   UNL     1       3.949   4.612  17.464  0.00  0.00    +0.000 N 
ATOM     17  C   UNL     1       4.845   4.981  16.467  0.00  0.00    +0.000 C 
ATOM     18  O   UNL     1       4.952   4.503  15.347  0.00  0.00    +0.000 OA
ATOM     19  C   UNL     1       5.764   6.033  17.027  0.00  0.00    +0.000 C 
ATOM     20  C   UNL     1       5.074   6.453  18.321  0.00  0.00    +0.000 C 
ATOM     21  C   UNL     1       4.318   5.201  18.748  0.00  0.00    +0.000 C 
BRANCH  16  22
ATOM     22  C   UNL     1       3.066   3.444  17.367  0.00  0.00    +0.000 C 
ATOM     23  C   UNL     1       1.599   3.864  17.480  0.00  0.00    +0.000 C 
BRANCH  22  25
ATOM     24  C   UNL     1       2.193   1.884  19.191  0.00  0.00    +0.000 C 
ATOM     25  C   UNL     1       3.408   2.355  18.402  0.00  0.00    +0.000 C 
ENDBRANCH  22  25
ENDBRANCH  16  22
ENDBRANCH   1  21
TORSDOF 4
ENDMDL
MODEL 6
REMARK VINA RESULT:      -6.2      4.260      8.280
REMARK  Name = 
REMARK  6 active torsions:
REMARK  status: ('A' for Active; 'I' for Inactive)
REMARK    1  A    between atoms: C_1  and  C_2
REMARK    2  A    between atoms: C_2  and  C_3
REMARK    3  A    between atoms: C_3  and  C_4
REMARK    4  A    between atoms: C_3  and  N_5
REMARK    5  A    between atoms: C_10  and  C_11
REMARK    6  A    between atoms: N_16  and  C_17
REMARK                            x       y       z     vdW  Elec       q    Type
REMARK                         _______ _______ _______ _____ _____    ______ ____
ROOT
ATOM      1  C   UNL     1       0.651  11.253  19.488  0.00  0.00    +0.000 C 
ATOM      2  O   UNL     1       0.539  11.914  18.454  0.00  0.00    +0.000 OA
ATOM      3  N   UNL     1       0.845   9.878  19.448  0.00  0.00    +0.000 N 
ATOM      4  C   UNL     1       1.213   9.207  18.189  0.00  0.00    +0.000 C 
ATOM      5  C   UNL     1       2.391   8.222  18.385  0.00  0.00    +0.000 C 
ATOM      6  N   UNL     1       2.244   7.373  19.587  0.00  0.00    +0.000 N 
ATOM      7  C   UNL     1       1.810   8.057  20.818  0.00  0.00    +0.000 C 
ATOM      8  C   UNL     1       0.587   8.945  20.544  0.00  0.00    +0.000 C 
ENDROOT
BRANCH   6   9
ATOM      9  C   UNL     1       2.093   5.993  19.522  0.00  0.00    +0.000 A 
ATOM     10  C   UNL     1       1.418   5.320  20.562  0.00  0.00    +0.000 A 
ATOM     11  C   UNL     1       1.195   3.939  20.536  0.00  0.00    +0.000 A 
ATOM     12  C   UNL     1       1.657   3.183  19.465  0.00  0.00    +0.000 A 
ATOM     13  C   UNL     1       2.350   3.810  18.434  0.00  0.00    +0.000 A 
ATOM     14  C   UNL     1       2.567   5.191  18.470  0.00  0.00    +0.000 A 
ATOM     15  F   UNL     1       3.201   5.745  17.424  0.00  0.00    +0.000 F 
ENDBRANCH   6   9
BRANCH   1  21
ATOM     16  N   UNL     1       1.174  13.287  20.946  0.00  0.00    +0.000 N 
ATOM     17  C   UNL     1       0.554  14.029  21.944  0.00  0.00    +0.000 C 
ATOM     18  O   UNL     1       0.904  15.109  22.396  0.00  0.00    +0.000 OA
ATOM     19  C   UNL     1      -0.605  13.228  22.475  0.00  0.00    +0.000 C 
ATOM     20  C   UNL     1      -0.770  12.119  21.442  0.00  0.00    +0.000 C 
ATOM     21  C   UNL     1       0.637  11.930  20.888  0.00  0.00    +0.000 C 
BRANCH  16  22
ATOM     22  C   UNL     1       2.478  13.634  20.371  0.00  0.00    +0.000 C 
ATOM     23  C   UNL     1       3.504  13.898  21.476  0.00  0.00    +0.000 C 
BRANCH  22  25
ATOM     24  C   UNL     1       3.032  14.527  18.043  0.00  0.00    +0.000 C 
ATOM     25  C   UNL     1       2.399  14.825  19.397  0.00  0.00    +0.000 C 
ENDBRANCH  22  25
ENDBRANCH  16  22
ENDBRANCH   1  21
TORSDOF 4
ENDMDL
MODEL 7
REMARK VINA RESULT:      -6.1      0.664      1.056
REMARK  Name = 
REMARK  6 active torsions:
REMARK  status: ('A' for Active; 'I' for Inactive)
REMARK    1  A    between atoms: C_1  and  C_2
REMARK    2  A    between atoms: C_2  and  C_3
REMARK    3  A    between atoms: C_3  and  C_4
REMARK    4  A    between atoms: C_3  and  N_5
REMARK    5  A    between atoms: C_10  and  C_11
REMARK    6  A    between atoms: N_16  and  C_17
REMARK                            x       y       z     vdW  Elec       q    Type
REMARK                         _______ _______ _______ _____ _____    ______ ____
ROOT
ATOM      1  C   UNL     1       3.651   4.868  17.865  0.00  0.00    +0.000 C 
ATOM      2  O   UNL     1       3.652   3.829  18.527  0.00  0.00    +0.000 OA
ATOM      3  N   UNL     1       2.823   5.933  18.196  0.00  0.00    +0.000 N 
ATOM      4  C   UNL     1       2.141   5.977  19.501  0.00  0.00    +0.000 C 
ATOM      5  C   UNL     1       2.290   7.360  20.182  0.00  0.00    +0.000 C 
ATOM      6  N   UNL     1       2.057   8.491  19.257  0.00  0.00    +0.000 N 
ATOM      7  C   UNL     1       2.696   8.391  17.933  0.00  0.00    +0.000 C 
ATOM      8  C   UNL     1       2.424   7.018  17.300  0.00  0.00    +0.000 C 
ENDROOT
BRANCH   6   9
ATOM      9  C   UNL     1       0.998   9.378  19.403  0.00  0.00    +0.000 A 
ATOM     10  C   UNL     1       0.223   9.723  18.276  0.00  0.00    +0.000 A 
ATOM     11  C   UNL     1      -0.883  10.577  18.363  0.00  0.00    +0.000 A 
ATOM     12  C   UNL     1      -1.239  11.126  19.590  0.00  0.00    +0.000 A 
ATOM     13  C   UNL     1      -0.480  10.828  20.718  0.00  0.00    +0.000 A 
ATOM     14  C   UNL     1       0.622   9.973  20.619  0.00  0.00    +0.000 A 
ATOM     15  F   UNL     1       1.286   9.688  21.751  0.00  0.00    +0.000 F 
ENDBRANCH   6   9
BRANCH   1  21
ATOM     16  N   UNL     1       6.039   5.029  16.969  0.00  0.00    +0.000 N 
ATOM     17  C   UNL     1       6.775   4.541  15.895  0.00  0.00    +0.000 C 
ATOM     18  O   UNL     1       7.987   4.583  15.742  0.00  0.00    +0.000 OA
ATOM     19  C   UNL     1       5.812   4.021  14.863  0.00  0.00    +0.000 C 
ATOM     20  C   UNL     1       4.487   3.958  15.616  0.00  0.00    +0.000 C 
ATOM     21  C   UNL     1       4.613   5.062  16.659  0.00  0.00    +0.000 C 
BRANCH  16  22
ATOM     22  C   UNL     1       6.620   5.833  18.050  0.00  0.00    +0.000 C 
ATOM     23  C   UNL     1       6.090   5.376  19.411  0.00  0.00    +0.000 C 
BRANCH  22  25
ATOM     24  C   UNL     1       7.681   8.101  17.542  0.00  0.00    +0.000 C 
ATOM     25  C   UNL     1       6.395   7.345  17.851  0.00  0.00    +0.000 C 
ENDBRANCH  22  25
ENDBRANCH  16  22
ENDBRANCH   1  21
TORSDOF 4
ENDMDL
MODEL 8
REMARK VINA RESULT:      -6.0      8.329      9.859
REMARK  Name = 
REMARK  6 active torsions:
REMARK  status: ('A' for Active; 'I' for Inactive)
REMARK    1  A    between atoms: C_1  and  C_2
REMARK    2  A    between atoms: C_2  and  C_3
REMARK    3  A    between atoms: C_3  and  C_4
REMARK    4  A    between atoms: C_3  and  N_5
REMARK    5  A    between atoms: C_10  and  C_11
REMARK    6  A    between atoms: N_16  and  C_17
REMARK                            x       y       z     vdW  Elec       q    Type
REMARK                         _______ _______ _______ _____ _____    ______ ____
ROOT
ATOM      1  C   UNL     1       7.905  14.729  20.088  0.00  0.00    +0.000 C 
ATOM      2  O   UNL     1       6.914  15.041  19.426  0.00  0.00    +0.000 OA
ATOM      3  N   UNL     1       7.796  14.381  21.428  0.00  0.00    +0.000 N 
ATOM      4  C   UNL     1       6.482  14.092  22.026  0.00  0.00    +0.000 C 
ATOM      5  C   UNL     1       6.504  12.791  22.865  0.00  0.00    +0.000 C 
ATOM      6  N   UNL     1       7.686  12.691  23.749  0.00  0.00    +0.000 N 
ATOM      7  C   UNL     1       8.982  13.051  23.146  0.00  0.00    +0.000 C 
ATOM      8  C   UNL     1       8.883  14.394  22.407  0.00  0.00    +0.000 C 
ENDROOT
BRANCH   6   9
ATOM      9  C   UNL     1       7.593  12.686  25.135  0.00  0.00    +0.000 A 
ATOM     10  C   UNL     1       8.270  13.675  25.879  0.00  0.00    +0.000 A 
ATOM     11  C   UNL     1       8.182  13.751  27.274  0.00  0.00    +0.000 A 
ATOM     12  C   UNL     1       7.418  12.823  27.971  0.00  0.00    +0.000 A 
ATOM     13  C   UNL     1       6.758  11.817  27.272  0.00  0.00    +0.000 A 
ATOM     14  C   UNL     1       6.853  11.751  25.878  0.00  0.00    +0.000 A 
ATOM     15  F   UNL     1       6.156  10.785  25.257  0.00  0.00    +0.000 F 
ENDBRANCH   6   9
BRANCH   1  21
ATOM     16  N   UNL     1       9.622  13.427  18.712  0.00  0.00    +0.000 N 
ATOM     17  C   UNL     1      10.512  13.671  17.672  0.00  0.00    +0.000 C 
ATOM     18  O   UNL     1      11.129  12.849  17.011  0.00  0.00    +0.000 OA
ATOM     19  C   UNL     1      10.685  15.161  17.542  0.00  0.00    +0.000 C 
ATOM     20  C   UNL     1       9.546  15.724  18.385  0.00  0.00    +0.000 C 
ATOM     21  C   UNL     1       9.319  14.653  19.445  0.00  0.00    +0.000 C 
BRANCH  16  22
ATOM     22  C   UNL     1       9.399  12.098  19.291  0.00  0.00    +0.000 C 
ATOM     23  C   UNL     1      10.610  11.657  20.117  0.00  0.00    +0.000 C 
BRANCH  22  25
ATOM     24  C   UNL     1       8.902   9.639  18.811  0.00  0.00    +0.000 C 
ATOM     25  C   UNL     1       9.042  11.041  18.229  0.00  0.00    +0.000 C 
ENDBRANCH  22  25
ENDBRANCH  16  22
ENDBRANCH   1  21
TORSDOF 4
ENDMDL
MODEL 9
REMARK VINA RESULT:      -5.8      8.794     10.323
REMARK  Name = 
REMARK  6 active torsions:
REMARK  status: ('A' for Active; 'I' for Inactive)
REMARK    1  A    between atoms: C_1  and  C_2
REMARK    2  A    between atoms: C_2  and  C_3
REMARK    3  A    between atoms: C_3  and  C_4
REMARK    4  A    between atoms: C_3  and  N_5
REMARK    5  A    between atoms: C_10  and  C_11
REMARK    6  A    between atoms: N_16  and  C_17
REMARK                            x       y       z     vdW  Elec       q    Type
REMARK                         _______ _______ _______ _____ _____    ______ ____
ROOT
ATOM      1  C   UNL     1       8.486  15.463  19.426  0.00  0.00    +0.000 C 
ATOM      2  O   UNL     1       7.534  15.846  18.744  0.00  0.00    +0.000 OA
ATOM      3  N   UNL     1       8.324  15.126  20.764  0.00  0.00    +0.000 N 
ATOM      4  C   UNL     1       6.980  14.932  21.333  0.00  0.00    +0.000 C 
ATOM      5  C   UNL     1       6.891  13.633  22.172  0.00  0.00    +0.000 C 
ATOM      6  N   UNL     1       8.045  13.449  23.080  0.00  0.00    +0.000 N 
ATOM      7  C   UNL     1       9.375  13.714  22.505  0.00  0.00    +0.000 C 
ATOM      8  C   UNL     1       9.388  15.061  21.765  0.00  0.00    +0.000 C 
ENDROOT
BRANCH   6   9
ATOM      9  C   UNL     1       7.922  13.451  24.464  0.00  0.00    +0.000 A 
ATOM     10  C   UNL     1       8.141  14.648  25.177  0.00  0.00    +0.000 A 
ATOM     11  C   UNL     1       7.992  14.727  26.566  0.00  0.00    +0.000 A 
ATOM     12  C   UNL     1       7.629  13.597  27.290  0.00  0.00    +0.000 A 
ATOM     13  C   UNL     1       7.431  12.393  26.622  0.00  0.00    +0.000 A 
ATOM     14  C   UNL     1       7.582  12.325  25.233  0.00  0.00    +0.000 A 
ATOM     15  F   UNL     1       7.332  11.146  24.641  0.00  0.00    +0.000 F 
ENDBRANCH   6   9
BRANCH   1  21
ATOM     16  N   UNL     1      10.181  13.985  18.213  0.00  0.00    +0.000 N 
ATOM     17  C   UNL     1      11.088  14.099  17.165  0.00  0.00    +0.000 C 
ATOM     18  O   UNL     1      11.690  13.198  16.599  0.00  0.00    +0.000 OA
ATOM     19  C   UNL     1      11.303  15.562  16.886  0.00  0.00    +0.000 C 
ATOM     20  C   UNL     1      10.171  16.238  17.652  0.00  0.00    +0.000 C 
ATOM     21  C   UNL     1       9.904  15.286  18.813  0.00  0.00    +0.000 C 
BRANCH  16  22
ATOM     22  C   UNL     1       9.916  12.728  18.921  0.00  0.00    +0.000 C 
ATOM     23  C   UNL     1      11.192  12.200  19.583  0.00  0.00    +0.000 C 
BRANCH  22  25
ATOM     24  C   UNL     1       9.100  10.316  18.714  0.00  0.00    +0.000 C 
ATOM     25  C   UNL     1       9.284  11.657  18.012  0.00  0.00    +0.000 C 
ENDBRANCH  22  25
ENDBRANCH  16  22
ENDBRANCH   1  21
TORSDOF 4
ENDMDL
