MODEL 1
REMARK VINA RESULT:      -8.2      0.000      0.000
REMARK  Name = 
REMARK  9 active torsions:
REMARK  status: ('A' for Active; 'I' for Inactive)
REMARK    1  A    between atoms: C_1  and  O_2
REMARK    2  A    between atoms: O_2  and  C_3
REMARK    3  A    between atoms: C_6  and  C_7
REMARK    4  A    between atoms: C_9  and  C_10
REMARK    5  A    between atoms: C_10  and  N_11
REMARK    6  A    between atoms: N_11  and  C_12
REMARK    7  A    between atoms: C_12  and  C_13
REMARK    8  A    between atoms: C_19  and  C_20
REMARK    9  A    between atoms: C_22  and  C_23
REMARK                            x       y       z     vdW  Elec       q    Type
REMARK                         _______ _______ _______ _____ _____    ______ ____
ROOT
ATOM      1  C   UNL     1       3.081   6.621  18.075  0.00  0.00    +0.000 C 
ENDROOT
BRANCH   1   2
ATOM      2  C   UNL     1       2.293   7.687  18.797  0.00  0.00    +0.000 A 
ATOM      3  C   UNL     1       1.853   8.848  18.156  0.00  0.00    +0.000 A 
ATOM      4  C   UNL     1       1.092   9.787  18.857  0.00  0.00    +0.000 A 
ATOM      5  C   UNL     1       0.792   9.552  20.199  0.00  0.00    +0.000 A 
ATOM      6  N   UNL     1      -0.062  10.475  20.895  0.00  0.00    +0.000 N 
ATOM      7  N   UNL     1      -0.650  11.518  20.234  0.00  0.00    +0.000 NA
ATOM      8  C   UNL     1      -1.474  12.077  21.123  0.00  0.00    +0.000 A 
ATOM      9  C   UNL     1      -2.352  13.209  20.735  0.00  0.00    +0.000 C 
ATOM     10  C   UNL     1      -1.375  11.465  22.384  0.00  0.00    +0.000 A 
ATOM     11  C   UNL     1      -0.448  10.456  22.232  0.00  0.00    +0.000 A 
ATOM     12  C   UNL     1       0.070   9.501  23.243  0.00  0.00    +0.000 C 
ATOM     13  N   UNL     1       1.246   8.451  20.854  0.00  0.00    +0.000 NA
ATOM     14  C   UNL     1       1.968   7.554  20.142  0.00  0.00    +0.000 A 
ENDBRANCH   1   2
BRANCH   1  15
ATOM     15  N   UNL     1       3.596   5.621  19.008  0.00  0.00    +0.000 NA
ATOM     16  H   UNL     1       4.489   5.928  19.391  0.00  0.00    +0.000 HD
BRANCH  15  17
ATOM     17  C   UNL     1       3.817   4.318  18.368  0.00  0.00    +0.000 C 
BRANCH  17  24
ATOM     18  C   UNL     1       6.322   4.660  17.904  0.00  0.00    +0.000 A 
ATOM     19  C   UNL     1       7.388   4.655  16.995  0.00  0.00    +0.000 A 
ATOM     20  C   UNL     1       7.172   4.420  15.635  0.00  0.00    +0.000 A 
ATOM     21  C   UNL     1       5.884   4.183  15.157  0.00  0.00    +0.000 A 
ATOM     22  C   UNL     1       5.632   3.941  13.700  0.00  0.00    +0.000 C 
ATOM     23  C   UNL     1       4.821   4.165  16.067  0.00  0.00    +0.000 A 
ATOM     24  C   UNL     1       5.025   4.380  17.449  0.00  0.00    +0.000 A 
BRANCH  18  26
ATOM     25  C   UNL     1       7.603   5.687  19.618  0.00  0.00    +0.000 C 
ATOM     26  O   UNL     1       6.477   4.894  19.248  0.00  0.00    +0.000 OA
ENDBRANCH  18  26
ENDBRANCH  17  24
ENDBRANCH  15  17
ENDBRANCH   1  15
TORSDOF 5
ENDMDL
MODEL 2
REMARK VINA RESULT:      -7.6      1.303      1.485
REMARK  Name = 
REMARK  9 active torsions:
REMARK  status: ('A' for Active; 'I' for Inactive)
REMARK    1  A    between atoms: C_1  and  O_2
REMARK    2  A    between atoms: O_2  and  C_3
REMARK    3  A    between atoms: C_6  and  C_7
REMARK    4  A    between atoms: C_9  and  C_10
REMARK    5  A    between atoms: C_10  and  N_11
REMARK    6  A    between atoms: N_11  and  C_12
REMARK    7  A    between atoms: C_12  and  C_13
REMARK    8  A    between atoms: C_19  and  C_20
REMARK    9  A    between atoms: C_22  and  C_23
REMARK                            x       y       z     vdW  Elec       q    Type
REMARK                         _______ _______ _______ _____ _____    ______ ____
ROOT
ATOM      1  C   UNL     1       3.164   5.009  19.178  0.00  0.00    +0.000 C 
ENDROOT
BRANCH   1   2
ATOM      2  C   UNL     1       2.571   6.389  19.324  0.00  0.00    +0.000 A 
ATOM      3  C   UNL     1       2.625   7.334  18.297  0.00  0.00    +0.000 A 
ATOM      4  C   UNL     1       2.026   8.585  18.465  0.00  0.00    +0.000 A 
ATOM      5  C   UNL     1       1.389   8.875  19.672  0.00  0.00    +0.000 A 
ATOM      6  N   UNL     1       0.700  10.128  19.813  0.00  0.00    +0.000 N 
ATOM      7  N   UNL     1       0.586  10.987  18.755  0.00  0.00    +0.000 NA
ATOM      8  C   UNL     1      -0.219  11.963  19.179  0.00  0.00    +0.000 A 
ATOM      9  C   UNL     1      -0.637  13.053  18.264  0.00  0.00    +0.000 C 
ATOM     10  C   UNL     1      -0.572  11.799  20.530  0.00  0.00    +0.000 A 
ATOM     11  C   UNL     1       0.044  10.633  20.932  0.00  0.00    +0.000 A 
ATOM     12  C   UNL     1       0.040   9.985  22.268  0.00  0.00    +0.000 C 
ATOM     13  N   UNL     1       1.362   7.987  20.701  0.00  0.00    +0.000 NA
ATOM     14  C   UNL     1       1.939   6.779  20.499  0.00  0.00    +0.000 A 
ENDBRANCH   1   2
BRANCH   1  15
ATOM     15  N   UNL     1       3.190   4.590  17.778  0.00  0.00    +0.000 NA
ATOM     16  H   UNL     1       2.288   4.198  17.514  0.00  0.00    +0.000 HD
BRANCH  15  17
ATOM     17  C   UNL     1       4.208   3.564  17.517  0.00  0.00    +0.000 C 
BRANCH  17  24
ATOM     18  C   UNL     1       6.253   5.003  16.925  0.00  0.00    +0.000 A 
ATOM     19  C   UNL     1       7.207   5.407  15.982  0.00  0.00    +0.000 A 
ATOM     20  C   UNL     1       7.150   4.952  14.662  0.00  0.00    +0.000 A 
ATOM     21  C   UNL     1       6.138   4.081  14.261  0.00  0.00    +0.000 A 
ATOM     22  C   UNL     1       6.054   3.593  12.847  0.00  0.00    +0.000 C 
ATOM     23  C   UNL     1       5.198   3.659  15.206  0.00  0.00    +0.000 A 
ATOM     24  C   UNL     1       5.254   4.092  16.551  0.00  0.00    +0.000 A 
BRANCH  18  26
ATOM     25  C   UNL     1       7.541   5.649  18.812  0.00  0.00    +0.000 C 
ATOM     26  O   UNL     1       6.258   5.426  18.231  0.00  0.00    +0.000 OA
ENDBRANCH  18  26
ENDBRANCH  17  24
ENDBRANCH  15  17
ENDBRANCH   1  15
TORSDOF 5
ENDMDL
MODEL 3
REMARK VINA RESULT:      -7.5      3.616      9.059
REMARK  Name = 
REMARK  9 active torsions:
REMARK  status: ('A' for Active; 'I' for Inactive)
REMARK    1  A    between atoms: C_1  and  O_2
REMARK    2  A    between atoms: O_2  and  C_3
REMARK    3  A    between atoms: C_6  and  C_7
REMARK    4  A    between atoms: C_9  and  C_10
REMARK    5  A    between atoms: C_10  and  N_11
REMARK    6  A    between atoms: N_11  and  C_12
REMARK    7  A    between atoms: C_12  and  C_13
REMARK    8  A    between atoms: C_19  and  C_20
REMARK    9  A    between atoms: C_22  and  C_23
REMARK                            x       y       z     vdW  Elec       q    Type
REMARK                         _______ _______ _______ _____ _____    ______ ____
ROOT
ATOM      1  C   UNL     1       0.590  10.633  20.423  0.00  0.00    +0.000 C 
ENDROOT
BRANCH   1   2
ATOM      2  C   UNL     1       1.190   9.350  19.901  0.00  0.00    +0.000 A 
ATOM      3  C   UNL     1       1.633   9.219  18.583  0.00  0.00    +0.000 A 
ATOM      4  C   UNL     1       2.218   8.023  18.158  0.00  0.00    +0.000 A 
ATOM      5  C   UNL     1       2.341   6.969  19.063  0.00  0.00    +0.000 A 
ATOM      6  N   UNL     1       3.020   5.772  18.650  0.00  0.00    +0.000 N 
ATOM      7  N   UNL     1       3.620   5.695  17.424  0.00  0.00    +0.000 NA
ATOM      8  C   UNL     1       4.268   4.528  17.422  0.00  0.00    +0.000 A 
ATOM      9  C   UNL     1       5.109   4.131  16.266  0.00  0.00    +0.000 C 
ATOM     10  C   UNL     1       4.036   3.799  18.601  0.00  0.00    +0.000 A 
ATOM     11  C   UNL     1       3.214   4.596  19.369  0.00  0.00    +0.000 A 
ATOM     12  C   UNL     1       2.628   4.321  20.706  0.00  0.00    +0.000 C 
ATOM     13  N   UNL     1       1.879   7.060  20.338  0.00  0.00    +0.000 NA
ATOM     14  C   UNL     1       1.330   8.236  20.721  0.00  0.00    +0.000 A 
ENDBRANCH   1   2
BRANCH   1  15
ATOM     15  N   UNL     1      -0.789  10.796  19.966  0.00  0.00    +0.000 NA
ATOM     16  H   UNL     1      -1.150   9.908  19.622  0.00  0.00    +0.000 HD
BRANCH  15  17
ATOM     17  C   UNL     1      -0.906  11.771  18.873  0.00  0.00    +0.000 C 
BRANCH  17  24
ATOM     18  C   UNL     1      -3.459  11.818  18.577  0.00  0.00    +0.000 A 
ATOM     19  C   UNL     1      -4.579  11.600  17.765  0.00  0.00    +0.000 A 
ATOM     20  C   UNL     1      -4.445  11.053  16.487  0.00  0.00    +0.000 A 
ATOM     21  C   UNL     1      -3.186  10.715  15.994  0.00  0.00    +0.000 A 
ATOM     22  C   UNL     1      -3.024  10.115  14.630  0.00  0.00    +0.000 C 
ATOM     23  C   UNL     1      -2.063  10.951  16.795  0.00  0.00    +0.000 A 
ATOM     24  C   UNL     1      -2.179  11.524  18.082  0.00  0.00    +0.000 A 
BRANCH  18  26
ATOM     25  C   UNL     1      -4.813  12.842  20.237  0.00  0.00    +0.000 C 
ATOM     26  O   UNL     1      -3.535  12.344  19.843  0.00  0.00    +0.000 OA
ENDBRANCH  18  26
ENDBRANCH  17  24
ENDBRANCH  15  17
ENDBRANCH   1  15
TORSDOF 5
ENDMDL
MODEL 4
REMARK VINA RESULT:      -7.4      2.340      8.905
REMARK  Name = 
REMARK  9 active torsions:
REMARK  status: ('A' for Active; 'I' for Inactive)
REMARK    1  A    between atoms: C_1  and  O_2
REMARK    2  A    between atoms: O_2  and  C_3
REMARK    3  A    between atoms: C_6  and  C_7
REMARK    4  A    between atoms: C_9  and  C_10
REMARK    5  A    between atoms: C_10  and  N_11
REMARK    6  A    between atoms: N_11  and  C_12
REMARK    7  A    between atoms: C_12  and  C_13
REMARK    8  A    between atoms: C_19  and  C_20
REMARK    9  A    between atoms: C_22  and  C_23
REMARK                            x       y       z     vdW  Elec       q    Type
REMARK                         _______ _______ _______ _____ _____    ______ ____
ROOT
ATOM      1  C   UNL     1       1.533   5.396  20.591  0.00  0.00    +0.000 C 
ENDROOT
BRANCH   1   2
ATOM      2  C   UNL     1       2.541   5.080  19.512  0.00  0.00    +0.000 A 
ATOM      3  C   UNL     1       2.161   4.580  18.264  0.00  0.00    +0.000 A 
ATOM      4  C   UNL     1       3.127   4.340  17.284  0.00  0.00    +0.000 A 
ATOM      5  C   UNL     1       4.467   4.596  17.575  0.00  0.00    +0.000 A 
ATOM      6  N   UNL     1       5.449   4.431  16.539  0.00  0.00    +0.000 N 
ATOM      7  N   UNL     1       5.073   4.119  15.262  0.00  0.00    +0.000 NA
ATOM      8  C   UNL     1       6.194   4.184  14.540  0.00  0.00    +0.000 A 
ATOM      9  C   UNL     1       6.162   3.978  13.071  0.00  0.00    +0.000 C 
ATOM     10  C   UNL     1       7.317   4.456  15.340  0.00  0.00    +0.000 A 
ATOM     11  C   UNL     1       6.830   4.587  16.624  0.00  0.00    +0.000 A 
ATOM     12  C   UNL     1       7.570   4.852  17.883  0.00  0.00    +0.000 C 
ATOM     13  N   UNL     1       4.864   5.042  18.796  0.00  0.00    +0.000 NA
ATOM     14  C   UNL     1       3.902   5.277  19.718  0.00  0.00    +0.000 A 
ENDBRANCH   1   2
BRANCH   1  15
ATOM     15  N   UNL     1       1.685   6.768  21.071  0.00  0.00    +0.000 NA
ATOM     16  H   UNL     1       0.867   7.042  21.612  0.00  0.00    +0.000 HD
BRANCH  15  17
ATOM     17  C   UNL     1       1.830   7.734  19.974  0.00  0.00    +0.000 C 
BRANCH  17  24
ATOM     18  C   UNL     1       0.858  10.026  19.337  0.00  0.00    +0.000 A 
ATOM     19  C   UNL     1       0.062  11.129  19.670  0.00  0.00    +0.000 A 
ATOM     20  C   UNL     1      -0.532  11.232  20.931  0.00  0.00    +0.000 A 
ATOM     21  C   UNL     1      -0.343  10.231  21.882  0.00  0.00    +0.000 A 
ATOM     22  C   UNL     1      -0.962  10.330  23.243  0.00  0.00    +0.000 C 
ATOM     23  C   UNL     1       0.433   9.117  21.543  0.00  0.00    +0.000 A 
ATOM     24  C   UNL     1       1.024   8.987  20.266  0.00  0.00    +0.000 A 
BRANCH  18  26
ATOM     25  C   UNL     1       2.395  10.905  17.755  0.00  0.00    +0.000 C 
ATOM     26  O   UNL     1       1.472   9.880  18.117  0.00  0.00    +0.000 OA
ENDBRANCH  18  26
ENDBRANCH  17  24
ENDBRANCH  15  17
ENDBRANCH   1  15
TORSDOF 5
ENDMDL
MODEL 5
REMARK VINA RESULT:      -7.4      3.551      9.145
REMARK  Name = 
REMARK  9 active torsions:
REMARK  status: ('A' for Active; 'I' for Inactive)
REMARK    1  A    between atoms: C_1  and  O_2
REMARK    2  A    between atoms: O_2  and  C_3
REMARK    3  A    between atoms: C_6  and  C_7
REMARK    4  A    between atoms: C_9  and  C_10
REMARK    5  A    between atoms: C_10  and  N_11
REMARK    6  A    between atoms: N_11  and  C_12
REMARK    7  A    between atoms: C_12  and  C_13
REMARK    8  A    between atoms: C_19  and  C_20
REMARK    9  A    between atoms: C_22  and  C_23
REMARK                            x       y       z     vdW  Elec       q    Type
REMARK                         _______ _______ _______ _____ _____    ______ ____
ROOT
ATOM      1  C   UNL     1       0.623   9.838  20.627  0.00  0.00    +0.000 C 
ENDROOT
BRANCH   1   2
ATOM      2  C   UNL     1       1.341   8.602  20.143  0.00  0.00    +0.000 A 
ATOM      3  C   UNL     1       1.262   7.384  20.822  0.00  0.00    +0.000 A 
ATOM      4  C   UNL     1       1.913   6.256  20.313  0.00  0.00    +0.000 A 
ATOM      5  C   UNL     1       2.645   6.372  19.131  0.00  0.00    +0.000 A 
ATOM      6  N   UNL     1       3.242   5.194  18.563  0.00  0.00    +0.000 N 
ATOM      7  N   UNL     1       3.021   3.963  19.115  0.00  0.00    +0.000 NA
ATOM      8  C   UNL     1       3.589   3.095  18.275  0.00  0.00    +0.000 A 
ATOM      9  C   UNL     1       3.485   1.634  18.510  0.00  0.00    +0.000 C 
ATOM     10  C   UNL     1       4.250   3.745  17.218  0.00  0.00    +0.000 A 
ATOM     11  C   UNL     1       4.042   5.092  17.429  0.00  0.00    +0.000 A 
ATOM     12  C   UNL     1       4.532   6.250  16.638  0.00  0.00    +0.000 C 
ATOM     13  N   UNL     1       2.771   7.557  18.477  0.00  0.00    +0.000 NA
ATOM     14  C   UNL     1       2.117   8.626  18.990  0.00  0.00    +0.000 A 
ENDBRANCH   1   2
BRANCH   1  15
ATOM     15  N   UNL     1      -0.653  10.014  19.935  0.00  0.00    +0.000 NA
ATOM     16  H   UNL     1      -0.947   9.133  19.516  0.00  0.00    +0.000 HD
BRANCH  15  17
ATOM     17  C   UNL     1      -0.575  11.009  18.857  0.00  0.00    +0.000 C 
BRANCH  17  24
ATOM     18  C   UNL     1      -3.049  11.658  18.613  0.00  0.00    +0.000 A 
ATOM     19  C   UNL     1      -4.207  11.706  17.827  0.00  0.00    +0.000 A 
ATOM     20  C   UNL     1      -4.236  11.131  16.554  0.00  0.00    +0.000 A 
ATOM     21  C   UNL     1      -3.105  10.499  16.041  0.00  0.00    +0.000 A 
ATOM     22  C   UNL     1      -3.122   9.866  14.682  0.00  0.00    +0.000 C 
ATOM     23  C   UNL     1      -1.940  10.469  16.815  0.00  0.00    +0.000 A 
ATOM     24  C   UNL     1      -1.887  11.064  18.096  0.00  0.00    +0.000 A 
BRANCH  18  26
ATOM     25  C   UNL     1      -4.179  12.744  20.396  0.00  0.00    +0.000 C 
ATOM     26  O   UNL     1      -2.969  12.199  19.872  0.00  0.00    +0.000 OA
ENDBRANCH  18  26
ENDBRANCH  17  24
ENDBRANCH  15  17
ENDBRANCH   1  15
TORSDOF 5
ENDMDL
MODEL 6
REMARK VINA RESULT:      -7.4      3.662      9.334
REMARK  Name = 
REMARK  9 active torsions:
REMARK  status: ('A' for Active; 'I' for Inactive)
REMARK    1  A    between atoms: C_1  and  O_2
REMARK    2  A    between atoms: O_2  and  C_3
REMARK    3  A    between atoms: C_6  and  C_7
REMARK    4  A    between atoms: C_9  and  C_10
REMARK    5  A    between atoms: C_10  and  N_11
REMARK    6  A    between atoms: N_11  and  C_12
REMARK    7  A    between atoms: C_12  and  C_13
REMARK    8  A    between atoms: C_19  and  C_20
REMARK    9  A    between atoms: C_22  and  C_23
REMARK                            x       y       z     vdW  Elec       q    Type
REMARK                         _______ _______ _______ _____ _____    ______ ____
ROOT
ATOM      1  C   UNL     1       1.005  11.020  18.632  0.00  0.00    +0.000 C 
ENDROOT
BRANCH   1   2
ATOM      2  C   UNL     1       1.450   9.618  18.973  0.00  0.00    +0.000 A 
ATOM      3  C   UNL     1       1.195   9.040  20.219  0.00  0.00    +0.000 A 
ATOM      4  C   UNL     1       1.592   7.724  20.473  0.00  0.00    +0.000 A 
ATOM      5  C   UNL     1       2.250   7.009  19.473  0.00  0.00    +0.000 A 
ATOM      6  N   UNL     1       2.581   5.630  19.705  0.00  0.00    +0.000 N 
ATOM      7  N   UNL     1       2.176   4.996  20.847  0.00  0.00    +0.000 NA
ATOM      8  C   UNL     1       2.517   3.717  20.678  0.00  0.00    +0.000 A 
ATOM      9  C   UNL     1       2.162   2.698  21.696  0.00  0.00    +0.000 C 
ATOM     10  C   UNL     1       3.212   3.515  19.473  0.00  0.00    +0.000 A 
ATOM     11  C   UNL     1       3.269   4.754  18.871  0.00  0.00    +0.000 A 
ATOM     12  C   UNL     1       3.909   5.142  17.588  0.00  0.00    +0.000 C 
ATOM     13  N   UNL     1       2.547   7.566  18.269  0.00  0.00    +0.000 NA
ATOM     14  C   UNL     1       2.136   8.837  18.050  0.00  0.00    +0.000 A 
ENDBRANCH   1   2
BRANCH   1  15
ATOM     15  N   UNL     1      -0.437  11.176  18.810  0.00  0.00    +0.000 NA
ATOM     16  H   UNL     1      -0.713  10.841  19.732  0.00  0.00    +0.000 HD
BRANCH  15  17
ATOM     17  C   UNL     1      -1.210  10.418  17.818  0.00  0.00    +0.000 C 
BRANCH  17  24
ATOM     18  C   UNL     1      -3.302  11.076  16.478  0.00  0.00    +0.000 A 
ATOM     19  C   UNL     1      -4.611  11.574  16.460  0.00  0.00    +0.000 A 
ATOM     20  C   UNL     1      -5.224  12.025  17.632  0.00  0.00    +0.000 A 
ATOM     21  C   UNL     1      -4.540  11.985  18.845  0.00  0.00    +0.000 A 
ATOM     22  C   UNL     1      -5.177  12.475  20.110  0.00  0.00    +0.000 C 
ATOM     23  C   UNL     1      -3.241  11.467  18.869  0.00  0.00    +0.000 A 
ATOM     24  C   UNL     1      -2.613  10.987  17.697  0.00  0.00    +0.000 A 
BRANCH  18  26
ATOM     25  C   UNL     1      -3.476  10.091  14.325  0.00  0.00    +0.000 C 
ATOM     26  O   UNL     1      -2.650  10.629  15.356  0.00  0.00    +0.000 OA
ENDBRANCH  18  26
ENDBRANCH  17  24
ENDBRANCH  15  17
ENDBRANCH   1  15
TORSDOF 5
ENDMDL
MODEL 7
REMARK VINA RESULT:      -7.3      3.580      9.469
REMARK  Name = 
REMARK  9 active torsions:
REMARK  status: ('A' for Active; 'I' for Inactive)
REMARK    1  A    between atoms: C_1  and  O_2
REMARK    2  A    between atoms: O_2  and  C_3
REMARK    3  A    between atoms: C_6  and  C_7
REMARK    4  A    between atoms: C_9  and  C_10
REMARK    5  A    between atoms: C_10  and  N_11
REMARK    6  A    between atoms: N_11  and  C_12
REMARK    7  A    between atoms: C_12  and  C_13
REMARK    8  A    between atoms: C_19  and  C_20
REMARK    9  A    between atoms: C_22  and  C_23
REMARK                            x       y       z     vdW  Elec       q    Type
REMARK                         _______ _______ _______ _____ _____    ______ ____
ROOT
ATOM      1  C   UNL     1       0.542  10.524  19.250  0.00  0.00    +0.000 C 
ENDROOT
BRANCH   1   2
ATOM      2  C   UNL     1       1.384   9.274  19.148  0.00  0.00    +0.000 A 
ATOM      3  C   UNL     1       1.420   8.318  20.164  0.00  0.00    +0.000 A 
ATOM      4  C   UNL     1       2.184   7.158  20.006  0.00  0.00    +0.000 A 
ATOM      5  C   UNL     1       2.912   6.981  18.830  0.00  0.00    +0.000 A 
ATOM      6  N   UNL     1       3.628   5.751  18.632  0.00  0.00    +0.000 N 
ATOM      7  N   UNL     1       3.525   4.729  19.535  0.00  0.00    +0.000 NA
ATOM      8  C   UNL     1       4.184   3.707  18.984  0.00  0.00    +0.000 A 
ATOM      9  C   UNL     1       4.223   2.383  19.653  0.00  0.00    +0.000 C 
ATOM     10  C   UNL     1       4.787   4.068  17.767  0.00  0.00    +0.000 A 
ATOM     11  C   UNL     1       4.445   5.388  17.565  0.00  0.00    +0.000 A 
ATOM     12  C   UNL     1       4.825   6.294  16.451  0.00  0.00    +0.000 C 
ATOM     13  N   UNL     1       2.926   7.919  17.846  0.00  0.00    +0.000 NA
ATOM     14  C   UNL     1       2.164   9.023  18.025  0.00  0.00    +0.000 A 
ENDBRANCH   1   2
BRANCH   1  15
ATOM     15  N   UNL     1      -0.095  10.838  17.972  0.00  0.00    +0.000 NA
ATOM     16  H   UNL     1      -0.516  11.765  18.011  0.00  0.00    +0.000 HD
BRANCH  15  17
ATOM     17  C   UNL     1      -1.158   9.886  17.625  0.00  0.00    +0.000 C 
BRANCH  17  24
ATOM     18  C   UNL     1      -3.256  10.654  16.356  0.00  0.00    +0.000 A 
ATOM     19  C   UNL     1      -4.501  11.297  16.368  0.00  0.00    +0.000 A 
ATOM     20  C   UNL     1      -4.975  11.924  17.523  0.00  0.00    +0.000 A 
ATOM     21  C   UNL     1      -4.214  11.918  18.690  0.00  0.00    +0.000 A 
ATOM     22  C   UNL     1      -4.701  12.596  19.935  0.00  0.00    +0.000 C 
ATOM     23  C   UNL     1      -2.980  11.258  18.687  0.00  0.00    +0.000 A 
ATOM     24  C   UNL     1      -2.495  10.600  17.533  0.00  0.00    +0.000 A 
BRANCH  18  26
ATOM     25  C   UNL     1      -3.540  10.089  14.067  0.00  0.00    +0.000 C 
ATOM     26  O   UNL     1      -2.739  10.032  15.247  0.00  0.00    +0.000 OA
ENDBRANCH  18  26
ENDBRANCH  17  24
ENDBRANCH  15  17
ENDBRANCH   1  15
TORSDOF 5
ENDMDL
MODEL 8
REMARK VINA RESULT:      -7.3      1.676      3.191
REMARK  Name = 
REMARK  9 active torsions:
REMARK  status: ('A' for Active; 'I' for Inactive)
REMARK    1  A    between atoms: C_1  and  O_2
REMARK    2  A    between atoms: O_2  and  C_3
REMARK    3  A    between atoms: C_6  and  C_7
REMARK    4  A    between atoms: C_9  and  C_10
REMARK    5  A    between atoms: C_10  and  N_11
REMARK    6  A    between atoms: N_11  and  C_12
REMARK    7  A    between atoms: C_12  and  C_13
REMARK    8  A    between atoms: C_19  and  C_20
REMARK    9  A    between atoms: C_22  and  C_23
REMARK                            x       y       z     vdW  Elec       q    Type
REMARK                         _______ _______ _______ _____ _____    ______ ____
ROOT
ATOM      1  C   UNL     1       2.534   8.266  17.498  0.00  0.00    +0.000 C 
ENDROOT
BRANCH   1   2
ATOM      2  C   UNL     1       1.724   9.036  18.514  0.00  0.00    +0.000 A 
ATOM      3  C   UNL     1       1.045  10.212  18.186  0.00  0.00    +0.000 A 
ATOM      4  C   UNL     1       0.276  10.867  19.151  0.00  0.00    +0.000 A 
ATOM      5  C   UNL     1       0.209  10.337  20.440  0.00  0.00    +0.000 A 
ATOM      6  N   UNL     1      -0.649  10.963  21.407  0.00  0.00    +0.000 N 
ATOM      7  N   UNL     1      -1.461  12.004  21.052  0.00  0.00    +0.000 NA
ATOM      8  C   UNL     1      -2.214  12.246  22.128  0.00  0.00    +0.000 A 
ATOM      9  C   UNL     1      -3.281  13.276  22.090  0.00  0.00    +0.000 C 
ATOM     10  C   UNL     1      -1.852  11.430  23.213  0.00  0.00    +0.000 A 
ATOM     11  C   UNL     1      -0.831  10.629  22.746  0.00  0.00    +0.000 A 
ATOM     12  C   UNL     1      -0.048   9.594  23.468  0.00  0.00    +0.000 C 
ATOM     13  N   UNL     1       0.896   9.218  20.792  0.00  0.00    +0.000 NA
ATOM     14  C   UNL     1       1.620   8.600  19.830  0.00  0.00    +0.000 A 
ENDBRANCH   1   2
BRANCH   1  15
ATOM     15  N   UNL     1       3.125   7.069  18.091  0.00  0.00    +0.000 NA
ATOM     16  H   UNL     1       4.052   6.907  17.701  0.00  0.00    +0.000 HD
BRANCH  15  17
ATOM     17  C   UNL     1       2.326   5.863  17.838  0.00  0.00    +0.000 C 
BRANCH  17  24
ATOM     18  C   UNL     1       4.084   4.136  18.565  0.00  0.00    +0.000 A 
ATOM     19  C   UNL     1       4.473   3.109  19.435  0.00  0.00    +0.000 A 
ATOM     20  C   UNL     1       3.597   2.623  20.409  0.00  0.00    +0.000 A 
ATOM     21  C   UNL     1       2.316   3.156  20.535  0.00  0.00    +0.000 A 
ATOM     22  C   UNL     1       1.360   2.639  21.566  0.00  0.00    +0.000 C 
ATOM     23  C   UNL     1       1.934   4.197  19.681  0.00  0.00    +0.000 A 
ATOM     24  C   UNL     1       2.814   4.715  18.705  0.00  0.00    +0.000 A 
BRANCH  18  26
ATOM     25  C   UNL     1       6.303   4.558  17.834  0.00  0.00    +0.000 C 
ATOM     26  O   UNL     1       4.901   4.644  17.586  0.00  0.00    +0.000 OA
ENDBRANCH  18  26
ENDBRANCH  17  24
ENDBRANCH  15  17
ENDBRANCH   1  15
TORSDOF 5
ENDMDL
MODEL 9
REMARK VINA RESULT:      -7.3      2.547      4.128
REMARK  Name = 
REMARK  9 active torsions:
REMARK  status: ('A' for Active; 'I' for Inactive)
REMARK    1  A    between atoms: C_1  and  O_2
REMARK    2  A    between atoms: O_2  and  C_3
REMARK    3  A    between atoms: C_6  and  C_7
REMARK    4  A    between atoms: C_9  and  C_10
REMARK    5  A    between atoms: C_10  and  N_11
REMARK    6  A    between atoms: N_11  and  C_12
REMARK    7  A    between atoms: C_12  and  C_13
REMARK    8  A    between atoms: C_19  and  C_20
REMARK    9  A    between atoms: C_22  and  C_23
REMARK                            x       y       z     vdW  Elec       q    Type
REMARK                         _______ _______ _______ _____ _____    ______ ____
ROOT
ATOM      1  C   UNL     1       1.987   9.533  18.289  0.00  0.00    +0.000 C 
ENDROOT
BRANCH   1   2
ATOM      2  C   UNL     1       0.593  10.104  18.393  0.00  0.00    +0.000 A 
ATOM      3  C   UNL     1      -0.427   9.737  17.512  0.00  0.00    +0.000 A 
ATOM      4  C   UNL     1      -1.712  10.263  17.673  0.00  0.00    +0.000 A 
ATOM      5  C   UNL     1      -1.951  11.162  18.713  0.00  0.00    +0.000 A 
ATOM      6  N   UNL     1      -3.291  11.636  18.930  0.00  0.00    +0.000 N 
ATOM      7  N   UNL     1      -4.334  11.146  18.194  0.00  0.00    +0.000 NA
ATOM      8  C   UNL     1      -5.429  11.679  18.740  0.00  0.00    +0.000 A 
ATOM      9  C   UNL     1      -6.778  11.310  18.244  0.00  0.00    +0.000 C 
ATOM     10  C   UNL     1      -5.115  12.576  19.775  0.00  0.00    +0.000 A 
ATOM     11  C   UNL     1      -3.739  12.559  19.870  0.00  0.00    +0.000 A 
ATOM     12  C   UNL     1      -2.854  13.334  20.777  0.00  0.00    +0.000 C 
ATOM     13  N   UNL     1      -0.963  11.566  19.554  0.00  0.00    +0.000 NA
ATOM     14  C   UNL     1       0.266  11.026  19.380  0.00  0.00    +0.000 A 
ENDBRANCH   1   2
BRANCH   1  15
ATOM     15  N   UNL     1       1.955   8.130  17.878  0.00  0.00    +0.000 NA
ATOM     16  H   UNL     1       1.007   7.865  17.614  0.00  0.00    +0.000 HD
BRANCH  15  17
ATOM     17  C   UNL     1       2.382   7.221  18.949  0.00  0.00    +0.000 C 
BRANCH  17  24
ATOM     18  C   UNL     1       3.689   5.541  17.509  0.00  0.00    +0.000 A 
ATOM     19  C   UNL     1       3.881   4.223  17.075  0.00  0.00    +0.000 A 
ATOM     20  C   UNL     1       3.013   3.203  17.471  0.00  0.00    +0.000 A 
ATOM     21  C   UNL     1       1.937   3.481  18.312  0.00  0.00    +0.000 A 
ATOM     22  C   UNL     1       0.988   2.401  18.737  0.00  0.00    +0.000 C 
ATOM     23  C   UNL     1       1.756   4.792  18.764  0.00  0.00    +0.000 A 
ATOM     24  C   UNL     1       2.637   5.832  18.391  0.00  0.00    +0.000 A 
BRANCH  18  26
ATOM     25  C   UNL     1       5.639   6.238  16.347  0.00  0.00    +0.000 C 
ATOM     26  O   UNL     1       4.506   6.582  17.143  0.00  0.00    +0.000 OA
ENDBRANCH  18  26
ENDBRANCH  17  24
ENDBRANCH  15  17
ENDBRANCH   1  15
TORSDOF 5
ENDMDL
