MODEL 1
REMARK VINA RESULT:      -6.9      0.000      0.000
REMARK  Name = 
REMARK  7 active torsions:
REMARK  status: ('A' for Active; 'I' for Inactive)
REMARK    1  A    between atoms: C_1  and  N_2
REMARK    2  A    between atoms: C_13  and  N_14
REMARK    3  A    between atoms: N_16  and  C_17
REMARK    4  A    between atoms: C_17  and  C_18
REMARK    5  A    between atoms: C_26  and  C_27
REMARK    6  A    between atoms: C_27  and  C_28
REMARK    7  A    between atoms: C_28  and  O_30
REMARK                            x       y       z     vdW  Elec       q    Type
REMARK                         _______ _______ _______ _____ _____    ______ ____
ROOT
ATOM      1  C   UNL     1      -2.791  11.254  17.491  0.00  0.00    +0.000 C 
ATOM      2  N   UNL     1      -3.312  11.876  18.694  0.00  0.00    +0.000 N 
ATOM      3  C   UNL     1      -2.389  12.467  19.551  0.00  0.00    +0.000 A 
ATOM      4  O   UNL     1      -1.176  12.303  19.450  0.00  0.00    +0.000 OA
ATOM      5  C   UNL     1      -2.977  13.305  20.543  0.00  0.00    +0.000 A 
ATOM      6  C   UNL     1      -4.293  13.318  20.921  0.00  0.00    +0.000 A 
ATOM      7  N   UNL     1      -4.467  14.247  21.940  0.00  0.00    +0.000 NA
ATOM      8  C   UNL     1      -3.267  14.777  22.183  0.00  0.00    +0.000 A 
ATOM      9  N   UNL     1      -2.888  15.610  23.207  0.00  0.00    +0.000 N 
ATOM     10  C   UNL     1      -1.514  15.678  23.714  0.00  0.00    +0.000 C 
ATOM     11  C   UNL     1      -1.491  15.769  25.228  0.00  0.00    +0.000 C 
ATOM     12  C   UNL     1      -2.289  16.973  25.698  0.00  0.00    +0.000 C 
ATOM     13  C   UNL     1      -3.720  16.939  25.135  0.00  0.00    +0.000 C 
ATOM     14  C   UNL     1      -3.735  16.750  23.589  0.00  0.00    +0.000 C 
ATOM     15  N   UNL     1      -2.377  14.337  21.218  0.00  0.00    +0.000 N 
ATOM     16  C   UNL     1      -5.230  12.422  20.219  0.00  0.00    +0.000 A 
ATOM     17  C   UNL     1      -6.570  12.154  20.604  0.00  0.00    +0.000 A 
ATOM     18  C   UNL     1      -7.299  11.190  19.864  0.00  0.00    +0.000 A 
ATOM     19  C   UNL     1      -6.803  10.610  18.705  0.00  0.00    +0.000 A 
ATOM     20  C   UNL     1      -5.520  10.912  18.288  0.00  0.00    +0.000 A 
ATOM     21  C   UNL     1      -4.701  11.758  19.054  0.00  0.00    +0.000 A 
ENDROOT
BRANCH  13  22
ATOM     22  N   UNL     1      -4.416  18.159  25.572  0.00  0.00    +0.000 NA
ATOM     23  H   UNL     1      -5.405  18.098  25.327  0.00  0.00    +0.000 HD
ATOM     24  H   UNL     1      -4.055  18.950  25.037  0.00  0.00    +0.000 HD
ENDBRANCH  13  22
BRANCH  15  25
ATOM     25  C   UNL     1      -1.058  14.874  20.890  0.00  0.00    +0.000 C 
BRANCH  25  26
ATOM     26  C   UNL     1      -1.037  15.984  19.866  0.00  0.00    +0.000 A 
ATOM     27  C   UNL     1      -1.974  17.030  19.918  0.00  0.00    +0.000 A 
ATOM     28  C   UNL     1      -1.965  18.038  18.955  0.00  0.00    +0.000 A 
ATOM     29  C   UNL     1      -1.002  18.036  17.951  0.00  0.00    +0.000 A 
ATOM     30  C   UNL     1      -0.024  17.048  17.928  0.00  0.00    +0.000 A 
ATOM     31  C   UNL     1      -0.026  16.033  18.895  0.00  0.00    +0.000 A 
ATOM     32 CL   UNL     1       1.283  14.905  18.862  0.00  0.00    +0.000 Cl
ENDBRANCH  25  26
ENDBRANCH  15  25
BRANCH  17  33
ATOM     33  C   UNL     1      -7.223  12.755  21.837  0.00  0.00    +0.000 C 
BRANCH  33  34
ATOM     34  C   UNL     1      -7.124  11.959  23.138  0.00  0.00    +0.000 C 
ATOM     35  O   UNL     1      -7.910  11.130  23.568  0.00  0.00    +0.000 OA
BRANCH  34  36
ATOM     36  O   UNL     1      -6.007  12.276  23.842  0.00  0.00    +0.000 OA
ATOM     37  H   UNL     1      -5.209  12.352  23.285  0.00  0.00    +0.000 HD
ENDBRANCH  34  36
ENDBRANCH  33  34
ENDBRANCH  17  33
TORSDOF 6
ENDMDL
MODEL 2
REMARK VINA RESULT:      -6.9      3.418      6.383
REMARK  Name = 
REMARK  7 active torsions:
REMARK  status: ('A' for Active; 'I' for Inactive)
REMARK    1  A    between atoms: C_1  and  N_2
REMARK    2  A    between atoms: C_13  and  N_14
REMARK    3  A    between atoms: N_16  and  C_17
REMARK    4  A    between atoms: C_17  and  C_18
REMARK    5  A    between atoms: C_26  and  C_27
REMARK    6  A    between atoms: C_27  and  C_28
REMARK    7  A    between atoms: C_28  and  O_30
REMARK                            x       y       z     vdW  Elec       q    Type
REMARK                         _______ _______ _______ _____ _____    ______ ____
ROOT
ATOM      1  C   UNL     1      -2.736   9.652  16.112  0.00  0.00    +0.000 C 
ATOM      2  N   UNL     1      -2.435  10.439  17.293  0.00  0.00    +0.000 N 
ATOM      3  C   UNL     1      -3.334  11.446  17.629  0.00  0.00    +0.000 A 
ATOM      4  O   UNL     1      -4.225  11.831  16.876  0.00  0.00    +0.000 OA
ATOM      5  C   UNL     1      -3.146  11.975  18.939  0.00  0.00    +0.000 A 
ATOM      6  C   UNL     1      -2.031  11.834  19.721  0.00  0.00    +0.000 A 
ATOM      7  N   UNL     1      -2.218  12.521  20.914  0.00  0.00    +0.000 NA
ATOM      8  C   UNL     1      -3.427  13.084  20.845  0.00  0.00    +0.000 A 
ATOM      9  N   UNL     1      -3.997  13.997  21.697  0.00  0.00    +0.000 N 
ATOM     10  C   UNL     1      -5.027  14.951  21.270  0.00  0.00    +0.000 C 
ATOM     11  C   UNL     1      -4.792  16.321  21.878  0.00  0.00    +0.000 C 
ATOM     12  C   UNL     1      -4.752  16.227  23.393  0.00  0.00    +0.000 C 
ATOM     13  C   UNL     1      -3.707  15.196  23.854  0.00  0.00    +0.000 C 
ATOM     14  C   UNL     1      -3.899  13.818  23.153  0.00  0.00    +0.000 C 
ATOM     15  N   UNL     1      -4.077  12.615  19.716  0.00  0.00    +0.000 N 
ATOM     16  C   UNL     1      -0.915  11.019  19.205  0.00  0.00    +0.000 A 
ATOM     17  C   UNL     1       0.381  10.929  19.777  0.00  0.00    +0.000 A 
ATOM     18  C   UNL     1       1.363  10.170  19.092  0.00  0.00    +0.000 A 
ATOM     19  C   UNL     1       1.067   9.406  17.972  0.00  0.00    +0.000 A 
ATOM     20  C   UNL     1      -0.211   9.441  17.444  0.00  0.00    +0.000 A 
ATOM     21  C   UNL     1      -1.191  10.279  18.000  0.00  0.00    +0.000 A 
ENDROOT
BRANCH  13  22
ATOM     22  N   UNL     1      -3.764  15.107  25.321  0.00  0.00    +0.000 NA
ATOM     23  H   UNL     1      -2.859  15.364  25.717  0.00  0.00    +0.000 HD
ATOM     24  H   UNL     1      -3.905  14.130  25.584  0.00  0.00    +0.000 HD
ENDBRANCH  13  22
BRANCH  15  25
ATOM     25  C   UNL     1      -5.500  12.699  19.390  0.00  0.00    +0.000 C 
BRANCH  25  26
ATOM     26  C   UNL     1      -6.330  11.493  19.759  0.00  0.00    +0.000 A 
ATOM     27  C   UNL     1      -6.259  10.310  19.002  0.00  0.00    +0.000 A 
ATOM     28  C   UNL     1      -7.047   9.209  19.332  0.00  0.00    +0.000 A 
ATOM     29  C   UNL     1      -7.887   9.258  20.440  0.00  0.00    +0.000 A 
ATOM     30  C   UNL     1      -7.915  10.395  21.241  0.00  0.00    +0.000 A 
ATOM     31  C   UNL     1      -7.123  11.505  20.915  0.00  0.00    +0.000 A 
ATOM     32 CL   UNL     1      -7.133  12.836  22.018  0.00  0.00    +0.000 Cl
ENDBRANCH  25  26
ENDBRANCH  15  25
BRANCH  17  33
ATOM     33  C   UNL     1       0.806  11.698  21.016  0.00  0.00    +0.000 C 
BRANCH  33  34
ATOM     34  C   UNL     1       1.433  13.076  20.803  0.00  0.00    +0.000 C 
ATOM     35  O   UNL     1       2.610  13.383  20.903  0.00  0.00    +0.000 OA
BRANCH  34  36
ATOM     36  O   UNL     1       0.505  14.010  20.475  0.00  0.00    +0.000 OA
ATOM     37  H   UNL     1      -0.203  13.665  19.898  0.00  0.00    +0.000 HD
ENDBRANCH  34  36
ENDBRANCH  33  34
ENDBRANCH  17  33
TORSDOF 6
ENDMDL
MODEL 3
REMARK VINA RESULT:      -6.7      3.556      6.292
REMARK  Name = 
REMARK  7 active torsions:
REMARK  status: ('A' for Active; 'I' for Inactive)
REMARK    1  A    between atoms: C_1  and  N_2
REMARK    2  A    between atoms: C_13  and  N_14
REMARK    3  A    between atoms: N_16  and  C_17
REMARK    4  A    between atoms: C_17  and  C_18
REMARK    5  A    between atoms: C_26  and  C_27
REMARK    6  A    between atoms: C_27  and  C_28
REMARK    7  A    between atoms: C_28  and  O_30
REMARK                            x       y       z     vdW  Elec       q    Type
REMARK                         _______ _______ _______ _____ _____    ______ ____
ROOT
ATOM      1  C   UNL     1      -2.577   9.722  15.857  0.00  0.00    +0.000 C 
ATOM      2  N   UNL     1      -2.246  10.352  17.122  0.00  0.00    +0.000 N 
ATOM      3  C   UNL     1      -3.079  11.377  17.555  0.00  0.00    +0.000 A 
ATOM      4  O   UNL     1      -3.926  11.904  16.838  0.00  0.00    +0.000 OA
ATOM      5  C   UNL     1      -2.882  11.745  18.918  0.00  0.00    +0.000 A 
ATOM      6  C   UNL     1      -1.796  11.440  19.693  0.00  0.00    +0.000 A 
ATOM      7  N   UNL     1      -1.959  12.005  20.952  0.00  0.00    +0.000 NA
ATOM      8  C   UNL     1      -3.124  12.656  20.931  0.00  0.00    +0.000 A 
ATOM      9  N   UNL     1      -3.647  13.510  21.871  0.00  0.00    +0.000 N 
ATOM     10  C   UNL     1      -4.599  14.575  21.539  0.00  0.00    +0.000 C 
ATOM     11  C   UNL     1      -4.281  15.850  22.298  0.00  0.00    +0.000 C 
ATOM     12  C   UNL     1      -4.279  15.589  23.794  0.00  0.00    +0.000 C 
ATOM     13  C   UNL     1      -3.319  14.441  24.151  0.00  0.00    +0.000 C 
ATOM     14  C   UNL     1      -3.591  13.166  23.299  0.00  0.00    +0.000 C 
ATOM     15  N   UNL     1      -3.782  12.361  19.749  0.00  0.00    +0.000 N 
ATOM     16  C   UNL     1      -0.729  10.609  19.105  0.00  0.00    +0.000 A 
ATOM     17  C   UNL     1       0.546  10.365  19.680  0.00  0.00    +0.000 A 
ATOM     18  C   UNL     1       1.487   9.617  18.928  0.00  0.00    +0.000 A 
ATOM     19  C   UNL     1       1.161   9.003  17.726  0.00  0.00    +0.000 A 
ATOM     20  C   UNL     1      -0.100   9.187  17.189  0.00  0.00    +0.000 A 
ATOM     21  C   UNL     1      -1.030  10.027  17.822  0.00  0.00    +0.000 A 
ENDROOT
BRANCH  13  22
ATOM     22  N   UNL     1      -3.411  14.197  25.598  0.00  0.00    +0.000 NA
ATOM     23  H   UNL     1      -2.560  13.738  25.925  0.00  0.00    +0.000 HD
ATOM     24  H   UNL     1      -4.161  13.526  25.769  0.00  0.00    +0.000 HD
ENDBRANCH  13  22
BRANCH  15  25
ATOM     25  C   UNL     1      -5.188  12.581  19.416  0.00  0.00    +0.000 C 
BRANCH  25  26
ATOM     26  C   UNL     1      -6.127  11.448  19.751  0.00  0.00    +0.000 A 
ATOM     27  C   UNL     1      -6.069  10.232  19.047  0.00  0.00    +0.000 A 
ATOM     28  C   UNL     1      -6.956   9.198  19.343  0.00  0.00    +0.000 A 
ATOM     29  C   UNL     1      -7.886   9.348  20.367  0.00  0.00    +0.000 A 
ATOM     30  C   UNL     1      -7.909  10.517  21.121  0.00  0.00    +0.000 A 
ATOM     31  C   UNL     1      -7.018  11.559  20.828  0.00  0.00    +0.000 A 
ATOM     32 CL   UNL     1      -7.036  12.934  21.877  0.00  0.00    +0.000 Cl
ENDBRANCH  25  26
ENDBRANCH  15  25
BRANCH  17  33
ATOM     33  C   UNL     1       0.997  10.961  21.002  0.00  0.00    +0.000 C 
BRANCH  33  34
ATOM     34  C   UNL     1       0.770  10.123  22.260  0.00  0.00    +0.000 C 
ATOM     35  O   UNL     1       0.067  10.394  23.220  0.00  0.00    +0.000 OA
BRANCH  34  36
ATOM     36  O   UNL     1       1.474   8.962  22.229  0.00  0.00    +0.000 OA
ATOM     37  H   UNL     1       1.070   8.281  21.659  0.00  0.00    +0.000 HD
ENDBRANCH  34  36
ENDBRANCH  33  34
ENDBRANCH  17  33
TORSDOF 6
ENDMDL
MODEL 4
REMARK VINA RESULT:      -6.5      3.776      8.560
REMARK  Name = 
REMARK  7 active torsions:
REMARK  status: ('A' for Active; 'I' for Inactive)
REMARK    1  A    between atoms: C_1  and  N_2
REMARK    2  A    between atoms: C_13  and  N_14
REMARK    3  A    between atoms: N_16  and  C_17
REMARK    4  A    between atoms: C_17  and  C_18
REMARK    5  A    between atoms: C_26  and  C_27
REMARK    6  A    between atoms: C_27  and  C_28
REMARK    7  A    between atoms: C_28  and  O_30
REMARK                            x       y       z     vdW  Elec       q    Type
REMARK                         _______ _______ _______ _____ _____    ______ ____
ROOT
ATOM      1  C   UNL     1      -2.065  17.119  19.837  0.00  0.00    +0.000 C 
ATOM      2  N   UNL     1      -1.078  16.077  19.628  0.00  0.00    +0.000 N 
ATOM      3  C   UNL     1      -1.305  14.856  20.252  0.00  0.00    +0.000 A 
ATOM      4  O   UNL     1      -2.160  14.692  21.119  0.00  0.00    +0.000 OA
ATOM      5  C   UNL     1      -0.474  13.800  19.776  0.00  0.00    +0.000 A 
ATOM      6  C   UNL     1       0.679  13.937  19.051  0.00  0.00    +0.000 A 
ATOM      7  N   UNL     1       1.218  12.680  18.807  0.00  0.00    +0.000 NA
ATOM      8  C   UNL     1       0.407  11.795  19.391  0.00  0.00    +0.000 A 
ATOM      9  N   UNL     1       0.597  10.448  19.578  0.00  0.00    +0.000 N 
ATOM     10  C   UNL     1      -0.027   9.698  20.672  0.00  0.00    +0.000 C 
ATOM     11  C   UNL     1       0.946   8.706  21.282  0.00  0.00    +0.000 C 
ATOM     12  C   UNL     1       1.467   7.755  20.218  0.00  0.00    +0.000 C 
ATOM     13  C   UNL     1       2.083   8.531  19.041  0.00  0.00    +0.000 C 
ATOM     14  C   UNL     1       1.112   9.613  18.482  0.00  0.00    +0.000 C 
ATOM     15  N   UNL     1      -0.726  12.454  19.840  0.00  0.00    +0.000 N 
ATOM     16  C   UNL     1       1.106  15.295  18.668  0.00  0.00    +0.000 A 
ATOM     17  C   UNL     1       2.360  15.643  18.100  0.00  0.00    +0.000 A 
ATOM     18  C   UNL     1       2.638  17.015  17.881  0.00  0.00    +0.000 A 
ATOM     19  C   UNL     1       1.685  18.007  18.068  0.00  0.00    +0.000 A 
ATOM     20  C   UNL     1       0.439  17.669  18.563  0.00  0.00    +0.000 A 
ATOM     21  C   UNL     1       0.150  16.343  18.925  0.00  0.00    +0.000 A 
ENDROOT
BRANCH  13  22
ATOM     22  N   UNL     1       2.509   7.559  18.022  0.00  0.00    +0.000 NA
ATOM     23  H   UNL     1       1.972   7.701  17.166  0.00  0.00    +0.000 HD
ATOM     24  H   UNL     1       2.263   6.621  18.342  0.00  0.00    +0.000 HD
ENDBRANCH  13  22
BRANCH  15  25
ATOM     25  C   UNL     1      -2.004  11.877  20.254  0.00  0.00    +0.000 C 
BRANCH  25  26
ATOM     26  C   UNL     1      -3.082  11.842  19.198  0.00  0.00    +0.000 A 
ATOM     27  C   UNL     1      -2.812  11.352  17.908  0.00  0.00    +0.000 A 
ATOM     28  C   UNL     1      -3.805  11.346  16.930  0.00  0.00    +0.000 A 
ATOM     29  C   UNL     1      -5.087  11.794  17.234  0.00  0.00    +0.000 A 
ATOM     30  C   UNL     1      -5.389  12.215  18.525  0.00  0.00    +0.000 A 
ATOM     31  C   UNL     1      -4.396  12.221  19.513  0.00  0.00    +0.000 A 
ATOM     32 CL   UNL     1      -4.875  12.655  21.116  0.00  0.00    +0.000 Cl
ENDBRANCH  25  26
ENDBRANCH  15  25
BRANCH  17  33
ATOM     33  C   UNL     1       3.464  14.636  17.827  0.00  0.00    +0.000 C 
BRANCH  33  34
ATOM     34  C   UNL     1       4.778  14.817  18.588  0.00  0.00    +0.000 C 
ATOM     35  O   UNL     1       4.932  14.938  19.793  0.00  0.00    +0.000 OA
BRANCH  34  36
ATOM     36  O   UNL     1       5.848  14.843  17.753  0.00  0.00    +0.000 OA
ATOM     37  H   UNL     1       5.663  14.455  16.876  0.00  0.00    +0.000 HD
ENDBRANCH  34  36
ENDBRANCH  33  34
ENDBRANCH  17  33
TORSDOF 6
ENDMDL
MODEL 5
REMARK VINA RESULT:      -6.3      3.322      6.353
REMARK  Name = 
REMARK  7 active torsions:
REMARK  status: ('A' for Active; 'I' for Inactive)
REMARK    1  A    between atoms: C_1  and  N_2
REMARK    2  A    between atoms: C_13  and  N_14
REMARK    3  A    between atoms: N_16  and  C_17
REMARK    4  A    between atoms: C_17  and  C_18
REMARK    5  A    between atoms: C_26  and  C_27
REMARK    6  A    between atoms: C_27  and  C_28
REMARK    7  A    between atoms: C_28  and  O_30
REMARK                            x       y       z     vdW  Elec       q    Type
REMARK                         _______ _______ _______ _____ _____    ______ ____
ROOT
ATOM      1  C   UNL     1      -2.666   9.588  16.891  0.00  0.00    +0.000 C 
ATOM      2  N   UNL     1      -2.578  10.626  17.901  0.00  0.00    +0.000 N 
ATOM      3  C   UNL     1      -3.650  11.506  17.999  0.00  0.00    +0.000 A 
ATOM      4  O   UNL     1      -4.539  11.580  17.155  0.00  0.00    +0.000 OA
ATOM      5  C   UNL     1      -3.639  12.300  19.183  0.00  0.00    +0.000 A 
ATOM      6  C   UNL     1      -2.571  12.506  20.015  0.00  0.00    +0.000 A 
ATOM      7  N   UNL     1      -2.948  13.365  21.040  0.00  0.00    +0.000 NA
ATOM      8  C   UNL     1      -4.225  13.686  20.820  0.00  0.00    +0.000 A 
ATOM      9  N   UNL     1      -4.993  14.632  21.452  0.00  0.00    +0.000 N 
ATOM     10  C   UNL     1      -6.134  15.293  20.810  0.00  0.00    +0.000 C 
ATOM     11  C   UNL     1      -6.167  16.774  21.140  0.00  0.00    +0.000 C 
ATOM     12  C   UNL     1      -6.214  16.979  22.644  0.00  0.00    +0.000 C 
ATOM     13  C   UNL     1      -5.049  16.251  23.336  0.00  0.00    +0.000 C 
ATOM     14  C   UNL     1      -4.965  14.753  22.917  0.00  0.00    +0.000 C 
ATOM     15  N   UNL     1      -4.712  12.905  19.785  0.00  0.00    +0.000 N 
ATOM     16  C   UNL     1      -1.305  11.815  19.709  0.00  0.00    +0.000 A 
ATOM     17  C   UNL     1      -0.053  12.061  20.331  0.00  0.00    +0.000 A 
ATOM     18  C   UNL     1       1.084  11.368  19.845  0.00  0.00    +0.000 A 
ATOM     19  C   UNL     1       0.992  10.365  18.890  0.00  0.00    +0.000 A 
ATOM     20  C   UNL     1      -0.235  10.076  18.323  0.00  0.00    +0.000 A 
ATOM     21  C   UNL     1      -1.374  10.822  18.667  0.00  0.00    +0.000 A 
ENDROOT
BRANCH  13  22
ATOM     22  N   UNL     1      -5.188  16.435  24.788  0.00  0.00    +0.000 NA
ATOM     23  H   UNL     1      -4.353  16.090  25.261  0.00  0.00    +0.000 HD
ATOM     24  H   UNL     1      -5.950  15.843  25.121  0.00  0.00    +0.000 HD
ENDBRANCH  13  22
BRANCH  15  25
ATOM     25  C   UNL     1      -6.104  12.677  19.401  0.00  0.00    +0.000 C 
BRANCH  25  26
ATOM     26  C   UNL     1      -6.703  11.365  19.849  0.00  0.00    +0.000 A 
ATOM     27  C   UNL     1      -6.562  10.205  19.067  0.00  0.00    +0.000 A 
ATOM     28  C   UNL     1      -7.138   9.003  19.474  0.00  0.00    +0.000 A 
ATOM     29  C   UNL     1      -7.830   8.932  20.679  0.00  0.00    +0.000 A 
ATOM     30  C   UNL     1      -7.916  10.053  21.498  0.00  0.00    +0.000 A 
ATOM     31  C   UNL     1      -7.337  11.264  21.096  0.00  0.00    +0.000 A 
ATOM     32 CL   UNL     1      -7.394  12.580  22.215  0.00  0.00    +0.000 Cl
ENDBRANCH  25  26
ENDBRANCH  15  25
BRANCH  17  33
ATOM     33  C   UNL     1       0.156  13.114  21.406  0.00  0.00    +0.000 C 
BRANCH  33  34
ATOM     34  C   UNL     1       0.307  14.564  20.944  0.00  0.00    +0.000 C 
ATOM     35  O   UNL     1       0.981  14.985  20.018  0.00  0.00    +0.000 OA
BRANCH  34  36
ATOM     36  O   UNL     1      -0.417  15.418  21.711  0.00  0.00    +0.000 OA
ATOM     37  H   UNL     1      -1.322  15.565  21.376  0.00  0.00    +0.000 HD
ENDBRANCH  34  36
ENDBRANCH  33  34
ENDBRANCH  17  33
TORSDOF 6
ENDMDL
MODEL 6
REMARK VINA RESULT:      -6.3      2.259      3.008
REMARK  Name = 
REMARK  7 active torsions:
REMARK  status: ('A' for Active; 'I' for Inactive)
REMARK    1  A    between atoms: C_1  and  N_2
REMARK    2  A    between atoms: C_13  and  N_14
REMARK    3  A    between atoms: N_16  and  C_17
REMARK    4  A    between atoms: C_17  and  C_18
REMARK    5  A    between atoms: C_26  and  C_27
REMARK    6  A    between atoms: C_27  and  C_28
REMARK    7  A    between atoms: C_28  and  O_30
REMARK                            x       y       z     vdW  Elec       q    Type
REMARK                         _______ _______ _______ _____ _____    ______ ____
ROOT
ATOM      1  C   UNL     1       0.791  10.388  18.714  0.00  0.00    +0.000 C 
ATOM      2  N   UNL     1      -0.373  11.080  19.235  0.00  0.00    +0.000 N 
ATOM      3  C   UNL     1      -0.238  11.702  20.471  0.00  0.00    +0.000 A 
ATOM      4  O   UNL     1       0.719  11.516  21.218  0.00  0.00    +0.000 OA
ATOM      5  C   UNL     1      -1.300  12.601  20.784  0.00  0.00    +0.000 A 
ATOM      6  C   UNL     1      -2.527  12.653  20.177  0.00  0.00    +0.000 A 
ATOM      7  N   UNL     1      -3.297  13.637  20.785  0.00  0.00    +0.000 NA
ATOM      8  C   UNL     1      -2.548  14.162  21.757  0.00  0.00    +0.000 A 
ATOM      9  N   UNL     1      -2.917  15.042  22.744  0.00  0.00    +0.000 N 
ATOM     10  C   UNL     1      -2.238  15.118  24.042  0.00  0.00    +0.000 C 
ATOM     11  C   UNL     1      -3.234  15.289  25.173  0.00  0.00    +0.000 C 
ATOM     12  C   UNL     1      -4.083  16.527  24.947  0.00  0.00    +0.000 C 
ATOM     13  C   UNL     1      -4.765  16.484  23.569  0.00  0.00    +0.000 C 
ATOM     14  C   UNL     1      -3.747  16.213  22.422  0.00  0.00    +0.000 C 
ATOM     15  N   UNL     1      -1.262  13.658  21.656  0.00  0.00    +0.000 N 
ATOM     16  C   UNL     1      -2.789  11.734  19.054  0.00  0.00    +0.000 A 
ATOM     17  C   UNL     1      -4.051  11.507  18.444  0.00  0.00    +0.000 A 
ATOM     18  C   UNL     1      -4.138  10.515  17.435  0.00  0.00    +0.000 A 
ATOM     19  C   UNL     1      -3.020   9.867  16.930  0.00  0.00    +0.000 A 
ATOM     20  C   UNL     1      -1.777  10.128  17.477  0.00  0.00    +0.000 A 
ATOM     21  C   UNL     1      -1.647  11.001  18.569  0.00  0.00    +0.000 A 
ENDROOT
BRANCH  13  22
ATOM     22  N   UNL     1      -5.516  17.735  23.387  0.00  0.00    +0.000 NA
ATOM     23  H   UNL     1      -4.995  18.513  23.794  0.00  0.00    +0.000 HD
ATOM     24  H   UNL     1      -6.381  17.679  23.928  0.00  0.00    +0.000 HD
ENDBRANCH  13  22
BRANCH  15  25
ATOM     25  C   UNL     1      -0.041  14.158  22.286  0.00  0.00    +0.000 C 
BRANCH  25  26
ATOM     26  C   UNL     1       0.701  15.227  21.521  0.00  0.00    +0.000 A 
ATOM     27  C   UNL     1       0.921  15.103  20.138  0.00  0.00    +0.000 A 
ATOM     28  C   UNL     1       1.629  16.082  19.442  0.00  0.00    +0.000 A 
ATOM     29  C   UNL     1       2.095  17.211  20.107  0.00  0.00    +0.000 A 
ATOM     30  C   UNL     1       1.823  17.384  21.460  0.00  0.00    +0.000 A 
ATOM     31  C   UNL     1       1.110  16.405  22.164  0.00  0.00    +0.000 A 
ATOM     32 CL   UNL     1       0.721  16.741  23.815  0.00  0.00    +0.000 Cl
ENDBRANCH  25  26
ENDBRANCH  15  25
BRANCH  17  33
ATOM     33  C   UNL     1      -5.335  12.182  18.898  0.00  0.00    +0.000 C 
BRANCH  33  34
ATOM     34  C   UNL     1      -6.172  11.455  19.950  0.00  0.00    +0.000 C 
ATOM     35  O   UNL     1      -7.017  10.593  19.767  0.00  0.00    +0.000 OA
BRANCH  34  36
ATOM     36  O   UNL     1      -5.887  11.882  21.207  0.00  0.00    +0.000 OA
ATOM     37  H   UNL     1      -6.563  11.627  21.864  0.00  0.00    +0.000 HD
ENDBRANCH  34  36
ENDBRANCH  33  34
ENDBRANCH  17  33
TORSDOF 6
ENDMDL
MODEL 7
REMARK VINA RESULT:      -6.2      2.469      3.225
REMARK  Name = 
REMARK  7 active torsions:
REMARK  status: ('A' for Active; 'I' for Inactive)
REMARK    1  A    between atoms: C_1  and  N_2
REMARK    2  A    between atoms: C_13  and  N_14
REMARK    3  A    between atoms: N_16  and  C_17
REMARK    4  A    between atoms: C_17  and  C_18
REMARK    5  A    between atoms: C_26  and  C_27
REMARK    6  A    between atoms: C_27  and  C_28
REMARK    7  A    between atoms: C_28  and  O_30
REMARK                            x       y       z     vdW  Elec       q    Type
REMARK                         _______ _______ _______ _____ _____    ______ ____
ROOT
ATOM      1  C   UNL     1       1.016  10.376  18.370  0.00  0.00    +0.000 C 
ATOM      2  N   UNL     1      -0.152  11.021  18.937  0.00  0.00    +0.000 N 
ATOM      3  C   UNL     1      -0.002  11.620  20.183  0.00  0.00    +0.000 A 
ATOM      4  O   UNL     1       0.981  11.446  20.899  0.00  0.00    +0.000 OA
ATOM      5  C   UNL     1      -1.081  12.479  20.545  0.00  0.00    +0.000 A 
ATOM      6  C   UNL     1      -2.325  12.508  19.974  0.00  0.00    +0.000 A 
ATOM      7  N   UNL     1      -3.106  13.455  20.624  0.00  0.00    +0.000 NA
ATOM      8  C   UNL     1      -2.346  13.981  21.587  0.00  0.00    +0.000 A 
ATOM      9  N   UNL     1      -2.713  14.828  22.604  0.00  0.00    +0.000 N 
ATOM     10  C   UNL     1      -2.000  14.895  23.884  0.00  0.00    +0.000 C 
ATOM     11  C   UNL     1      -2.969  15.011  25.045  0.00  0.00    +0.000 C 
ATOM     12  C   UNL     1      -3.860  16.229  24.871  0.00  0.00    +0.000 C 
ATOM     13  C   UNL     1      -4.579  16.195  23.511  0.00  0.00    +0.000 C 
ATOM     14  C   UNL     1      -3.585  15.980  22.331  0.00  0.00    +0.000 C 
ATOM     15  N   UNL     1      -1.049  13.517  21.440  0.00  0.00    +0.000 N 
ATOM     16  C   UNL     1      -2.591  11.607  18.837  0.00  0.00    +0.000 A 
ATOM     17  C   UNL     1      -3.863  11.355  18.258  0.00  0.00    +0.000 A 
ATOM     18  C   UNL     1      -3.949  10.383  17.229  0.00  0.00    +0.000 A 
ATOM     19  C   UNL     1      -2.826   9.780  16.679  0.00  0.00    +0.000 A 
ATOM     20  C   UNL     1      -1.577  10.067  17.197  0.00  0.00    +0.000 A 
ATOM     21  C   UNL     1      -1.442  10.919  18.305  0.00  0.00    +0.000 A 
ENDROOT
BRANCH  13  22
ATOM     22  N   UNL     1      -5.371  17.427  23.379  0.00  0.00    +0.000 NA
ATOM     23  H   UNL     1      -5.814  17.455  22.460  0.00  0.00    +0.000 HD
ATOM     24  H   UNL     1      -4.736  18.227  23.396  0.00  0.00    +0.000 HD
ENDBRANCH  13  22
BRANCH  15  25
ATOM     25  C   UNL     1       0.173  14.040  22.047  0.00  0.00    +0.000 C 
BRANCH  25  26
ATOM     26  C   UNL     1       0.808  15.213  21.340  0.00  0.00    +0.000 A 
ATOM     27  C   UNL     1       0.097  16.411  21.150  0.00  0.00    +0.000 A 
ATOM     28  C   UNL     1       0.680  17.482  20.474  0.00  0.00    +0.000 A 
ATOM     29  C   UNL     1       1.989  17.386  20.012  0.00  0.00    +0.000 A 
ATOM     30  C   UNL     1       2.730  16.235  20.255  0.00  0.00    +0.000 A 
ATOM     31  C   UNL     1       2.150  15.156  20.936  0.00  0.00    +0.000 A 
ATOM     32 CL   UNL     1       3.168  13.805  21.293  0.00  0.00    +0.000 Cl
ENDBRANCH  25  26
ENDBRANCH  15  25
BRANCH  17  33
ATOM     33  C   UNL     1      -5.152  11.981  18.761  0.00  0.00    +0.000 C 
BRANCH  33  34
ATOM     34  C   UNL     1      -6.464  11.370  18.268  0.00  0.00    +0.000 C 
ATOM     35  O   UNL     1      -7.007  10.350  18.662  0.00  0.00    +0.000 OA
BRANCH  34  36
ATOM     36  O   UNL     1      -7.022  12.104  17.271  0.00  0.00    +0.000 OA
ATOM     37  H   UNL     1      -6.363  12.522  16.685  0.00  0.00    +0.000 HD
ENDBRANCH  34  36
ENDBRANCH  33  34
ENDBRANCH  17  33
TORSDOF 6
ENDMDL
MODEL 8
REMARK VINA RESULT:      -6.2      1.973      2.651
REMARK  Name = 
REMARK  7 active torsions:
REMARK  status: ('A' for Active; 'I' for Inactive)
REMARK    1  A    between atoms: C_1  and  N_2
REMARK    2  A    between atoms: C_13  and  N_14
REMARK    3  A    between atoms: N_16  and  C_17
REMARK    4  A    between atoms: C_17  and  C_18
REMARK    5  A    between atoms: C_26  and  C_27
REMARK    6  A    between atoms: C_27  and  C_28
REMARK    7  A    between atoms: C_28  and  O_30
REMARK                            x       y       z     vdW  Elec       q    Type
REMARK                         _______ _______ _______ _____ _____    ______ ____
ROOT
ATOM      1  C   UNL     1       0.631  10.397  18.294  0.00  0.00    +0.000 C 
ATOM      2  N   UNL     1      -0.404  11.150  18.977  0.00  0.00    +0.000 N 
ATOM      3  C   UNL     1      -0.050  11.776  20.167  0.00  0.00    +0.000 A 
ATOM      4  O   UNL     1       1.002  11.549  20.760  0.00  0.00    +0.000 OA
ATOM      5  C   UNL     1      -1.006  12.728  20.627  0.00  0.00    +0.000 A 
ATOM      6  C   UNL     1      -2.308  12.835  20.216  0.00  0.00    +0.000 A 
ATOM      7  N   UNL     1      -2.927  13.861  20.920  0.00  0.00    +0.000 NA
ATOM      8  C   UNL     1      -2.012  14.357  21.756  0.00  0.00    +0.000 A 
ATOM      9  N   UNL     1      -2.181  15.264  22.773  0.00  0.00    +0.000 N 
ATOM     10  C   UNL     1      -1.305  15.317  23.949  0.00  0.00    +0.000 C 
ATOM     11  C   UNL     1      -2.104  15.546  25.218  0.00  0.00    +0.000 C 
ATOM     12  C   UNL     1      -2.919  16.823  25.106  0.00  0.00    +0.000 C 
ATOM     13  C   UNL     1      -3.808  16.802  23.851  0.00  0.00    +0.000 C 
ATOM     14  C   UNL     1      -2.994  16.471  22.565  0.00  0.00    +0.000 C 
ATOM     15  N   UNL     1      -0.783  13.790  21.465  0.00  0.00    +0.000 N 
ATOM     16  C   UNL     1      -2.786  11.921  19.162  0.00  0.00    +0.000 A 
ATOM     17  C   UNL     1      -4.137  11.750  18.760  0.00  0.00    +0.000 A 
ATOM     18  C   UNL     1      -4.426  10.756  17.793  0.00  0.00    +0.000 A 
ATOM     19  C   UNL     1      -3.432  10.049  17.131  0.00  0.00    +0.000 A 
ATOM     20  C   UNL     1      -2.108  10.254  17.474  0.00  0.00    +0.000 A 
ATOM     21  C   UNL     1      -1.769  11.129  18.518  0.00  0.00    +0.000 A 
ENDROOT
BRANCH  13  22
ATOM     22  N   UNL     1      -4.518  18.087  23.768  0.00  0.00    +0.000 NA
ATOM     23  H   UNL     1      -3.846  18.845  23.643  0.00  0.00    +0.000 HD
ATOM     24  H   UNL     1      -4.967  18.271  24.666  0.00  0.00    +0.000 HD
ENDBRANCH  13  22
BRANCH  15  25
ATOM     25  C   UNL     1       0.543  14.235  21.890  0.00  0.00    +0.000 C 
BRANCH  25  26
ATOM     26  C   UNL     1       1.203  15.267  21.008  0.00  0.00    +0.000 A 
ATOM     27  C   UNL     1       0.511  16.426  20.613  0.00  0.00    +0.000 A 
ATOM     28  C   UNL     1       1.116  17.364  19.779  0.00  0.00    +0.000 A 
ATOM     29  C   UNL     1       2.429  17.178  19.356  0.00  0.00    +0.000 A 
ATOM     30  C   UNL     1       3.151  16.074  19.796  0.00  0.00    +0.000 A 
ATOM     31  C   UNL     1       2.548  15.128  20.637  0.00  0.00    +0.000 A 
ATOM     32 CL   UNL     1       3.543  13.843  21.226  0.00  0.00    +0.000 Cl
ENDBRANCH  25  26
ENDBRANCH  15  25
BRANCH  17  33
ATOM     33  C   UNL     1      -5.300  12.492  19.396  0.00  0.00    +0.000 C 
BRANCH  33  34
ATOM     34  C   UNL     1      -5.952  11.850  20.620  0.00  0.00    +0.000 C 
ATOM     35  O   UNL     1      -6.805  10.977  20.640  0.00  0.00    +0.000 OA
BRANCH  34  36
ATOM     36  O   UNL     1      -5.478  12.374  21.780  0.00  0.00    +0.000 OA
ATOM     37  H   UNL     1      -5.887  11.984  22.575  0.00  0.00    +0.000 HD
ENDBRANCH  34  36
ENDBRANCH  33  34
ENDBRANCH  17  33
TORSDOF 6
ENDMDL
MODEL 9
REMARK VINA RESULT:      -6.1      9.715     12.833
REMARK  Name = 
REMARK  7 active torsions:
REMARK  status: ('A' for Active; 'I' for Inactive)
REMARK    1  A    between atoms: C_1  and  N_2
REMARK    2  A    between atoms: C_13  and  N_14
REMARK    3  A    between atoms: N_16  and  C_17
REMARK    4  A    between atoms: C_17  and  C_18
REMARK    5  A    between atoms: C_26  and  C_27
REMARK    6  A    between atoms: C_27  and  C_28
REMARK    7  A    between atoms: C_28  and  O_30
REMARK                            x       y       z     vdW  Elec       q    Type
REMARK                         _______ _______ _______ _____ _____    ______ ____
ROOT
ATOM      1  C   UNL     1      10.652  17.289  18.010  0.00  0.00    +0.000 C 
ATOM      2  N   UNL     1      10.278  16.123  18.787  0.00  0.00    +0.000 N 
ATOM      3  C   UNL     1       9.834  16.344  20.086  0.00  0.00    +0.000 A 
ATOM      4  O   UNL     1       9.946  17.424  20.661  0.00  0.00    +0.000 OA
ATOM      5  C   UNL     1       9.209  15.211  20.684  0.00  0.00    +0.000 A 
ATOM      6  C   UNL     1       9.298  13.913  20.256  0.00  0.00    +0.000 A 
ATOM      7  N   UNL     1       8.579  13.096  21.120  0.00  0.00    +0.000 NA
ATOM      8  C   UNL     1       8.074  13.891  22.067  0.00  0.00    +0.000 A 
ATOM      9  N   UNL     1       7.438  13.540  23.232  0.00  0.00    +0.000 N 
ATOM     10  C   UNL     1       7.432  14.392  24.425  0.00  0.00    +0.000 C 
ATOM     11  C   UNL     1       7.623  13.570  25.686  0.00  0.00    +0.000 C 
ATOM     12  C   UNL     1       6.547  12.504  25.792  0.00  0.00    +0.000 C 
ATOM     13  C   UNL     1       6.510  11.632  24.525  0.00  0.00    +0.000 C 
ATOM     14  C   UNL     1       6.409  12.489  23.228  0.00  0.00    +0.000 C 
ATOM     15  N   UNL     1       8.307  15.210  21.716  0.00  0.00    +0.000 N 
ATOM     16  C   UNL     1      10.070  13.633  19.032  0.00  0.00    +0.000 A 
ATOM     17  C   UNL     1      10.437  12.347  18.557  0.00  0.00    +0.000 A 
ATOM     18  C   UNL     1      11.264  12.267  17.409  0.00  0.00    +0.000 A 
ATOM     19  C   UNL     1      11.607  13.385  16.660  0.00  0.00    +0.000 A 
ATOM     20  C   UNL     1      11.201  14.637  17.082  0.00  0.00    +0.000 A 
ATOM     21  C   UNL     1      10.494  14.791  18.285  0.00  0.00    +0.000 A 
ENDROOT
BRANCH  13  22
ATOM     22  N   UNL     1       5.410  10.666  24.662  0.00  0.00    +0.000 NA
ATOM     23  H   UNL     1       5.041  10.429  23.741  0.00  0.00    +0.000 HD
ATOM     24  H   UNL     1       4.637  11.118  25.153  0.00  0.00    +0.000 HD
ENDBRANCH  13  22
BRANCH  15  25
ATOM     25  C   UNL     1       7.686  16.415  22.264  0.00  0.00    +0.000 C 
BRANCH  25  26
ATOM     26  C   UNL     1       6.341  16.782  21.685  0.00  0.00    +0.000 A 
ATOM     27  C   UNL     1       6.047  16.536  20.332  0.00  0.00    +0.000 A 
ATOM     28  C   UNL     1       4.813  16.900  19.796  0.00  0.00    +0.000 A 
ATOM     29  C   UNL     1       3.843  17.479  20.609  0.00  0.00    +0.000 A 
ATOM     30  C   UNL     1       4.091  17.663  21.965  0.00  0.00    +0.000 A 
ATOM     31  C   UNL     1       5.330  17.297  22.510  0.00  0.00    +0.000 A 
ATOM     32 CL   UNL     1       5.522  17.457  24.220  0.00  0.00    +0.000 Cl
ENDBRANCH  25  26
ENDBRANCH  15  25
BRANCH  17  33
ATOM     33  C   UNL     1      10.092  11.056  19.281  0.00  0.00    +0.000 C 
BRANCH  33  34
ATOM     34  C   UNL     1       9.006  10.177  18.660  0.00  0.00    +0.000 C 
ATOM     35  O   UNL     1       8.815   8.985  18.844  0.00  0.00    +0.000 OA
BRANCH  34  36
ATOM     36  O   UNL     1       8.209  10.877  17.813  0.00  0.00    +0.000 OA
ATOM     37  H   UNL     1       7.507  10.335  17.407  0.00  0.00    +0.000 HD
ENDBRANCH  34  36
ENDBRANCH  33  34
ENDBRANCH  17  33
TORSDOF 6
ENDMDL
