MODEL 1
REMARK VINA RESULT:      -8.4      0.000      0.000
REMARK  Name = 
REMARK  6 active torsions:
REMARK  status: ('A' for Active; 'I' for Inactive)
REMARK    1  A    between atoms: C_1  and  O_2
REMARK    2  A    between atoms: O_2  and  C_3
REMARK    3  A    between atoms: C_15  and  C_17
REMARK    4  A    between atoms: C_17  and  C_18
REMARK    5  A    between atoms: C_18  and  C_19
REMARK    6  A    between atoms: C_26  and  C_27
REMARK                            x       y       z     vdW  Elec       q    Type
REMARK                         _______ _______ _______ _____ _____    ______ ____
ROOT
ATOM      1  C   UNL     1       6.713   5.416  14.959  0.00  0.00    +0.000 A 
ATOM      2  C   UNL     1       7.297   4.465  15.796  0.00  0.00    +0.000 A 
ATOM      3  C   UNL     1       6.850   4.273  17.108  0.00  0.00    +0.000 A 
ATOM      4  C   UNL     1       5.786   5.067  17.549  0.00  0.00    +0.000 A 
ATOM      5  N   UNL     1       5.142   5.096  18.769  0.00  0.00    +0.000 N 
ATOM      6  C   UNL     1       4.112   6.001  18.727  0.00  0.00    +0.000 A 
ATOM      7  C   UNL     1       4.117   6.595  17.484  0.00  0.00    +0.000 A 
ATOM      8  C   UNL     1       5.165   6.011  16.728  0.00  0.00    +0.000 A 
ATOM      9  C   UNL     1       5.631   6.180  15.410  0.00  0.00    +0.000 A 
ATOM     10  C   UNL     1       3.114   7.627  17.119  0.00  0.00    +0.000 C 
ATOM     11  C   UNL     1       1.874   7.494  18.025  0.00  0.00    +0.000 C 
ATOM     12  N   UNL     1       2.219   7.336  19.457  0.00  0.00    +0.000 N 
ATOM     13  C   UNL     1       1.646   8.075  20.486  0.00  0.00    +0.000 C 
ATOM     14  O   UNL     1       1.956   7.906  21.667  0.00  0.00    +0.000 OA
ATOM     15  C   UNL     1       3.111   6.209  19.833  0.00  0.00    +0.000 C 
ATOM     16  H   UNL     1       5.354   4.485  19.545  0.00  0.00    +0.000 HD
ENDROOT
BRANCH  15  17
ATOM     17  C   UNL     1       2.312   4.941  20.145  0.00  0.00    +0.000 A 
ATOM     18  C   UNL     1       2.328   4.341  21.419  0.00  0.00    +0.000 A 
ATOM     19  C   UNL     1       1.594   3.182  21.677  0.00  0.00    +0.000 A 
ATOM     20  C   UNL     1       0.847   2.591  20.663  0.00  0.00    +0.000 A 
ATOM     21  C   UNL     1       0.822   3.164  19.395  0.00  0.00    +0.000 A 
ATOM     22  C   UNL     1       1.547   4.331  19.139  0.00  0.00    +0.000 A 
ENDBRANCH  15  17
BRANCH   1  24
ATOM     23  C   UNL     1       7.099   4.324  12.907  0.00  0.00    +0.000 C 
ATOM     24  O   UNL     1       7.242   5.501  13.697  0.00  0.00    +0.000 OA
ENDBRANCH   1  24
BRANCH  13  25
ATOM     25  C   UNL     1       0.611   9.123  20.100  0.00  0.00    +0.000 C 
BRANCH  25  26
ATOM     26  C   UNL     1       1.085  10.539  20.427  0.00  0.00    +0.000 C 
BRANCH  26  27
ATOM     27  C   UNL     1       0.141  11.255  21.363  0.00  0.00    +0.000 A 
ATOM     28  C   UNL     1       0.006  12.651  21.311  0.00  0.00    +0.000 A 
ATOM     29  C   UNL     1      -0.870  13.313  22.172  0.00  0.00    +0.000 A 
ATOM     30  C   UNL     1      -1.615  12.575  23.089  0.00  0.00    +0.000 A 
ATOM     31  F   UNL     1      -2.461  13.209  23.910  0.00  0.00    +0.000 F 
ATOM     32  C   UNL     1      -1.489  11.193  23.166  0.00  0.00    +0.000 A 
ATOM     33  C   UNL     1      -0.611  10.533  22.305  0.00  0.00    +0.000 A 
ENDBRANCH  26  27
ENDBRANCH  25  26
ENDBRANCH  13  25
TORSDOF 5
ENDMDL
MODEL 2
REMARK VINA RESULT:      -8.4      0.304      1.227
REMARK  Name = 
REMARK  6 active torsions:
REMARK  status: ('A' for Active; 'I' for Inactive)
REMARK    1  A    between atoms: C_1  and  O_2
REMARK    2  A    between atoms: O_2  and  C_3
REMARK    3  A    between atoms: C_15  and  C_17
REMARK    4  A    between atoms: C_17  and  C_18
REMARK    5  A    between atoms: C_18  and  C_19
REMARK    6  A    between atoms: C_26  and  C_27
REMARK                            x       y       z     vdW  Elec       q    Type
REMARK                         _______ _______ _______ _____ _____    ______ ____
ROOT
ATOM      1  C   UNL     1       6.931   5.418  15.106  0.00  0.00    +0.000 A 
ATOM      2  C   UNL     1       7.486   4.479  15.977  0.00  0.00    +0.000 A 
ATOM      3  C   UNL     1       6.984   4.298  17.271  0.00  0.00    +0.000 A 
ATOM      4  C   UNL     1       5.897   5.088  17.658  0.00  0.00    +0.000 A 
ATOM      5  N   UNL     1       5.202   5.125  18.849  0.00  0.00    +0.000 N 
ATOM      6  C   UNL     1       4.168   6.021  18.754  0.00  0.00    +0.000 A 
ATOM      7  C   UNL     1       4.221   6.602  17.506  0.00  0.00    +0.000 A 
ATOM      8  C   UNL     1       5.306   6.019  16.801  0.00  0.00    +0.000 A 
ATOM      9  C   UNL     1       5.826   6.178  15.503  0.00  0.00    +0.000 A 
ATOM     10  C   UNL     1       3.229   7.623  17.088  0.00  0.00    +0.000 C 
ATOM     11  C   UNL     1       1.951   7.490  17.941  0.00  0.00    +0.000 C 
ATOM     12  N   UNL     1       2.236   7.350  19.388  0.00  0.00    +0.000 N 
ATOM     13  C   UNL     1       1.615   8.095  20.385  0.00  0.00    +0.000 C 
ATOM     14  O   UNL     1       1.876   7.941  21.579  0.00  0.00    +0.000 OA
ATOM     15  C   UNL     1       3.120   6.233  19.814  0.00  0.00    +0.000 C 
ATOM     16  H   UNL     1       5.385   4.523  19.640  0.00  0.00    +0.000 HD
ENDROOT
BRANCH  15  17
ATOM     17  C   UNL     1       2.317   4.962  20.105  0.00  0.00    +0.000 A 
ATOM     18  C   UNL     1       1.543   4.324  19.118  0.00  0.00    +0.000 A 
ATOM     19  C   UNL     1       0.816   3.169  19.409  0.00  0.00    +0.000 A 
ATOM     20  C   UNL     1       0.835   2.640  20.696  0.00  0.00    +0.000 A 
ATOM     21  C   UNL     1       1.590   3.259  21.689  0.00  0.00    +0.000 A 
ATOM     22  C   UNL     1       2.327   4.409  21.395  0.00  0.00    +0.000 A 
ENDBRANCH  15  17
BRANCH   1  24
ATOM     23  C   UNL     1       7.085   4.497  12.943  0.00  0.00    +0.000 C 
ATOM     24  O   UNL     1       7.513   5.493  13.867  0.00  0.00    +0.000 OA
ENDBRANCH   1  24
BRANCH  13  25
ATOM     25  C   UNL     1       0.590   9.132  19.944  0.00  0.00    +0.000 C 
BRANCH  25  26
ATOM     26  C   UNL     1       0.958  10.536  20.425  0.00  0.00    +0.000 C 
BRANCH  26  27
ATOM     27  C   UNL     1      -0.100  11.124  21.327  0.00  0.00    +0.000 A 
ATOM     28  C   UNL     1      -0.549  10.419  22.455  0.00  0.00    +0.000 A 
ATOM     29  C   UNL     1      -1.523  10.964  23.292  0.00  0.00    +0.000 A 
ATOM     30  C   UNL     1      -2.052  12.219  23.000  0.00  0.00    +0.000 A 
ATOM     31  F   UNL     1      -2.981  12.745  23.807  0.00  0.00    +0.000 F 
ATOM     32  C   UNL     1      -1.630  12.930  21.882  0.00  0.00    +0.000 A 
ATOM     33  C   UNL     1      -0.657  12.382  21.045  0.00  0.00    +0.000 A 
ENDBRANCH  26  27
ENDBRANCH  25  26
ENDBRANCH  13  25
TORSDOF 5
ENDMDL
MODEL 3
REMARK VINA RESULT:      -8.2      4.136     10.292
REMARK  Name = 
REMARK  6 active torsions:
REMARK  status: ('A' for Active; 'I' for Inactive)
REMARK    1  A    between atoms: C_1  and  O_2
REMARK    2  A    between atoms: O_2  and  C_3
REMARK    3  A    between atoms: C_15  and  C_17
REMARK    4  A    between atoms: C_17  and  C_18
REMARK    5  A    between atoms: C_18  and  C_19
REMARK    6  A    between atoms: C_26  and  C_27
REMARK                            x       y       z     vdW  Elec       q    Type
REMARK                         _______ _______ _______ _____ _____    ______ ____
ROOT
ATOM      1  C   UNL     1      -2.125  15.160  23.801  0.00  0.00    +0.000 A 
ATOM      2  C   UNL     1      -2.281  15.969  22.675  0.00  0.00    +0.000 A 
ATOM      3  C   UNL     1      -1.924  15.520  21.399  0.00  0.00    +0.000 A 
ATOM      4  C   UNL     1      -1.412  14.223  21.291  0.00  0.00    +0.000 A 
ATOM      5  N   UNL     1      -0.987  13.521  20.182  0.00  0.00    +0.000 N 
ATOM      6  C   UNL     1      -0.617  12.253  20.549  0.00  0.00    +0.000 A 
ATOM      7  C   UNL     1      -0.761  12.146  21.915  0.00  0.00    +0.000 A 
ATOM      8  C   UNL     1      -1.267  13.381  22.396  0.00  0.00    +0.000 A 
ATOM      9  C   UNL     1      -1.639  13.855  23.668  0.00  0.00    +0.000 A 
ATOM     10  C   UNL     1      -0.441  10.884  22.627  0.00  0.00    +0.000 C 
ATOM     11  C   UNL     1      -0.498   9.699  21.643  0.00  0.00    +0.000 C 
ATOM     12  N   UNL     1       0.204   9.974  20.368  0.00  0.00    +0.000 N 
ATOM     13  C   UNL     1       1.126   9.114  19.779  0.00  0.00    +0.000 C 
ATOM     14  O   UNL     1       1.681   9.378  18.712  0.00  0.00    +0.000 OA
ATOM     15  C   UNL     1      -0.222  11.164  19.586  0.00  0.00    +0.000 C 
ATOM     16  H   UNL     1      -1.021  13.870  19.233  0.00  0.00    +0.000 HD
ENDROOT
BRANCH  15  17
ATOM     17  C   UNL     1      -1.344  10.818  18.603  0.00  0.00    +0.000 A 
ATOM     18  C   UNL     1      -2.669  11.252  18.797  0.00  0.00    +0.000 A 
ATOM     19  C   UNL     1      -3.675  10.920  17.888  0.00  0.00    +0.000 A 
ATOM     20  C   UNL     1      -3.380  10.132  16.780  0.00  0.00    +0.000 A 
ATOM     21  C   UNL     1      -2.077   9.686  16.573  0.00  0.00    +0.000 A 
ATOM     22  C   UNL     1      -1.067  10.029  17.475  0.00  0.00    +0.000 A 
ENDBRANCH  15  17
BRANCH   1  24
ATOM     23  C   UNL     1      -3.808  16.320  24.974  0.00  0.00    +0.000 C 
ATOM     24  O   UNL     1      -2.517  15.718  24.990  0.00  0.00    +0.000 OA
ENDBRANCH   1  24
BRANCH  13  25
ATOM     25  C   UNL     1       1.437   7.817  20.514  0.00  0.00    +0.000 C 
BRANCH  25  26
ATOM     26  C   UNL     1       2.477   6.978  19.771  0.00  0.00    +0.000 C 
BRANCH  26  27
ATOM     27  C   UNL     1       1.975   5.586  19.470  0.00  0.00    +0.000 A 
ATOM     28  C   UNL     1       2.058   5.063  18.170  0.00  0.00    +0.000 A 
ATOM     29  C   UNL     1       1.599   3.776  17.891  0.00  0.00    +0.000 A 
ATOM     30  C   UNL     1       1.053   3.007  18.917  0.00  0.00    +0.000 A 
ATOM     31  F   UNL     1       0.620   1.769  18.651  0.00  0.00    +0.000 F 
ATOM     32  C   UNL     1       0.951   3.508  20.209  0.00  0.00    +0.000 A 
ATOM     33  C   UNL     1       1.409   4.798  20.485  0.00  0.00    +0.000 A 
ENDBRANCH  26  27
ENDBRANCH  25  26
ENDBRANCH  13  25
TORSDOF 5
ENDMDL
MODEL 4
REMARK VINA RESULT:      -8.2      1.104      1.275
REMARK  Name = 
REMARK  6 active torsions:
REMARK  status: ('A' for Active; 'I' for Inactive)
REMARK    1  A    between atoms: C_1  and  O_2
REMARK    2  A    between atoms: O_2  and  C_3
REMARK    3  A    between atoms: C_15  and  C_17
REMARK    4  A    between atoms: C_17  and  C_18
REMARK    5  A    between atoms: C_18  and  C_19
REMARK    6  A    between atoms: C_26  and  C_27
REMARK                            x       y       z     vdW  Elec       q    Type
REMARK                         _______ _______ _______ _____ _____    ______ ____
ROOT
ATOM      1  C   UNL     1       6.698   5.382  14.954  0.00  0.00    +0.000 A 
ATOM      2  C   UNL     1       7.272   4.421  15.787  0.00  0.00    +0.000 A 
ATOM      3  C   UNL     1       6.824   4.231  17.099  0.00  0.00    +0.000 A 
ATOM      4  C   UNL     1       5.771   5.036  17.544  0.00  0.00    +0.000 A 
ATOM      5  N   UNL     1       5.130   5.070  18.765  0.00  0.00    +0.000 N 
ATOM      6  C   UNL     1       4.110   5.986  18.728  0.00  0.00    +0.000 A 
ATOM      7  C   UNL     1       4.119   6.583  17.486  0.00  0.00    +0.000 A 
ATOM      8  C   UNL     1       5.160   5.990  16.727  0.00  0.00    +0.000 A 
ATOM      9  C   UNL     1       5.625   6.157  15.409  0.00  0.00    +0.000 A 
ATOM     10  C   UNL     1       3.129   7.629  17.127  0.00  0.00    +0.000 C 
ATOM     11  C   UNL     1       1.888   7.508  18.034  0.00  0.00    +0.000 C 
ATOM     12  N   UNL     1       2.234   7.342  19.465  0.00  0.00    +0.000 N 
ATOM     13  C   UNL     1       1.671   8.085  20.498  0.00  0.00    +0.000 C 
ATOM     14  O   UNL     1       1.981   7.909  21.677  0.00  0.00    +0.000 OA
ATOM     15  C   UNL     1       3.114   6.203  19.837  0.00  0.00    +0.000 C 
ATOM     16  H   UNL     1       5.335   4.453  19.540  0.00  0.00    +0.000 HD
ENDROOT
BRANCH  15  17
ATOM     17  C   UNL     1       2.300   4.943  20.146  0.00  0.00    +0.000 A 
ATOM     18  C   UNL     1       2.312   4.339  21.418  0.00  0.00    +0.000 A 
ATOM     19  C   UNL     1       1.565   3.189  21.674  0.00  0.00    +0.000 A 
ATOM     20  C   UNL     1       0.808   2.609  20.660  0.00  0.00    +0.000 A 
ATOM     21  C   UNL     1       0.787   3.187  19.394  0.00  0.00    +0.000 A 
ATOM     22  C   UNL     1       1.525   4.346  19.140  0.00  0.00    +0.000 A 
ENDBRANCH  15  17
BRANCH   1  24
ATOM     23  C   UNL     1       6.996   4.322  12.871  0.00  0.00    +0.000 C 
ATOM     24  O   UNL     1       7.225   5.464  13.691  0.00  0.00    +0.000 OA
ENDBRANCH   1  24
BRANCH  13  25
ATOM     25  C   UNL     1       0.648   9.146  20.116  0.00  0.00    +0.000 C 
BRANCH  25  26
ATOM     26  C   UNL     1       0.585  10.273  21.148  0.00  0.00    +0.000 C 
BRANCH  26  27
ATOM     27  C   UNL     1      -0.648  11.128  20.982  0.00  0.00    +0.000 A 
ATOM     28  C   UNL     1      -1.283  11.689  22.102  0.00  0.00    +0.000 A 
ATOM     29  C   UNL     1      -2.419  12.484  21.949  0.00  0.00    +0.000 A 
ATOM     30  C   UNL     1      -2.924  12.719  20.672  0.00  0.00    +0.000 A 
ATOM     31  F   UNL     1      -4.010  13.488  20.526  0.00  0.00    +0.000 F 
ATOM     32  C   UNL     1      -2.317  12.165  19.551  0.00  0.00    +0.000 A 
ATOM     33  C   UNL     1      -1.181  11.369  19.706  0.00  0.00    +0.000 A 
ENDBRANCH  26  27
ENDBRANCH  25  26
ENDBRANCH  13  25
TORSDOF 5
ENDMDL
MODEL 5
REMARK VINA RESULT:      -8.1      1.569      1.930
REMARK  Name = 
REMARK  6 active torsions:
REMARK  status: ('A' for Active; 'I' for Inactive)
REMARK    1  A    between atoms: C_1  and  O_2
REMARK    2  A    between atoms: O_2  and  C_3
REMARK    3  A    between atoms: C_15  and  C_17
REMARK    4  A    between atoms: C_17  and  C_18
REMARK    5  A    between atoms: C_18  and  C_19
REMARK    6  A    between atoms: C_26  and  C_27
REMARK                            x       y       z     vdW  Elec       q    Type
REMARK                         _______ _______ _______ _____ _____    ______ ____
ROOT
ATOM      1  C   UNL     1       7.036   5.446  15.403  0.00  0.00    +0.000 A 
ATOM      2  C   UNL     1       7.549   4.481  16.272  0.00  0.00    +0.000 A 
ATOM      3  C   UNL     1       6.999   4.276  17.542  0.00  0.00    +0.000 A 
ATOM      4  C   UNL     1       5.907   5.069  17.908  0.00  0.00    +0.000 A 
ATOM      5  N   UNL     1       5.170   5.087  19.074  0.00  0.00    +0.000 N 
ATOM      6  C   UNL     1       4.149   5.997  18.962  0.00  0.00    +0.000 A 
ATOM      7  C   UNL     1       4.254   6.606  17.731  0.00  0.00    +0.000 A 
ATOM      8  C   UNL     1       5.357   6.026  17.053  0.00  0.00    +0.000 A 
ATOM      9  C   UNL     1       5.925   6.209  15.777  0.00  0.00    +0.000 A 
ATOM     10  C   UNL     1       3.287   7.647  17.302  0.00  0.00    +0.000 C 
ATOM     11  C   UNL     1       1.979   7.509  18.105  0.00  0.00    +0.000 C 
ATOM     12  N   UNL     1       2.210   7.333  19.558  0.00  0.00    +0.000 N 
ATOM     13  C   UNL     1       1.560   8.062  20.549  0.00  0.00    +0.000 C 
ATOM     14  O   UNL     1       1.776   7.877  21.747  0.00  0.00    +0.000 OA
ATOM     15  C   UNL     1       3.065   6.196  19.989  0.00  0.00    +0.000 C 
ATOM     16  H   UNL     1       5.317   4.465  19.856  0.00  0.00    +0.000 HD
ENDROOT
BRANCH  15  17
ATOM     17  C   UNL     1       2.240   4.928  20.221  0.00  0.00    +0.000 A 
ATOM     18  C   UNL     1       2.229   4.258  21.459  0.00  0.00    +0.000 A 
ATOM     19  C   UNL     1       1.471   3.101  21.645  0.00  0.00    +0.000 A 
ATOM     20  C   UNL     1       0.725   2.581  20.592  0.00  0.00    +0.000 A 
ATOM     21  C   UNL     1       0.725   3.225  19.358  0.00  0.00    +0.000 A 
ATOM     22  C   UNL     1       1.474   4.391  19.175  0.00  0.00    +0.000 A 
ENDBRANCH  15  17
BRANCH   1  24
ATOM     23  C   UNL     1       7.235   4.594  13.215  0.00  0.00    +0.000 C 
ATOM     24  O   UNL     1       7.663   5.543  14.188  0.00  0.00    +0.000 OA
ENDBRANCH   1  24
BRANCH  13  25
ATOM     25  C   UNL     1       0.563   9.119  20.096  0.00  0.00    +0.000 C 
BRANCH  25  26
ATOM     26  C   UNL     1       0.549  10.327  21.033  0.00  0.00    +0.000 C 
BRANCH  26  27
ATOM     27  C   UNL     1       0.312  11.621  20.292  0.00  0.00    +0.000 A 
ATOM     28  C   UNL     1      -0.778  11.752  19.417  0.00  0.00    +0.000 A 
ATOM     29  C   UNL     1      -1.001  12.949  18.735  0.00  0.00    +0.000 A 
ATOM     30  C   UNL     1      -0.130  14.019  18.928  0.00  0.00    +0.000 A 
ATOM     31  F   UNL     1      -0.348  15.169  18.279  0.00  0.00    +0.000 F 
ATOM     32  C   UNL     1       0.962  13.907  19.781  0.00  0.00    +0.000 A 
ATOM     33  C   UNL     1       1.183  12.708  20.461  0.00  0.00    +0.000 A 
ENDBRANCH  26  27
ENDBRANCH  25  26
ENDBRANCH  13  25
TORSDOF 5
ENDMDL
MODEL 6
REMARK VINA RESULT:      -8.1      1.491      2.032
REMARK  Name = 
REMARK  6 active torsions:
REMARK  status: ('A' for Active; 'I' for Inactive)
REMARK    1  A    between atoms: C_1  and  O_2
REMARK    2  A    between atoms: O_2  and  C_3
REMARK    3  A    between atoms: C_15  and  C_17
REMARK    4  A    between atoms: C_17  and  C_18
REMARK    5  A    between atoms: C_18  and  C_19
REMARK    6  A    between atoms: C_26  and  C_27
REMARK                            x       y       z     vdW  Elec       q    Type
REMARK                         _______ _______ _______ _____ _____    ______ ____
ROOT
ATOM      1  C   UNL     1       6.869   5.421  15.107  0.00  0.00    +0.000 A 
ATOM      2  C   UNL     1       7.430   4.474  15.965  0.00  0.00    +0.000 A 
ATOM      3  C   UNL     1       6.941   4.283  17.261  0.00  0.00    +0.000 A 
ATOM      4  C   UNL     1       5.859   5.072  17.666  0.00  0.00    +0.000 A 
ATOM      5  N   UNL     1       5.176   5.101  18.864  0.00  0.00    +0.000 N 
ATOM      6  C   UNL     1       4.143   6.000  18.786  0.00  0.00    +0.000 A 
ATOM      7  C   UNL     1       4.185   6.592  17.543  0.00  0.00    +0.000 A 
ATOM      8  C   UNL     1       5.261   6.012  16.823  0.00  0.00    +0.000 A 
ATOM      9  C   UNL     1       5.769   6.180  15.521  0.00  0.00    +0.000 A 
ATOM     10  C   UNL     1       3.191   7.618  17.144  0.00  0.00    +0.000 C 
ATOM     11  C   UNL     1       1.921   7.481  18.008  0.00  0.00    +0.000 C 
ATOM     12  N   UNL     1       2.220   7.328  19.451  0.00  0.00    +0.000 N 
ATOM     13  C   UNL     1       1.610   8.066  20.460  0.00  0.00    +0.000 C 
ATOM     14  O   UNL     1       1.883   7.901  21.650  0.00  0.00    +0.000 OA
ATOM     15  C   UNL     1       3.105   6.206  19.859  0.00  0.00    +0.000 C 
ATOM     16  H   UNL     1       5.365   4.492  19.648  0.00  0.00    +0.000 HD
ENDROOT
BRANCH  15  17
ATOM     17  C   UNL     1       2.303   4.934  20.147  0.00  0.00    +0.000 A 
ATOM     18  C   UNL     1       1.498   4.320  19.169  0.00  0.00    +0.000 A 
ATOM     19  C   UNL     1       0.772   3.163  19.458  0.00  0.00    +0.000 A 
ATOM     20  C   UNL     1       0.822   2.610  20.733  0.00  0.00    +0.000 A 
ATOM     21  C   UNL     1       1.607   3.204  21.717  0.00  0.00    +0.000 A 
ATOM     22  C   UNL     1       2.344   4.356  21.426  0.00  0.00    +0.000 A 
ENDBRANCH  15  17
BRANCH   1  24
ATOM     23  C   UNL     1       7.047   4.481  12.954  0.00  0.00    +0.000 C 
ATOM     24  O   UNL     1       7.438   5.506  13.863  0.00  0.00    +0.000 OA
ENDBRANCH   1  24
BRANCH  13  25
ATOM     25  C   UNL     1       0.583   9.108  20.038  0.00  0.00    +0.000 C 
BRANCH  25  26
ATOM     26  C   UNL     1       0.565  10.306  20.987  0.00  0.00    +0.000 C 
BRANCH  26  27
ATOM     27  C   UNL     1       0.294  11.603  20.263  0.00  0.00    +0.000 A 
ATOM     28  C   UNL     1       0.732  12.825  20.799  0.00  0.00    +0.000 A 
ATOM     29  C   UNL     1       0.486  14.023  20.128  0.00  0.00    +0.000 A 
ATOM     30  C   UNL     1      -0.200  14.001  18.916  0.00  0.00    +0.000 A 
ATOM     31  F   UNL     1      -0.429  15.150  18.269  0.00  0.00    +0.000 F 
ATOM     32  C   UNL     1      -0.652  12.803  18.372  0.00  0.00    +0.000 A 
ATOM     33  C   UNL     1      -0.407  11.606  19.046  0.00  0.00    +0.000 A 
ENDBRANCH  26  27
ENDBRANCH  25  26
ENDBRANCH  13  25
TORSDOF 5
ENDMDL
MODEL 7
REMARK VINA RESULT:      -8.0      4.153     10.269
REMARK  Name = 
REMARK  6 active torsions:
REMARK  status: ('A' for Active; 'I' for Inactive)
REMARK    1  A    between atoms: C_1  and  O_2
REMARK    2  A    between atoms: O_2  and  C_3
REMARK    3  A    between atoms: C_15  and  C_17
REMARK    4  A    between atoms: C_17  and  C_18
REMARK    5  A    between atoms: C_18  and  C_19
REMARK    6  A    between atoms: C_26  and  C_27
REMARK                            x       y       z     vdW  Elec       q    Type
REMARK                         _______ _______ _______ _____ _____    ______ ____
ROOT
ATOM      1  C   UNL     1      -1.787  14.380  23.738  0.00  0.00    +0.000 A 
ATOM      2  C   UNL     1      -2.233  15.281  22.770  0.00  0.00    +0.000 A 
ATOM      3  C   UNL     1      -2.056  15.034  21.405  0.00  0.00    +0.000 A 
ATOM      4  C   UNL     1      -1.422  13.841  21.042  0.00  0.00    +0.000 A 
ATOM      5  N   UNL     1      -1.121  13.336  19.794  0.00  0.00    +0.000 N 
ATOM      6  C   UNL     1      -0.545  12.098  19.922  0.00  0.00    +0.000 A 
ATOM      7  C   UNL     1      -0.432  11.818  21.266  0.00  0.00    +0.000 A 
ATOM      8  C   UNL     1      -0.986  12.908  21.985  0.00  0.00    +0.000 A 
ATOM      9  C   UNL     1      -1.181  13.179  23.353  0.00  0.00    +0.000 A 
ATOM     10  C   UNL     1       0.156  10.540  21.740  0.00  0.00    +0.000 C 
ATOM     11  C   UNL     1       0.065   9.478  20.627  0.00  0.00    +0.000 C 
ATOM     12  N   UNL     1       0.494   9.991  19.305  0.00  0.00    +0.000 N 
ATOM     13  C   UNL     1       1.392   9.339  18.465  0.00  0.00    +0.000 C 
ATOM     14  O   UNL     1       1.715   9.798  17.368  0.00  0.00    +0.000 OA
ATOM     15  C   UNL     1      -0.201  11.191  18.770  0.00  0.00    +0.000 C 
ATOM     16  H   UNL     1      -1.363  13.782  18.920  0.00  0.00    +0.000 HD
ENDROOT
BRANCH  15  17
ATOM     17  C   UNL     1      -1.430  10.806  17.942  0.00  0.00    +0.000 A 
ATOM     18  C   UNL     1      -2.337   9.816  18.365  0.00  0.00    +0.000 A 
ATOM     19  C   UNL     1      -3.448   9.479  17.590  0.00  0.00    +0.000 A 
ATOM     20  C   UNL     1      -3.663  10.112  16.370  0.00  0.00    +0.000 A 
ATOM     21  C   UNL     1      -2.776  11.090  15.929  0.00  0.00    +0.000 A 
ATOM     22  C   UNL     1      -1.670  11.436  16.711  0.00  0.00    +0.000 A 
ENDBRANCH  15  17
BRANCH   1  24
ATOM     23  C   UNL     1      -3.012  15.752  25.209  0.00  0.00    +0.000 C 
ATOM     24  O   UNL     1      -2.025  14.740  25.038  0.00  0.00    +0.000 OA
ENDBRANCH   1  24
BRANCH  13  25
ATOM     25  C   UNL     1       1.979   8.024  18.958  0.00  0.00    +0.000 C 
BRANCH  25  26
ATOM     26  C   UNL     1       3.096   7.521  18.044  0.00  0.00    +0.000 C 
BRANCH  26  27
ATOM     27  C   UNL     1       3.107   6.015  17.933  0.00  0.00    +0.000 A 
ATOM     28  C   UNL     1       4.320   5.314  17.849  0.00  0.00    +0.000 A 
ATOM     29  C   UNL     1       4.331   3.923  17.752  0.00  0.00    +0.000 A 
ATOM     30  C   UNL     1       3.124   3.228  17.737  0.00  0.00    +0.000 A 
ATOM     31  F   UNL     1       3.135   1.892  17.651  0.00  0.00    +0.000 F 
ATOM     32  C   UNL     1       1.910   3.902  17.808  0.00  0.00    +0.000 A 
ATOM     33  C   UNL     1       1.902   5.295  17.904  0.00  0.00    +0.000 A 
ENDBRANCH  26  27
ENDBRANCH  25  26
ENDBRANCH  13  25
TORSDOF 5
ENDMDL
MODEL 8
REMARK VINA RESULT:      -7.9      4.536      9.999
REMARK  Name = 
REMARK  6 active torsions:
REMARK  status: ('A' for Active; 'I' for Inactive)
REMARK    1  A    between atoms: C_1  and  O_2
REMARK    2  A    between atoms: O_2  and  C_3
REMARK    3  A    between atoms: C_15  and  C_17
REMARK    4  A    between atoms: C_17  and  C_18
REMARK    5  A    between atoms: C_18  and  C_19
REMARK    6  A    between atoms: C_26  and  C_27
REMARK                            x       y       z     vdW  Elec       q    Type
REMARK                         _______ _______ _______ _____ _____    ______ ____
ROOT
ATOM      1  C   UNL     1      -5.808  12.311  18.161  0.00  0.00    +0.000 A 
ATOM      2  C   UNL     1      -5.736  13.101  19.309  0.00  0.00    +0.000 A 
ATOM      3  C   UNL     1      -4.595  13.110  20.119  0.00  0.00    +0.000 A 
ATOM      4  C   UNL     1      -3.521  12.304  19.729  0.00  0.00    +0.000 A 
ATOM      5  N   UNL     1      -2.287  12.117  20.318  0.00  0.00    +0.000 N 
ATOM      6  C   UNL     1      -1.529  11.273  19.547  0.00  0.00    +0.000 A 
ATOM      7  C   UNL     1      -2.295  10.874  18.473  0.00  0.00    +0.000 A 
ATOM      8  C   UNL     1      -3.553  11.521  18.573  0.00  0.00    +0.000 A 
ATOM      9  C   UNL     1      -4.711  11.534  17.773  0.00  0.00    +0.000 A 
ATOM     10  C   UNL     1      -1.756   9.951  17.444  0.00  0.00    +0.000 C 
ATOM     11  C   UNL     1      -0.215   9.996  17.455  0.00  0.00    +0.000 C 
ATOM     12  N   UNL     1       0.354   9.922  18.821  0.00  0.00    +0.000 N 
ATOM     13  C   UNL     1       1.380   9.060  19.196  0.00  0.00    +0.000 C 
ATOM     14  O   UNL     1       1.830   9.036  20.343  0.00  0.00    +0.000 OA
ATOM     15  C   UNL     1      -0.084  10.941  19.810  0.00  0.00    +0.000 C 
ATOM     16  H   UNL     1      -1.969  12.595  21.150  0.00  0.00    +0.000 HD
ENDROOT
BRANCH  15  17
ATOM     17  C   UNL     1       0.816  12.180  19.775  0.00  0.00    +0.000 A 
ATOM     18  C   UNL     1       1.279  12.802  20.949  0.00  0.00    +0.000 A 
ATOM     19  C   UNL     1       2.094  13.933  20.891  0.00  0.00    +0.000 A 
ATOM     20  C   UNL     1       2.447  14.474  19.659  0.00  0.00    +0.000 A 
ATOM     21  C   UNL     1       1.995  13.878  18.484  0.00  0.00    +0.000 A 
ATOM     22  C   UNL     1       1.189  12.738  18.542  0.00  0.00    +0.000 A 
ENDBRANCH  15  17
BRANCH   1  24
ATOM     23  C   UNL     1      -7.706  13.608  17.643  0.00  0.00    +0.000 C 
ATOM     24  O   UNL     1      -6.979  12.396  17.454  0.00  0.00    +0.000 OA
ENDBRANCH   1  24
BRANCH  13  25
ATOM     25  C   UNL     1       1.932   8.126  18.128  0.00  0.00    +0.000 C 
BRANCH  25  26
ATOM     26  C   UNL     1       2.910   7.107  18.713  0.00  0.00    +0.000 C 
BRANCH  26  27
ATOM     27  C   UNL     1       2.271   5.754  18.913  0.00  0.00    +0.000 A 
ATOM     28  C   UNL     1       1.843   5.348  20.187  0.00  0.00    +0.000 A 
ATOM     29  C   UNL     1       1.247   4.100  20.372  0.00  0.00    +0.000 A 
ATOM     30  C   UNL     1       1.079   3.253  19.279  0.00  0.00    +0.000 A 
ATOM     31  F   UNL     1       0.501   2.059  19.455  0.00  0.00    +0.000 F 
ATOM     32  C   UNL     1       1.505   3.630  18.010  0.00  0.00    +0.000 A 
ATOM     33  C   UNL     1       2.102   4.879  17.828  0.00  0.00    +0.000 A 
ENDBRANCH  26  27
ENDBRANCH  25  26
ENDBRANCH  13  25
TORSDOF 5
ENDMDL
MODEL 9
REMARK VINA RESULT:      -7.8      4.277      9.749
REMARK  Name = 
REMARK  6 active torsions:
REMARK  status: ('A' for Active; 'I' for Inactive)
REMARK    1  A    between atoms: C_1  and  O_2
REMARK    2  A    between atoms: O_2  and  C_3
REMARK    3  A    between atoms: C_15  and  C_17
REMARK    4  A    between atoms: C_17  and  C_18
REMARK    5  A    between atoms: C_18  and  C_19
REMARK    6  A    between atoms: C_26  and  C_27
REMARK                            x       y       z     vdW  Elec       q    Type
REMARK                         _______ _______ _______ _____ _____    ______ ____
ROOT
ATOM      1  C   UNL     1       0.408  16.862  21.083  0.00  0.00    +0.000 A 
ATOM      2  C   UNL     1      -0.069  17.260  19.834  0.00  0.00    +0.000 A 
ATOM      3  C   UNL     1      -0.284  16.336  18.806  0.00  0.00    +0.000 A 
ATOM      4  C   UNL     1      -0.011  14.992  19.079  0.00  0.00    +0.000 A 
ATOM      5  N   UNL     1      -0.130  13.877  18.276  0.00  0.00    +0.000 N 
ATOM      6  C   UNL     1       0.198  12.753  18.990  0.00  0.00    +0.000 A 
ATOM      7  C   UNL     1       0.577  13.148  20.255  0.00  0.00    +0.000 A 
ATOM      8  C   UNL     1       0.445  14.559  20.326  0.00  0.00    +0.000 A 
ATOM      9  C   UNL     1       0.647  15.509  21.346  0.00  0.00    +0.000 A 
ATOM     10  C   UNL     1       0.992  12.158  21.279  0.00  0.00    +0.000 C 
ATOM     11  C   UNL     1       0.422  10.770  20.927  0.00  0.00    +0.000 C 
ATOM     12  N   UNL     1       0.610  10.414  19.502  0.00  0.00    +0.000 N 
ATOM     13  C   UNL     1       1.127   9.201  19.058  0.00  0.00    +0.000 C 
ATOM     14  O   UNL     1       1.259   8.942  17.861  0.00  0.00    +0.000 OA
ATOM     15  C   UNL     1       0.062  11.343  18.478  0.00  0.00    +0.000 C 
ATOM     16  H   UNL     1      -0.483  13.886  17.328  0.00  0.00    +0.000 HD
ENDROOT
BRANCH  15  17
ATOM     17  C   UNL     1      -1.383  10.990  18.116  0.00  0.00    +0.000 A 
ATOM     18  C   UNL     1      -2.483  11.583  18.764  0.00  0.00    +0.000 A 
ATOM     19  C   UNL     1      -3.791  11.241  18.419  0.00  0.00    +0.000 A 
ATOM     20  C   UNL     1      -4.025  10.287  17.434  0.00  0.00    +0.000 A 
ATOM     21  C   UNL     1      -2.952   9.684  16.784  0.00  0.00    +0.000 A 
ATOM     22  C   UNL     1      -1.641  10.035  17.121  0.00  0.00    +0.000 A 
ENDBRANCH  15  17
BRANCH   1  24
ATOM     23  C   UNL     1       1.326  17.503  23.156  0.00  0.00    +0.000 C 
ATOM     24  O   UNL     1       0.571  17.865  22.003  0.00  0.00    +0.000 OA
ENDBRANCH   1  24
BRANCH  13  25
ATOM     25  C   UNL     1       1.539   8.190  20.119  0.00  0.00    +0.000 C 
BRANCH  25  26
ATOM     26  C   UNL     1       2.610   7.229  19.603  0.00  0.00    +0.000 C 
BRANCH  26  27
ATOM     27  C   UNL     1       2.070   5.836  19.386  0.00  0.00    +0.000 A 
ATOM     28  C   UNL     1       1.587   5.082  20.468  0.00  0.00    +0.000 A 
ATOM     29  C   UNL     1       1.082   3.796  20.267  0.00  0.00    +0.000 A 
ATOM     30  C   UNL     1       1.061   3.262  18.981  0.00  0.00    +0.000 A 
ATOM     31  F   UNL     1       0.570   2.032  18.788  0.00  0.00    +0.000 F 
ATOM     32  C   UNL     1       1.544   3.987  17.898  0.00  0.00    +0.000 A 
ATOM     33  C   UNL     1       2.049   5.272  18.101  0.00  0.00    +0.000 A 
ENDBRANCH  26  27
ENDBRANCH  25  26
ENDBRANCH  13  25
TORSDOF 5
ENDMDL
