MODEL 1
REMARK VINA RESULT:      -6.9      0.000      0.000
REMARK  Name = 
REMARK  10 active torsions:
REMARK  status: ('A' for Active; 'I' for Inactive)
REMARK    1  A    between atoms: C_1  and  C_2
REMARK    2  A    between atoms: C_2  and  C_3
REMARK    3  A    between atoms: C_3  and  C_4
REMARK    4  A    between atoms: C_4  and  C_5
REMARK    5  A    between atoms: C_8  and  C_9
REMARK    6  A    between atoms: C_11  and  C_12
REMARK    7  A    between atoms: C_12  and  N_13
REMARK    8  A    between atoms: N_13  and  C_14
REMARK    9  A    between atoms: C_14  and  C_15
REMARK   10  A    between atoms: C_15  and  N_16
REMARK                            x       y       z     vdW  Elec       q    Type
REMARK                         _______ _______ _______ _____ _____    ______ ____
ROOT
ATOM      1  C   UNL     1       3.448   6.860  18.170  0.00  0.00    +0.000 A 
ATOM      2  N   UNL     1       3.773   5.706  18.726  0.00  0.00    +0.000 NA
ATOM      3  C   UNL     1       4.762   5.205  17.904  0.00  0.00    +0.000 A 
ATOM      4  C   UNL     1       4.995   6.091  16.878  0.00  0.00    +0.000 A 
ATOM      5  O   UNL     1       4.159   7.152  17.034  0.00  0.00    +0.000 OA
ENDROOT
BRANCH   1   9
ATOM      6  C   UNL     1       0.506   9.730  19.353  0.00  0.00    +0.000 A 
ATOM      7  C   UNL     1       1.007   9.717  18.046  0.00  0.00    +0.000 A 
ATOM      8  C   UNL     1       1.974   8.780  17.668  0.00  0.00    +0.000 A 
ATOM      9  C   UNL     1       2.461   7.847  18.592  0.00  0.00    +0.000 A 
ATOM     10  C   UNL     1       1.973   7.878  19.904  0.00  0.00    +0.000 A 
ATOM     11  C   UNL     1       1.008   8.810  20.282  0.00  0.00    +0.000 A 
BRANCH   6  12
ATOM     12  C   UNL     1      -0.573  10.699  19.768  0.00  0.00    +0.000 C 
BRANCH  12  13
ATOM     13  C   UNL     1      -1.425  11.210  18.603  0.00  0.00    +0.000 C 
BRANCH  13  15
ATOM     14  C   UNL     1      -2.363  10.156  16.526  0.00  0.00    +0.000 C 
ATOM     15  C   UNL     1      -2.390  10.158  18.047  0.00  0.00    +0.000 C 
ENDBRANCH  13  15
ENDBRANCH  12  13
ENDBRANCH   6  12
ENDBRANCH   1   9
BRANCH   3  16
ATOM     16  C   UNL     1       5.357   3.856  18.119  0.00  0.00    +0.000 C 
BRANCH  16  17
ATOM     17  N   UNL     1       4.552   2.811  17.463  0.00  0.00    +0.000 NA
ATOM     18  H   UNL     1       5.201   2.232  16.923  0.00  0.00    +0.000 HD
BRANCH  17  19
ATOM     19  C   UNL     1       3.865   1.957  18.448  0.00  0.00    +0.000 C 
BRANCH  19  20
ATOM     20  C   UNL     1       2.335   2.161  18.458  0.00  0.00    +0.000 C 
BRANCH  20  21
ATOM     21  N   UNL     1       1.756   2.173  19.819  0.00  0.00    +0.000 NA
ATOM     22  C   UNL     1       0.571   3.033  19.962  0.00  0.00    +0.000 C 
ATOM     23  C   UNL     1       1.092   4.366  20.457  0.00  0.00    +0.000 C 
ATOM     24  C   UNL     1       2.187   3.947  21.412  0.00  0.00    +0.000 C 
ATOM     25  C   UNL     1       2.741   2.661  20.809  0.00  0.00    +0.000 C 
ENDBRANCH  20  21
ENDBRANCH  19  20
ENDBRANCH  17  19
ENDBRANCH  16  17
ENDBRANCH   3  16
TORSDOF 9
ENDMDL
MODEL 2
REMARK VINA RESULT:      -6.6      1.214      2.004
REMARK  Name = 
REMARK  10 active torsions:
REMARK  status: ('A' for Active; 'I' for Inactive)
REMARK    1  A    between atoms: C_1  and  C_2
REMARK    2  A    between atoms: C_2  and  C_3
REMARK    3  A    between atoms: C_3  and  C_4
REMARK    4  A    between atoms: C_4  and  C_5
REMARK    5  A    between atoms: C_8  and  C_9
REMARK    6  A    between atoms: C_11  and  C_12
REMARK    7  A    between atoms: C_12  and  N_13
REMARK    8  A    between atoms: N_13  and  C_14
REMARK    9  A    between atoms: C_14  and  C_15
REMARK   10  A    between atoms: C_15  and  N_16
REMARK                            x       y       z     vdW  Elec       q    Type
REMARK                         _______ _______ _______ _____ _____    ______ ____
ROOT
ATOM      1  C   UNL     1       3.315   6.909  18.169  0.00  0.00    +0.000 A 
ATOM      2  N   UNL     1       3.625   5.696  18.593  0.00  0.00    +0.000 NA
ATOM      3  C   UNL     1       4.580   5.262  17.695  0.00  0.00    +0.000 A 
ATOM      4  C   UNL     1       4.806   6.244  16.759  0.00  0.00    +0.000 A 
ATOM      5  O   UNL     1       4.002   7.302  17.049  0.00  0.00    +0.000 OA
ENDROOT
BRANCH   1   9
ATOM      6  C   UNL     1       0.476   9.701  19.729  0.00  0.00    +0.000 A 
ATOM      7  C   UNL     1       0.887   9.771  18.393  0.00  0.00    +0.000 A 
ATOM      8  C   UNL     1       1.821   8.859  17.891  0.00  0.00    +0.000 A 
ATOM      9  C   UNL     1       2.364   7.868  18.719  0.00  0.00    +0.000 A 
ATOM     10  C   UNL     1       1.967   7.816  20.060  0.00  0.00    +0.000 A 
ATOM     11  C   UNL     1       1.035   8.724  20.561  0.00  0.00    +0.000 A 
BRANCH   6  12
ATOM     12  C   UNL     1      -0.566  10.644  20.277  0.00  0.00    +0.000 C 
BRANCH  12  13
ATOM     13  C   UNL     1      -0.144  11.345  21.571  0.00  0.00    +0.000 C 
BRANCH  13  15
ATOM     14  C   UNL     1      -2.123  11.804  23.047  0.00  0.00    +0.000 C 
ATOM     15  C   UNL     1      -0.936  10.886  22.799  0.00  0.00    +0.000 C 
ENDBRANCH  13  15
ENDBRANCH  12  13
ENDBRANCH   6  12
ENDBRANCH   1   9
BRANCH   3  16
ATOM     16  C   UNL     1       5.146   3.884  17.753  0.00  0.00    +0.000 C 
BRANCH  16  17
ATOM     17  N   UNL     1       4.105   2.873  17.498  0.00  0.00    +0.000 NA
ATOM     18  H   UNL     1       4.372   2.384  16.639  0.00  0.00    +0.000 HD
BRANCH  17  19
ATOM     19  C   UNL     1       4.024   1.892  18.594  0.00  0.00    +0.000 C 
BRANCH  19  20
ATOM     20  C   UNL     1       3.965   2.550  19.990  0.00  0.00    +0.000 C 
BRANCH  20  21
ATOM     21  N   UNL     1       2.636   2.444  20.630  0.00  0.00    +0.000 NA
ATOM     22  C   UNL     1       1.536   2.169  19.693  0.00  0.00    +0.000 C 
ATOM     23  C   UNL     1       0.961   3.521  19.331  0.00  0.00    +0.000 C 
ATOM     24  C   UNL     1       1.038   4.264  20.645  0.00  0.00    +0.000 C 
ATOM     25  C   UNL     1       2.281   3.700  21.325  0.00  0.00    +0.000 C 
ENDBRANCH  20  21
ENDBRANCH  19  20
ENDBRANCH  17  19
ENDBRANCH  16  17
ENDBRANCH   3  16
TORSDOF 9
ENDMDL
MODEL 3
REMARK VINA RESULT:      -6.5      1.025      1.676
REMARK  Name = 
REMARK  10 active torsions:
REMARK  status: ('A' for Active; 'I' for Inactive)
REMARK    1  A    between atoms: C_1  and  C_2
REMARK    2  A    between atoms: C_2  and  C_3
REMARK    3  A    between atoms: C_3  and  C_4
REMARK    4  A    between atoms: C_4  and  C_5
REMARK    5  A    between atoms: C_8  and  C_9
REMARK    6  A    between atoms: C_11  and  C_12
REMARK    7  A    between atoms: C_12  and  N_13
REMARK    8  A    between atoms: N_13  and  C_14
REMARK    9  A    between atoms: C_14  and  C_15
REMARK   10  A    between atoms: C_15  and  N_16
REMARK                            x       y       z     vdW  Elec       q    Type
REMARK                         _______ _______ _______ _____ _____    ______ ____
ROOT
ATOM      1  C   UNL     1       3.328   6.980  18.236  0.00  0.00    +0.000 A 
ATOM      2  N   UNL     1       3.704   5.817  18.739  0.00  0.00    +0.000 NA
ATOM      3  C   UNL     1       4.668   5.369  17.859  0.00  0.00    +0.000 A 
ATOM      4  C   UNL     1       4.835   6.293  16.854  0.00  0.00    +0.000 A 
ATOM      5  O   UNL     1       3.981   7.327  17.081  0.00  0.00    +0.000 OA
ENDROOT
BRANCH   1   9
ATOM      6  C   UNL     1       0.370   9.734  19.637  0.00  0.00    +0.000 A 
ATOM      7  C   UNL     1       0.819   9.780  18.312  0.00  0.00    +0.000 A 
ATOM      8  C   UNL     1       1.792   8.881  17.863  0.00  0.00    +0.000 A 
ATOM      9  C   UNL     1       2.336   7.927  18.732  0.00  0.00    +0.000 A 
ATOM     10  C   UNL     1       1.900   7.899  20.062  0.00  0.00    +0.000 A 
ATOM     11  C   UNL     1       0.930   8.794  20.511  0.00  0.00    +0.000 A 
BRANCH   6  12
ATOM     12  C   UNL     1      -0.713  10.661  20.129  0.00  0.00    +0.000 C 
BRANCH  12  13
ATOM     13  C   UNL     1      -0.353  12.146  20.014  0.00  0.00    +0.000 C 
BRANCH  13  15
ATOM     14  C   UNL     1      -0.824  12.125  22.480  0.00  0.00    +0.000 C 
ATOM     15  C   UNL     1      -0.803  12.976  21.219  0.00  0.00    +0.000 C 
ENDBRANCH  13  15
ENDBRANCH  12  13
ENDBRANCH   6  12
ENDBRANCH   1   9
BRANCH   3  16
ATOM     16  C   UNL     1       5.304   4.029  18.005  0.00  0.00    +0.000 C 
BRANCH  16  17
ATOM     17  N   UNL     1       4.557   3.004  17.256  0.00  0.00    +0.000 NA
ATOM     18  H   UNL     1       5.242   2.481  16.704  0.00  0.00    +0.000 HD
BRANCH  17  19
ATOM     19  C   UNL     1       3.868   2.067  18.161  0.00  0.00    +0.000 C 
BRANCH  19  20
ATOM     20  C   UNL     1       2.346   2.319  18.244  0.00  0.00    +0.000 C 
BRANCH  20  21
ATOM     21  N   UNL     1       1.806   2.189  19.614  0.00  0.00    +0.000 NA
ATOM     22  C   UNL     1       0.579   2.966  19.854  0.00  0.00    +0.000 C 
ATOM     23  C   UNL     1       1.039   4.283  20.442  0.00  0.00    +0.000 C 
ATOM     24  C   UNL     1       2.182   3.853  21.334  0.00  0.00    +0.000 C 
ATOM     25  C   UNL     1       2.790   2.652  20.617  0.00  0.00    +0.000 C 
ENDBRANCH  20  21
ENDBRANCH  19  20
ENDBRANCH  17  19
ENDBRANCH  16  17
ENDBRANCH   3  16
TORSDOF 9
ENDMDL
MODEL 4
REMARK VINA RESULT:      -6.5      1.088      2.083
REMARK  Name = 
REMARK  10 active torsions:
REMARK  status: ('A' for Active; 'I' for Inactive)
REMARK    1  A    between atoms: C_1  and  C_2
REMARK    2  A    between atoms: C_2  and  C_3
REMARK    3  A    between atoms: C_3  and  C_4
REMARK    4  A    between atoms: C_4  and  C_5
REMARK    5  A    between atoms: C_8  and  C_9
REMARK    6  A    between atoms: C_11  and  C_12
REMARK    7  A    between atoms: C_12  and  N_13
REMARK    8  A    between atoms: N_13  and  C_14
REMARK    9  A    between atoms: C_14  and  C_15
REMARK   10  A    between atoms: C_15  and  N_16
REMARK                            x       y       z     vdW  Elec       q    Type
REMARK                         _______ _______ _______ _____ _____    ______ ____
ROOT
ATOM      1  C   UNL     1       3.262   7.095  18.307  0.00  0.00    +0.000 A 
ATOM      2  N   UNL     1       3.733   5.996  18.870  0.00  0.00    +0.000 NA
ATOM      3  C   UNL     1       4.666   5.531  17.965  0.00  0.00    +0.000 A 
ATOM      4  C   UNL     1       4.718   6.381  16.885  0.00  0.00    +0.000 A 
ATOM      5  O   UNL     1       3.822   7.384  17.089  0.00  0.00    +0.000 OA
ENDROOT
BRANCH   1   9
ATOM      6  C   UNL     1       0.342   9.847  19.788  0.00  0.00    +0.000 A 
ATOM      7  C   UNL     1       0.898   8.875  20.627  0.00  0.00    +0.000 A 
ATOM      8  C   UNL     1       1.847   7.973  20.135  0.00  0.00    +0.000 A 
ATOM      9  C   UNL     1       2.250   8.025  18.794  0.00  0.00    +0.000 A 
ATOM     10  C   UNL     1       1.674   8.985  17.953  0.00  0.00    +0.000 A 
ATOM     11  C   UNL     1       0.729   9.885  18.443  0.00  0.00    +0.000 A 
BRANCH   6  12
ATOM     12  C   UNL     1      -0.646  10.860  20.311  0.00  0.00    +0.000 C 
BRANCH  12  13
ATOM     13  C   UNL     1      -0.014  11.937  21.198  0.00  0.00    +0.000 C 
BRANCH  13  15
ATOM     14  C   UNL     1       2.134  13.104  20.630  0.00  0.00    +0.000 C 
ATOM     15  C   UNL     1       0.630  13.078  20.405  0.00  0.00    +0.000 C 
ENDBRANCH  13  15
ENDBRANCH  12  13
ENDBRANCH   6  12
ENDBRANCH   1   9
BRANCH   3  16
ATOM     16  C   UNL     1       5.385   4.241  18.169  0.00  0.00    +0.000 C 
BRANCH  16  17
ATOM     17  N   UNL     1       4.752   3.155  17.401  0.00  0.00    +0.000 NA
ATOM     18  H   UNL     1       5.507   2.639  16.940  0.00  0.00    +0.000 HD
BRANCH  17  19
ATOM     19  C   UNL     1       4.016   2.229  18.279  0.00  0.00    +0.000 C 
BRANCH  19  20
ATOM     20  C   UNL     1       2.489   2.457  18.251  0.00  0.00    +0.000 C 
BRANCH  20  21
ATOM     21  N   UNL     1       1.847   2.280  19.571  0.00  0.00    +0.000 NA
ATOM     22  C   UNL     1       0.619   3.069  19.754  0.00  0.00    +0.000 C 
ATOM     23  C   UNL     1       1.054   4.351  20.431  0.00  0.00    +0.000 C 
ATOM     24  C   UNL     1       2.121   3.863  21.385  0.00  0.00    +0.000 C 
ATOM     25  C   UNL     1       2.761   2.682  20.662  0.00  0.00    +0.000 C 
ENDBRANCH  20  21
ENDBRANCH  19  20
ENDBRANCH  17  19
ENDBRANCH  16  17
ENDBRANCH   3  16
TORSDOF 9
ENDMDL
MODEL 5
REMARK VINA RESULT:      -6.5      0.902      1.779
REMARK  Name = 
REMARK  10 active torsions:
REMARK  status: ('A' for Active; 'I' for Inactive)
REMARK    1  A    between atoms: C_1  and  C_2
REMARK    2  A    between atoms: C_2  and  C_3
REMARK    3  A    between atoms: C_3  and  C_4
REMARK    4  A    between atoms: C_4  and  C_5
REMARK    5  A    between atoms: C_8  and  C_9
REMARK    6  A    between atoms: C_11  and  C_12
REMARK    7  A    between atoms: C_12  and  N_13
REMARK    8  A    between atoms: N_13  and  C_14
REMARK    9  A    between atoms: C_14  and  C_15
REMARK   10  A    between atoms: C_15  and  N_16
REMARK                            x       y       z     vdW  Elec       q    Type
REMARK                         _______ _______ _______ _____ _____    ______ ____
ROOT
ATOM      1  C   UNL     1       3.303   6.926  18.297  0.00  0.00    +0.000 A 
ATOM      2  N   UNL     1       3.668   5.819  18.920  0.00  0.00    +0.000 NA
ATOM      3  C   UNL     1       4.633   5.275  18.096  0.00  0.00    +0.000 A 
ATOM      4  C   UNL     1       4.810   6.088  17.001  0.00  0.00    +0.000 A 
ATOM      5  O   UNL     1       3.964   7.146  17.116  0.00  0.00    +0.000 OA
ENDROOT
BRANCH   1   9
ATOM      6  C   UNL     1       0.459   9.887  19.493  0.00  0.00    +0.000 A 
ATOM      7  C   UNL     1       0.944   8.950  20.413  0.00  0.00    +0.000 A 
ATOM      8  C   UNL     1       1.869   7.980  20.013  0.00  0.00    +0.000 A 
ATOM      9  C   UNL     1       2.317   7.927  18.687  0.00  0.00    +0.000 A 
ATOM     10  C   UNL     1       1.812   8.852  17.766  0.00  0.00    +0.000 A 
ATOM     11  C   UNL     1       0.891   9.820  18.163  0.00  0.00    +0.000 A 
BRANCH   6  12
ATOM     12  C   UNL     1      -0.501  10.972  19.914  0.00  0.00    +0.000 C 
BRANCH  12  13
ATOM     13  C   UNL     1      -1.276  11.596  18.750  0.00  0.00    +0.000 C 
BRANCH  13  15
ATOM     14  C   UNL     1       0.002  13.627  19.487  0.00  0.00    +0.000 C 
ATOM     15  C   UNL     1      -0.749  12.973  18.337  0.00  0.00    +0.000 C 
ENDBRANCH  13  15
ENDBRANCH  12  13
ENDBRANCH   6  12
ENDBRANCH   1   9
BRANCH   3  16
ATOM     16  C   UNL     1       5.257   3.952  18.383  0.00  0.00    +0.000 C 
BRANCH  16  17
ATOM     17  N   UNL     1       4.499   2.859  17.750  0.00  0.00    +0.000 NA
ATOM     18  H   UNL     1       5.140   2.385  17.109  0.00  0.00    +0.000 HD
BRANCH  17  19
ATOM     19  C   UNL     1       4.021   1.884  18.746  0.00  0.00    +0.000 C 
BRANCH  19  20
ATOM     20  C   UNL     1       3.897   2.482  20.164  0.00  0.00    +0.000 C 
BRANCH  20  21
ATOM     21  N   UNL     1       2.519   2.438  20.699  0.00  0.00    +0.000 NA
ATOM     22  C   UNL     1       1.485   2.206  19.678  0.00  0.00    +0.000 C 
ATOM     23  C   UNL     1       1.001   3.581  19.270  0.00  0.00    +0.000 C 
ATOM     24  C   UNL     1       1.007   4.327  20.584  0.00  0.00    +0.000 C 
ATOM     25  C   UNL     1       2.167   3.712  21.361  0.00  0.00    +0.000 C 
ENDBRANCH  20  21
ENDBRANCH  19  20
ENDBRANCH  17  19
ENDBRANCH  16  17
ENDBRANCH   3  16
TORSDOF 9
ENDMDL
MODEL 6
REMARK VINA RESULT:      -6.4      1.459      2.346
REMARK  Name = 
REMARK  10 active torsions:
REMARK  status: ('A' for Active; 'I' for Inactive)
REMARK    1  A    between atoms: C_1  and  C_2
REMARK    2  A    between atoms: C_2  and  C_3
REMARK    3  A    between atoms: C_3  and  C_4
REMARK    4  A    between atoms: C_4  and  C_5
REMARK    5  A    between atoms: C_8  and  C_9
REMARK    6  A    between atoms: C_11  and  C_12
REMARK    7  A    between atoms: C_12  and  N_13
REMARK    8  A    between atoms: N_13  and  C_14
REMARK    9  A    between atoms: C_14  and  C_15
REMARK   10  A    between atoms: C_15  and  N_16
REMARK                            x       y       z     vdW  Elec       q    Type
REMARK                         _______ _______ _______ _____ _____    ______ ____
ROOT
ATOM      1  C   UNL     1       3.457   6.942  17.735  0.00  0.00    +0.000 A 
ATOM      2  N   UNL     1       3.423   5.644  17.489  0.00  0.00    +0.000 NA
ATOM      3  C   UNL     1       4.581   5.410  16.774  0.00  0.00    +0.000 A 
ATOM      4  C   UNL     1       5.270   6.590  16.620  0.00  0.00    +0.000 A 
ATOM      5  O   UNL     1       4.561   7.579  17.227  0.00  0.00    +0.000 OA
ENDROOT
BRANCH   1   9
ATOM      6  C   UNL     1       0.711   9.393  19.914  0.00  0.00    +0.000 A 
ATOM      7  C   UNL     1       1.295   8.269  20.510  0.00  0.00    +0.000 A 
ATOM      8  C   UNL     1       2.186   7.468  19.790  0.00  0.00    +0.000 A 
ATOM      9  C   UNL     1       2.503   7.773  18.460  0.00  0.00    +0.000 A 
ATOM     10  C   UNL     1       1.900   8.885  17.860  0.00  0.00    +0.000 A 
ATOM     11  C   UNL     1       1.012   9.685  18.578  0.00  0.00    +0.000 A 
BRANCH   6  12
ATOM     12  C   UNL     1      -0.214  10.298  20.688  0.00  0.00    +0.000 C 
BRANCH  12  13
ATOM     13  C   UNL     1       0.105  10.373  22.184  0.00  0.00    +0.000 C 
BRANCH  13  15
ATOM     14  C   UNL     1      -1.306  12.286  22.991  0.00  0.00    +0.000 C 
ATOM     15  C   UNL     1      -1.096  10.781  23.043  0.00  0.00    +0.000 C 
ENDBRANCH  13  15
ENDBRANCH  12  13
ENDBRANCH   6  12
ENDBRANCH   1   9
BRANCH   3  16
ATOM     16  C   UNL     1       4.898   4.067  16.209  0.00  0.00    +0.000 C 
BRANCH  16  17
ATOM     17  N   UNL     1       5.059   3.067  17.279  0.00  0.00    +0.000 NA
ATOM     18  H   UNL     1       5.493   3.548  18.072  0.00  0.00    +0.000 HD
BRANCH  17  19
ATOM     19  C   UNL     1       3.760   2.523  17.711  0.00  0.00    +0.000 C 
BRANCH  19  20
ATOM     20  C   UNL     1       3.739   2.128  19.203  0.00  0.00    +0.000 C 
BRANCH  20  21
ATOM     21  N   UNL     1       2.372   1.950  19.741  0.00  0.00    +0.000 NA
ATOM     22  C   UNL     1       1.315   2.540  18.906  0.00  0.00    +0.000 C 
ATOM     23  C   UNL     1       1.073   3.923  19.472  0.00  0.00    +0.000 C 
ATOM     24  C   UNL     1       1.206   3.689  20.959  0.00  0.00    +0.000 C 
ATOM     25  C   UNL     1       2.243   2.576  21.074  0.00  0.00    +0.000 C 
ENDBRANCH  20  21
ENDBRANCH  19  20
ENDBRANCH  17  19
ENDBRANCH  16  17
ENDBRANCH   3  16
TORSDOF 9
ENDMDL
MODEL 7
REMARK VINA RESULT:      -6.4      5.757      7.177
REMARK  Name = 
REMARK  10 active torsions:
REMARK  status: ('A' for Active; 'I' for Inactive)
REMARK    1  A    between atoms: C_1  and  C_2
REMARK    2  A    between atoms: C_2  and  C_3
REMARK    3  A    between atoms: C_3  and  C_4
REMARK    4  A    between atoms: C_4  and  C_5
REMARK    5  A    between atoms: C_8  and  C_9
REMARK    6  A    between atoms: C_11  and  C_12
REMARK    7  A    between atoms: C_12  and  N_13
REMARK    8  A    between atoms: N_13  and  C_14
REMARK    9  A    between atoms: C_14  and  C_15
REMARK   10  A    between atoms: C_15  and  N_16
REMARK                            x       y       z     vdW  Elec       q    Type
REMARK                         _______ _______ _______ _____ _____    ______ ____
ROOT
ATOM      1  C   UNL     1       8.114   8.302  18.080  0.00  0.00    +0.000 A 
ATOM      2  N   UNL     1       7.369   7.870  17.078  0.00  0.00    +0.000 NA
ATOM      3  C   UNL     1       7.200   6.526  17.343  0.00  0.00    +0.000 A 
ATOM      4  C   UNL     1       7.858   6.204  18.507  0.00  0.00    +0.000 A 
ATOM      5  O   UNL     1       8.449   7.329  18.987  0.00  0.00    +0.000 OA
ENDROOT
BRANCH   1   9
ATOM      6  C   UNL     1       9.519  12.263  18.874  0.00  0.00    +0.000 A 
ATOM      7  C   UNL     1       8.716  12.000  17.758  0.00  0.00    +0.000 A 
ATOM      8  C   UNL     1       8.267  10.701  17.500  0.00  0.00    +0.000 A 
ATOM      9  C   UNL     1       8.617   9.644  18.350  0.00  0.00    +0.000 A 
ATOM     10  C   UNL     1       9.438   9.908  19.453  0.00  0.00    +0.000 A 
ATOM     11  C   UNL     1       9.886  11.203  19.711  0.00  0.00    +0.000 A 
BRANCH   6  12
ATOM     12  C   UNL     1       9.974  13.665  19.198  0.00  0.00    +0.000 C 
BRANCH  12  13
ATOM     13  C   UNL     1      11.496  13.835  19.194  0.00  0.00    +0.000 C 
BRANCH  13  15
ATOM     14  C   UNL     1      11.273  15.083  17.028  0.00  0.00    +0.000 C 
ATOM     15  C   UNL     1      12.081  14.048  17.795  0.00  0.00    +0.000 C 
ENDBRANCH  13  15
ENDBRANCH  12  13
ENDBRANCH   6  12
ENDBRANCH   1   9
BRANCH   3  16
ATOM     16  C   UNL     1       6.483   5.622  16.398  0.00  0.00    +0.000 C 
BRANCH  16  17
ATOM     17  N   UNL     1       6.300   4.283  16.983  0.00  0.00    +0.000 NA
ATOM     18  H   UNL     1       6.781   4.285  17.887  0.00  0.00    +0.000 HD
BRANCH  17  19
ATOM     19  C   UNL     1       4.876   3.980  17.207  0.00  0.00    +0.000 C 
BRANCH  19  20
ATOM     20  C   UNL     1       4.430   4.225  18.665  0.00  0.00    +0.000 C 
BRANCH  20  21
ATOM     21  N   UNL     1       3.164   3.543  19.011  0.00  0.00    +0.000 NA
ATOM     22  C   UNL     1       2.020   4.451  19.185  0.00  0.00    +0.000 C 
ATOM     23  C   UNL     1       1.958   4.750  20.668  0.00  0.00    +0.000 C 
ATOM     24  C   UNL     1       2.321   3.416  21.279  0.00  0.00    +0.000 C 
ATOM     25  C   UNL     1       3.295   2.797  20.281  0.00  0.00    +0.000 C 
ENDBRANCH  20  21
ENDBRANCH  19  20
ENDBRANCH  17  19
ENDBRANCH  16  17
ENDBRANCH   3  16
TORSDOF 9
ENDMDL
MODEL 8
REMARK VINA RESULT:      -6.4      1.874      3.748
REMARK  Name = 
REMARK  10 active torsions:
REMARK  status: ('A' for Active; 'I' for Inactive)
REMARK    1  A    between atoms: C_1  and  C_2
REMARK    2  A    between atoms: C_2  and  C_3
REMARK    3  A    between atoms: C_3  and  C_4
REMARK    4  A    between atoms: C_4  and  C_5
REMARK    5  A    between atoms: C_8  and  C_9
REMARK    6  A    between atoms: C_11  and  C_12
REMARK    7  A    between atoms: C_12  and  N_13
REMARK    8  A    between atoms: N_13  and  C_14
REMARK    9  A    between atoms: C_14  and  C_15
REMARK   10  A    between atoms: C_15  and  N_16
REMARK                            x       y       z     vdW  Elec       q    Type
REMARK                         _______ _______ _______ _____ _____    ______ ____
ROOT
ATOM      1  C   UNL     1       2.587   6.335  18.830  0.00  0.00    +0.000 A 
ATOM      2  N   UNL     1       3.564   5.725  19.479  0.00  0.00    +0.000 NA
ATOM      3  C   UNL     1       3.622   4.475  18.896  0.00  0.00    +0.000 A 
ATOM      4  C   UNL     1       2.668   4.386  17.910  0.00  0.00    +0.000 A 
ATOM      5  O   UNL     1       1.997   5.568  17.859  0.00  0.00    +0.000 OA
ENDROOT
BRANCH   1   9
ATOM      6  C   UNL     1       1.002  10.283  19.272  0.00  0.00    +0.000 A 
ATOM      7  C   UNL     1       1.528   9.857  18.047  0.00  0.00    +0.000 A 
ATOM      8  C   UNL     1       2.051   8.567  17.912  0.00  0.00    +0.000 A 
ATOM      9  C   UNL     1       2.064   7.685  19.000  0.00  0.00    +0.000 A 
ATOM     10  C   UNL     1       1.557   8.124  20.229  0.00  0.00    +0.000 A 
ATOM     11  C   UNL     1       1.034   9.409  20.365  0.00  0.00    +0.000 A 
BRANCH   6  12
ATOM     12  C   UNL     1       0.388  11.652  19.427  0.00  0.00    +0.000 C 
BRANCH  12  13
ATOM     13  C   UNL     1      -1.143  11.651  19.375  0.00  0.00    +0.000 C 
BRANCH  13  15
ATOM     14  C   UNL     1      -2.292  10.162  17.713  0.00  0.00    +0.000 C 
ATOM     15  C   UNL     1      -1.704  11.543  17.954  0.00  0.00    +0.000 C 
ENDBRANCH  13  15
ENDBRANCH  12  13
ENDBRANCH   6  12
ENDBRANCH   1   9
BRANCH   3  16
ATOM     16  C   UNL     1       4.544   3.416  19.397  0.00  0.00    +0.000 C 
BRANCH  16  17
ATOM     17  N   UNL     1       5.942   3.723  19.051  0.00  0.00    +0.000 NA
ATOM     18  H   UNL     1       6.508   2.936  19.378  0.00  0.00    +0.000 HD
BRANCH  17  19
ATOM     19  C   UNL     1       6.121   3.860  17.595  0.00  0.00    +0.000 C 
BRANCH  19  20
ATOM     20  C   UNL     1       7.433   4.581  17.215  0.00  0.00    +0.000 C 
BRANCH  20  21
ATOM     21  N   UNL     1       7.227   5.728  16.304  0.00  0.00    +0.000 NA
ATOM     22  C   UNL     1       7.154   7.031  16.983  0.00  0.00    +0.000 C 
ATOM     23  C   UNL     1       5.680   7.288  17.214  0.00  0.00    +0.000 C 
ATOM     24  C   UNL     1       5.058   6.746  15.947  0.00  0.00    +0.000 C 
ATOM     25  C   UNL     1       5.963   5.584  15.550  0.00  0.00    +0.000 C 
ENDBRANCH  20  21
ENDBRANCH  19  20
ENDBRANCH  17  19
ENDBRANCH  16  17
ENDBRANCH   3  16
TORSDOF 9
ENDMDL
MODEL 9
REMARK VINA RESULT:      -6.4      1.115      1.532
REMARK  Name = 
REMARK  10 active torsions:
REMARK  status: ('A' for Active; 'I' for Inactive)
REMARK    1  A    between atoms: C_1  and  C_2
REMARK    2  A    between atoms: C_2  and  C_3
REMARK    3  A    between atoms: C_3  and  C_4
REMARK    4  A    between atoms: C_4  and  C_5
REMARK    5  A    between atoms: C_8  and  C_9
REMARK    6  A    between atoms: C_11  and  C_12
REMARK    7  A    between atoms: C_12  and  N_13
REMARK    8  A    between atoms: N_13  and  C_14
REMARK    9  A    between atoms: C_14  and  C_15
REMARK   10  A    between atoms: C_15  and  N_16
REMARK                            x       y       z     vdW  Elec       q    Type
REMARK                         _______ _______ _______ _____ _____    ______ ____
ROOT
ATOM      1  C   UNL     1       3.183   7.065  18.451  0.00  0.00    +0.000 A 
ATOM      2  N   UNL     1       3.610   5.988  19.087  0.00  0.00    +0.000 NA
ATOM      3  C   UNL     1       4.556   5.452  18.237  0.00  0.00    +0.000 A 
ATOM      4  C   UNL     1       4.660   6.239  17.114  0.00  0.00    +0.000 A 
ATOM      5  O   UNL     1       3.786   7.273  17.237  0.00  0.00    +0.000 OA
ENDROOT
BRANCH   1   9
ATOM      6  C   UNL     1       0.200   9.912  19.587  0.00  0.00    +0.000 A 
ATOM      7  C   UNL     1       0.680   9.865  18.272  0.00  0.00    +0.000 A 
ATOM      8  C   UNL     1       1.660   8.937  17.910  0.00  0.00    +0.000 A 
ATOM      9  C   UNL     1       2.182   8.045  18.856  0.00  0.00    +0.000 A 
ATOM     10  C   UNL     1       1.715   8.111  20.174  0.00  0.00    +0.000 A 
ATOM     11  C   UNL     1       0.737   9.036  20.537  0.00  0.00    +0.000 A 
BRANCH   6  12
ATOM     12  C   UNL     1      -0.892  10.873  19.987  0.00  0.00    +0.000 C 
BRANCH  12  13
ATOM     13  C   UNL     1      -0.372  12.214  20.513  0.00  0.00    +0.000 C 
BRANCH  13  15
ATOM     14  C   UNL     1      -0.277  13.498  18.359  0.00  0.00    +0.000 C 
ATOM     15  C   UNL     1      -0.910  13.421  19.739  0.00  0.00    +0.000 C 
ENDBRANCH  13  15
ENDBRANCH  12  13
ENDBRANCH   6  12
ENDBRANCH   1   9
BRANCH   3  16
ATOM     16  C   UNL     1       5.235   4.158  18.532  0.00  0.00    +0.000 C 
BRANCH  16  17
ATOM     17  N   UNL     1       4.699   3.074  17.691  0.00  0.00    +0.000 NA
ATOM     18  H   UNL     1       5.503   2.607  17.261  0.00  0.00    +0.000 HD
BRANCH  17  19
ATOM     19  C   UNL     1       3.952   2.087  18.489  0.00  0.00    +0.000 C 
BRANCH  19  20
ATOM     20  C   UNL     1       3.908   2.437  19.993  0.00  0.00    +0.000 C 
BRANCH  20  21
ATOM     21  N   UNL     1       2.546   2.383  20.566  0.00  0.00    +0.000 NA
ATOM     22  C   UNL     1       1.477   2.230  19.565  0.00  0.00    +0.000 C 
ATOM     23  C   UNL     1       1.006   3.635  19.254  0.00  0.00    +0.000 C 
ATOM     24  C   UNL     1       1.065   4.301  20.610  0.00  0.00    +0.000 C 
ATOM     25  C   UNL     1       2.236   3.621  21.313  0.00  0.00    +0.000 C 
ENDBRANCH  20  21
ENDBRANCH  19  20
ENDBRANCH  17  19
ENDBRANCH  16  17
ENDBRANCH   3  16
TORSDOF 9
ENDMDL
