MODEL 1
REMARK VINA RESULT:      -8.1      0.000      0.000
REMARK  Name = 
REMARK  10 active torsions:
REMARK  status: ('A' for Active; 'I' for Inactive)
REMARK    1  A    between atoms: C_1  and  C_2
REMARK    2  A    between atoms: C_2  and  O_4
REMARK    3  A    between atoms: O_4  and  C_5
REMARK    4  A    between atoms: C_7  and  C_8
REMARK    5  A    between atoms: C_8  and  C_10
REMARK    6  A    between atoms: C_10  and  C_11
REMARK    7  A    between atoms: C_23  and  N_24
REMARK    8  A    between atoms: C_27  and  O_28
REMARK    9  A    between atoms: O_28  and  C_29
REMARK   10  A    between atoms: C_29  and  C_30
REMARK                            x       y       z     vdW  Elec       q    Type
REMARK                         _______ _______ _______ _____ _____    ______ ____
ROOT
ATOM      1  C   UNL     1       2.768   5.959  19.441  0.00  0.00    +0.000 A 
ATOM      2  C   UNL     1       3.690   6.371  18.460  0.00  0.00    +0.000 A 
ATOM      3  C   UNL     1       4.104   5.518  17.427  0.00  0.00    +0.000 A 
ATOM      4  C   UNL     1       3.575   4.226  17.384  0.00  0.00    +0.000 A 
ATOM      5  C   UNL     1       2.686   3.811  18.400  0.00  0.00    +0.000 A 
ATOM      6  C   UNL     1       2.295   4.649  19.453  0.00  0.00    +0.000 A 
ENDROOT
BRANCH   5   7
ATOM      7  N   UNL     1       2.195   2.454  18.337  0.00  0.00    +0.000 N 
ATOM      8  O   UNL     1       0.998   2.298  18.052  0.00  0.00    +0.000 OA
ATOM      9  O   UNL     1       2.992   1.544  18.605  0.00  0.00    +0.000 OA
ENDBRANCH   5   7
BRANCH   3  10
ATOM     10  C   UNL     1       5.034   6.105  16.400  0.00  0.00    +0.000 C 
ATOM     11  O   UNL     1       4.539   6.996  15.698  0.00  0.00    +0.000 OA
BRANCH  10  12
ATOM     12  C   UNL     1       6.502   5.617  16.154  0.00  0.00    +0.000 C 
ATOM     13  C   UNL     1       7.428   6.880  16.288  0.00  0.00    +0.000 C 
ATOM     14  C   UNL     1       7.585   7.398  17.718  0.00  0.00    +0.000 C 
ATOM     15  C   UNL     1       8.056   6.308  18.669  0.00  0.00    +0.000 C 
ATOM     16  C   UNL     1       7.158   5.081  18.618  0.00  0.00    +0.000 C 
ATOM     17  C   UNL     1       6.968   4.558  17.197  0.00  0.00    +0.000 C 
BRANCH  12  18
ATOM     18  C   UNL     1       6.703   5.062  14.718  0.00  0.00    +0.000 A 
ATOM     19  C   UNL     1       7.703   5.520  13.843  0.00  0.00    +0.000 A 
ATOM     20  C   UNL     1       7.823   5.003  12.548  0.00  0.00    +0.000 A 
ATOM     21  C   UNL     1       6.973   3.993  12.107  0.00  0.00    +0.000 A 
ATOM     22  C   UNL     1       6.005   3.490  12.963  0.00  0.00    +0.000 A 
ATOM     23  C   UNL     1       5.874   4.019  14.248  0.00  0.00    +0.000 A 
ENDBRANCH  12  18
ENDBRANCH  10  12
ENDBRANCH   3  10
BRANCH   1  24
ATOM     24  O   UNL     1       2.428   6.846  20.475  0.00  0.00    +0.000 OA
BRANCH  24  26
ATOM     25  C   UNL     1       0.873   8.422  21.293  0.00  0.00    +0.000 C 
ATOM     26  C   UNL     1       1.696   7.974  20.121  0.00  0.00    +0.000 C 
ATOM     27  O   UNL     1       1.709   8.525  19.028  0.00  0.00    +0.000 OA
ENDBRANCH  24  26
ENDBRANCH   1  24
BRANCH   6  28
ATOM     28  O   UNL     1       1.364   4.179  20.406  0.00  0.00    +0.000 OA
BRANCH  28  29
ATOM     29  C   UNL     1       1.792   3.535  21.569  0.00  0.00    +0.000 C 
ATOM     30  C   UNL     1       1.074   2.220  21.700  0.00  0.00    +0.000 C 
ATOM     31  O   UNL     1       2.631   3.945  22.358  0.00  0.00    +0.000 OA
ENDBRANCH  28  29
ENDBRANCH   6  28
TORSDOF 8
ENDMDL
MODEL 2
REMARK VINA RESULT:      -8.0      0.576      1.198
REMARK  Name = 
REMARK  10 active torsions:
REMARK  status: ('A' for Active; 'I' for Inactive)
REMARK    1  A    between atoms: C_1  and  C_2
REMARK    2  A    between atoms: C_2  and  O_4
REMARK    3  A    between atoms: O_4  and  C_5
REMARK    4  A    between atoms: C_7  and  C_8
REMARK    5  A    between atoms: C_8  and  C_10
REMARK    6  A    between atoms: C_10  and  C_11
REMARK    7  A    between atoms: C_23  and  N_24
REMARK    8  A    between atoms: C_27  and  O_28
REMARK    9  A    between atoms: O_28  and  C_29
REMARK   10  A    between atoms: C_29  and  C_30
REMARK                            x       y       z     vdW  Elec       q    Type
REMARK                         _______ _______ _______ _____ _____    ______ ____
ROOT
ATOM      1  C   UNL     1       2.565   5.599  19.539  0.00  0.00    +0.000 A 
ATOM      2  C   UNL     1       3.503   6.137  18.638  0.00  0.00    +0.000 A 
ATOM      3  C   UNL     1       4.032   5.384  17.580  0.00  0.00    +0.000 A 
ATOM      4  C   UNL     1       3.601   4.063  17.429  0.00  0.00    +0.000 A 
ATOM      5  C   UNL     1       2.695   3.522  18.367  0.00  0.00    +0.000 A 
ATOM      6  C   UNL     1       2.189   4.261  19.445  0.00  0.00    +0.000 A 
ENDROOT
BRANCH   5   7
ATOM      7  N   UNL     1       2.309   2.141  18.194  0.00  0.00    +0.000 N 
ATOM      8  O   UNL     1       3.217   1.296  18.184  0.00  0.00    +0.000 OA
ATOM      9  O   UNL     1       1.104   1.899  18.032  0.00  0.00    +0.000 OA
ENDBRANCH   5   7
BRANCH   3  10
ATOM     10  C   UNL     1       4.967   6.100  16.643  0.00  0.00    +0.000 C 
ATOM     11  O   UNL     1       4.486   7.093  16.085  0.00  0.00    +0.000 OA
BRANCH  10  12
ATOM     12  C   UNL     1       6.425   5.628  16.318  0.00  0.00    +0.000 C 
ATOM     13  C   UNL     1       7.335   6.909  16.352  0.00  0.00    +0.000 C 
ATOM     14  C   UNL     1       7.574   7.476  17.752  0.00  0.00    +0.000 C 
ATOM     15  C   UNL     1       8.125   6.426  18.704  0.00  0.00    +0.000 C 
ATOM     16  C   UNL     1       7.249   5.183  18.750  0.00  0.00    +0.000 C 
ATOM     17  C   UNL     1       6.976   4.612  17.362  0.00  0.00    +0.000 C 
BRANCH  12  18
ATOM     18  C   UNL     1       6.543   5.030  14.891  0.00  0.00    +0.000 A 
ATOM     19  C   UNL     1       5.625   4.105  14.360  0.00  0.00    +0.000 A 
ATOM     20  C   UNL     1       5.793   3.577  13.076  0.00  0.00    +0.000 A 
ATOM     21  C   UNL     1       6.858   3.982  12.276  0.00  0.00    +0.000 A 
ATOM     22  C   UNL     1       7.754   4.926  12.755  0.00  0.00    +0.000 A 
ATOM     23  C   UNL     1       7.597   5.439  14.043  0.00  0.00    +0.000 A 
ENDBRANCH  12  18
ENDBRANCH  10  12
ENDBRANCH   3  10
BRANCH   1  24
ATOM     24  O   UNL     1       2.108   6.391  20.604  0.00  0.00    +0.000 OA
BRANCH  24  26
ATOM     25  C   UNL     1       1.069   8.311  21.501  0.00  0.00    +0.000 C 
ATOM     26  C   UNL     1       1.724   7.692  20.301  0.00  0.00    +0.000 C 
ATOM     27  O   UNL     1       1.885   8.258  19.228  0.00  0.00    +0.000 OA
ENDBRANCH  24  26
ENDBRANCH   1  24
BRANCH   6  28
ATOM     28  O   UNL     1       1.248   3.666  20.314  0.00  0.00    +0.000 OA
BRANCH  28  29
ATOM     29  C   UNL     1       1.662   2.962  21.447  0.00  0.00    +0.000 C 
ATOM     30  C   UNL     1       3.116   2.605  21.306  0.00  0.00    +0.000 C 
ATOM     31  O   UNL     1       0.976   2.689  22.422  0.00  0.00    +0.000 OA
ENDBRANCH  28  29
ENDBRANCH   6  28
TORSDOF 8
ENDMDL
MODEL 3
REMARK VINA RESULT:      -7.8      3.045      6.146
REMARK  Name = 
REMARK  10 active torsions:
REMARK  status: ('A' for Active; 'I' for Inactive)
REMARK    1  A    between atoms: C_1  and  C_2
REMARK    2  A    between atoms: C_2  and  O_4
REMARK    3  A    between atoms: O_4  and  C_5
REMARK    4  A    between atoms: C_7  and  C_8
REMARK    5  A    between atoms: C_8  and  C_10
REMARK    6  A    between atoms: C_10  and  C_11
REMARK    7  A    between atoms: C_23  and  N_24
REMARK    8  A    between atoms: C_27  and  O_28
REMARK    9  A    between atoms: O_28  and  C_29
REMARK   10  A    between atoms: C_29  and  C_30
REMARK                            x       y       z     vdW  Elec       q    Type
REMARK                         _______ _______ _______ _____ _____    ______ ____
ROOT
ATOM      1  C   UNL     1       0.364   8.484  21.175  0.00  0.00    +0.000 A 
ATOM      2  C   UNL     1       0.975   7.217  21.135  0.00  0.00    +0.000 A 
ATOM      3  C   UNL     1       1.916   6.877  20.151  0.00  0.00    +0.000 A 
ATOM      4  C   UNL     1       2.244   7.838  19.192  0.00  0.00    +0.000 A 
ATOM      5  C   UNL     1       1.590   9.088  19.217  0.00  0.00    +0.000 A 
ATOM      6  C   UNL     1       0.625   9.420  20.178  0.00  0.00    +0.000 A 
ENDROOT
BRANCH   5   7
ATOM      7  N   UNL     1       1.933  10.035  18.181  0.00  0.00    +0.000 N 
ATOM      8  O   UNL     1       1.881   9.636  17.008  0.00  0.00    +0.000 OA
ATOM      9  O   UNL     1       2.290  11.168  18.537  0.00  0.00    +0.000 OA
ENDBRANCH   5   7
BRANCH   3  10
ATOM     10  C   UNL     1       2.551   5.518  20.267  0.00  0.00    +0.000 C 
ATOM     11  O   UNL     1       2.598   5.060  21.415  0.00  0.00    +0.000 OA
BRANCH  10  12
ATOM     12  C   UNL     1       3.177   4.730  19.066  0.00  0.00    +0.000 C 
ATOM     13  C   UNL     1       3.519   3.291  19.597  0.00  0.00    +0.000 C 
ATOM     14  C   UNL     1       2.298   2.406  19.852  0.00  0.00    +0.000 C 
ATOM     15  C   UNL     1       1.403   2.307  18.627  0.00  0.00    +0.000 C 
ATOM     16  C   UNL     1       0.997   3.676  18.104  0.00  0.00    +0.000 C 
ATOM     17  C   UNL     1       2.198   4.586  17.864  0.00  0.00    +0.000 C 
BRANCH  12  18
ATOM     18  C   UNL     1       4.511   5.360  18.584  0.00  0.00    +0.000 A 
ATOM     19  C   UNL     1       4.617   6.168  17.437  0.00  0.00    +0.000 A 
ATOM     20  C   UNL     1       5.849   6.691  17.032  0.00  0.00    +0.000 A 
ATOM     21  C   UNL     1       7.000   6.450  17.777  0.00  0.00    +0.000 A 
ATOM     22  C   UNL     1       6.920   5.694  18.936  0.00  0.00    +0.000 A 
ATOM     23  C   UNL     1       5.694   5.158  19.330  0.00  0.00    +0.000 A 
ENDBRANCH  12  18
ENDBRANCH  10  12
ENDBRANCH   3  10
BRANCH   1  24
ATOM     24  O   UNL     1      -0.602   8.746  22.159  0.00  0.00    +0.000 OA
BRANCH  24  26
ATOM     25  C   UNL     1      -1.259  10.753  23.212  0.00  0.00    +0.000 C 
ATOM     26  C   UNL     1      -0.252   9.643  23.162  0.00  0.00    +0.000 C 
ATOM     27  O   UNL     1       0.724   9.555  23.895  0.00  0.00    +0.000 OA
ENDBRANCH  24  26
ENDBRANCH   1  24
BRANCH   6  28
ATOM     28  O   UNL     1       0.050  10.710  20.167  0.00  0.00    +0.000 OA
BRANCH  28  29
ATOM     29  C   UNL     1      -1.122  10.966  19.451  0.00  0.00    +0.000 C 
ATOM     30  C   UNL     1      -1.696  12.284  19.892  0.00  0.00    +0.000 C 
ATOM     31  O   UNL     1      -1.610  10.257  18.582  0.00  0.00    +0.000 OA
ENDBRANCH  28  29
ENDBRANCH   6  28
TORSDOF 8
ENDMDL
MODEL 4
REMARK VINA RESULT:      -7.5      1.299      3.170
REMARK  Name = 
REMARK  10 active torsions:
REMARK  status: ('A' for Active; 'I' for Inactive)
REMARK    1  A    between atoms: C_1  and  C_2
REMARK    2  A    between atoms: C_2  and  O_4
REMARK    3  A    between atoms: O_4  and  C_5
REMARK    4  A    between atoms: C_7  and  C_8
REMARK    5  A    between atoms: C_8  and  C_10
REMARK    6  A    between atoms: C_10  and  C_11
REMARK    7  A    between atoms: C_23  and  N_24
REMARK    8  A    between atoms: C_27  and  O_28
REMARK    9  A    between atoms: O_28  and  C_29
REMARK   10  A    between atoms: C_29  and  C_30
REMARK                            x       y       z     vdW  Elec       q    Type
REMARK                         _______ _______ _______ _____ _____    ______ ____
ROOT
ATOM      1  C   UNL     1       2.824   4.227  18.466  0.00  0.00    +0.000 A 
ATOM      2  C   UNL     1       3.710   4.666  17.465  0.00  0.00    +0.000 A 
ATOM      3  C   UNL     1       4.032   6.021  17.301  0.00  0.00    +0.000 A 
ATOM      4  C   UNL     1       3.447   6.948  18.167  0.00  0.00    +0.000 A 
ATOM      5  C   UNL     1       2.525   6.499  19.137  0.00  0.00    +0.000 A 
ATOM      6  C   UNL     1       2.175   5.150  19.283  0.00  0.00    +0.000 A 
ENDROOT
BRANCH   5   7
ATOM      7  N   UNL     1       1.916   7.498  19.984  0.00  0.00    +0.000 N 
ATOM      8  O   UNL     1       1.540   8.548  19.442  0.00  0.00    +0.000 OA
ATOM      9  O   UNL     1       1.843   7.253  21.197  0.00  0.00    +0.000 OA
ENDBRANCH   5   7
BRANCH   3  10
ATOM     10  C   UNL     1       5.051   6.350  16.244  0.00  0.00    +0.000 C 
ATOM     11  O   UNL     1       4.690   7.198  15.418  0.00  0.00    +0.000 OA
BRANCH  10  12
ATOM     12  C   UNL     1       6.449   5.655  16.116  0.00  0.00    +0.000 C 
ATOM     13  C   UNL     1       7.533   6.773  16.327  0.00  0.00    +0.000 C 
ATOM     14  C   UNL     1       7.647   7.278  17.766  0.00  0.00    +0.000 C 
ATOM     15  C   UNL     1       7.879   6.141  18.749  0.00  0.00    +0.000 C 
ATOM     16  C   UNL     1       6.822   5.054  18.624  0.00  0.00    +0.000 C 
ATOM     17  C   UNL     1       6.673   4.551  17.191  0.00  0.00    +0.000 C 
BRANCH  12  18
ATOM     18  C   UNL     1       6.682   5.063  14.700  0.00  0.00    +0.000 A 
ATOM     19  C   UNL     1       7.702   5.500  13.836  0.00  0.00    +0.000 A 
ATOM     20  C   UNL     1       7.851   4.949  12.559  0.00  0.00    +0.000 A 
ATOM     21  C   UNL     1       7.011   3.928  12.124  0.00  0.00    +0.000 A 
ATOM     22  C   UNL     1       6.024   3.446  12.971  0.00  0.00    +0.000 A 
ATOM     23  C   UNL     1       5.864   4.008  14.238  0.00  0.00    +0.000 A 
ENDBRANCH  12  18
ENDBRANCH  10  12
ENDBRANCH   3  10
BRANCH   1  24
ATOM     24  O   UNL     1       2.508   2.861  18.549  0.00  0.00    +0.000 OA
BRANCH  24  26
ATOM     25  C   UNL     1       4.371   2.208  19.843  0.00  0.00    +0.000 C 
ATOM     26  C   UNL     1       3.575   1.971  18.593  0.00  0.00    +0.000 C 
ATOM     27  O   UNL     1       3.838   1.122  17.752  0.00  0.00    +0.000 OA
ENDBRANCH  24  26
ENDBRANCH   1  24
BRANCH   6  28
ATOM     28  O   UNL     1       1.282   4.771  20.309  0.00  0.00    +0.000 OA
BRANCH  28  29
ATOM     29  C   UNL     1       1.689   3.912  21.333  0.00  0.00    +0.000 C 
ATOM     30  C   UNL     1       0.922   2.621  21.233  0.00  0.00    +0.000 C 
ATOM     31  O   UNL     1       2.546   4.142  22.175  0.00  0.00    +0.000 OA
ENDBRANCH  28  29
ENDBRANCH   6  28
TORSDOF 8
ENDMDL
MODEL 5
REMARK VINA RESULT:      -7.4      3.123      6.074
REMARK  Name = 
REMARK  10 active torsions:
REMARK  status: ('A' for Active; 'I' for Inactive)
REMARK    1  A    between atoms: C_1  and  C_2
REMARK    2  A    between atoms: C_2  and  O_4
REMARK    3  A    between atoms: O_4  and  C_5
REMARK    4  A    between atoms: C_7  and  C_8
REMARK    5  A    between atoms: C_8  and  C_10
REMARK    6  A    between atoms: C_10  and  C_11
REMARK    7  A    between atoms: C_23  and  N_24
REMARK    8  A    between atoms: C_27  and  O_28
REMARK    9  A    between atoms: O_28  and  C_29
REMARK   10  A    between atoms: C_29  and  C_30
REMARK                            x       y       z     vdW  Elec       q    Type
REMARK                         _______ _______ _______ _____ _____    ______ ____
ROOT
ATOM      1  C   UNL     1       0.400   8.406  21.173  0.00  0.00    +0.000 A 
ATOM      2  C   UNL     1       1.081   7.174  21.132  0.00  0.00    +0.000 A 
ATOM      3  C   UNL     1       1.964   6.849  20.092  0.00  0.00    +0.000 A 
ATOM      4  C   UNL     1       2.164   7.788  19.077  0.00  0.00    +0.000 A 
ATOM      5  C   UNL     1       1.441   9.000  19.107  0.00  0.00    +0.000 A 
ATOM      6  C   UNL     1       0.532   9.315  20.127  0.00  0.00    +0.000 A 
ENDROOT
BRANCH   5   7
ATOM      7  N   UNL     1       1.651   9.923  18.016  0.00  0.00    +0.000 N 
ATOM      8  O   UNL     1       0.785   9.957  17.128  0.00  0.00    +0.000 OA
ATOM      9  O   UNL     1       2.695  10.591  18.023  0.00  0.00    +0.000 OA
ENDBRANCH   5   7
BRANCH   3  10
ATOM     10  C   UNL     1       2.685   5.533  20.206  0.00  0.00    +0.000 C 
ATOM     11  O   UNL     1       2.758   5.077  21.354  0.00  0.00    +0.000 OA
BRANCH  10  12
ATOM     12  C   UNL     1       3.364   4.789  19.006  0.00  0.00    +0.000 C 
ATOM     13  C   UNL     1       3.655   3.322  19.487  0.00  0.00    +0.000 C 
ATOM     14  C   UNL     1       2.409   2.448  19.636  0.00  0.00    +0.000 C 
ATOM     15  C   UNL     1       1.581   2.419  18.361  0.00  0.00    +0.000 C 
ATOM     16  C   UNL     1       1.223   3.818  17.881  0.00  0.00    +0.000 C 
ATOM     17  C   UNL     1       2.449   4.717  17.747  0.00  0.00    +0.000 C 
BRANCH  12  18
ATOM     18  C   UNL     1       4.731   5.418  18.625  0.00  0.00    +0.000 A 
ATOM     19  C   UNL     1       5.921   5.172  19.331  0.00  0.00    +0.000 A 
ATOM     20  C   UNL     1       7.123   5.785  18.961  0.00  0.00    +0.000 A 
ATOM     21  C   UNL     1       7.174   6.632  17.857  0.00  0.00    +0.000 A 
ATOM     22  C   UNL     1       6.026   6.861  17.114  0.00  0.00    +0.000 A 
ATOM     23  C   UNL     1       4.824   6.262  17.495  0.00  0.00    +0.000 A 
ENDBRANCH  12  18
ENDBRANCH  10  12
ENDBRANCH   3  10
BRANCH   1  24
ATOM     24  O   UNL     1      -0.504   8.653  22.218  0.00  0.00    +0.000 OA
BRANCH  24  26
ATOM     25  C   UNL     1      -1.182  10.647  23.281  0.00  0.00    +0.000 C 
ATOM     26  C   UNL     1      -0.124   9.589  23.172  0.00  0.00    +0.000 C 
ATOM     27  O   UNL     1       0.911   9.570  23.826  0.00  0.00    +0.000 OA
ENDBRANCH  24  26
ENDBRANCH   1  24
BRANCH   6  28
ATOM     28  O   UNL     1      -0.117  10.569  20.114  0.00  0.00    +0.000 OA
BRANCH  28  29
ATOM     29  C   UNL     1       0.588  11.745  20.381  0.00  0.00    +0.000 C 
ATOM     30  C   UNL     1       0.069  12.847  19.499  0.00  0.00    +0.000 C 
ATOM     31  O   UNL     1       1.475  11.886  21.212  0.00  0.00    +0.000 OA
ENDBRANCH  28  29
ENDBRANCH   6  28
TORSDOF 8
ENDMDL
MODEL 6
REMARK VINA RESULT:      -7.2      1.418      3.345
REMARK  Name = 
REMARK  10 active torsions:
REMARK  status: ('A' for Active; 'I' for Inactive)
REMARK    1  A    between atoms: C_1  and  C_2
REMARK    2  A    between atoms: C_2  and  O_4
REMARK    3  A    between atoms: O_4  and  C_5
REMARK    4  A    between atoms: C_7  and  C_8
REMARK    5  A    between atoms: C_8  and  C_10
REMARK    6  A    between atoms: C_10  and  C_11
REMARK    7  A    between atoms: C_23  and  N_24
REMARK    8  A    between atoms: C_27  and  O_28
REMARK    9  A    between atoms: O_28  and  C_29
REMARK   10  A    between atoms: C_29  and  C_30
REMARK                            x       y       z     vdW  Elec       q    Type
REMARK                         _______ _______ _______ _____ _____    ______ ____
ROOT
ATOM      1  C   UNL     1       2.728   4.279  18.395  0.00  0.00    +0.000 A 
ATOM      2  C   UNL     1       3.650   4.711  17.424  0.00  0.00    +0.000 A 
ATOM      3  C   UNL     1       3.998   6.062  17.279  0.00  0.00    +0.000 A 
ATOM      4  C   UNL     1       3.403   6.993  18.135  0.00  0.00    +0.000 A 
ATOM      5  C   UNL     1       2.446   6.552  19.074  0.00  0.00    +0.000 A 
ATOM      6  C   UNL     1       2.071   5.207  19.199  0.00  0.00    +0.000 A 
ENDROOT
BRANCH   5   7
ATOM      7  N   UNL     1       1.829   7.554  19.910  0.00  0.00    +0.000 N 
ATOM      8  O   UNL     1       1.494   8.618  19.366  0.00  0.00    +0.000 OA
ATOM      9  O   UNL     1       1.707   7.298  21.117  0.00  0.00    +0.000 OA
ENDBRANCH   5   7
BRANCH   3  10
ATOM     10  C   UNL     1       5.053   6.381  16.254  0.00  0.00    +0.000 C 
ATOM     11  O   UNL     1       4.746   7.272  15.452  0.00  0.00    +0.000 OA
BRANCH  10  12
ATOM     12  C   UNL     1       6.422   5.631  16.131  0.00  0.00    +0.000 C 
ATOM     13  C   UNL     1       7.550   6.707  16.331  0.00  0.00    +0.000 C 
ATOM     14  C   UNL     1       7.686   7.219  17.766  0.00  0.00    +0.000 C 
ATOM     15  C   UNL     1       7.874   6.082  18.758  0.00  0.00    +0.000 C 
ATOM     16  C   UNL     1       6.775   5.036  18.643  0.00  0.00    +0.000 C 
ATOM     17  C   UNL     1       6.604   4.527  17.215  0.00  0.00    +0.000 C 
BRANCH  12  18
ATOM     18  C   UNL     1       6.629   5.019  14.720  0.00  0.00    +0.000 A 
ATOM     19  C   UNL     1       5.831   3.984  14.199  0.00  0.00    +0.000 A 
ATOM     20  C   UNL     1       6.078   3.450  12.930  0.00  0.00    +0.000 A 
ATOM     21  C   UNL     1       7.103   3.957  12.135  0.00  0.00    +0.000 A 
ATOM     22  C   UNL     1       7.878   5.006  12.603  0.00  0.00    +0.000 A 
ATOM     23  C   UNL     1       7.644   5.526  13.876  0.00  0.00    +0.000 A 
ENDBRANCH  12  18
ENDBRANCH  10  12
ENDBRANCH   3  10
BRANCH   1  24
ATOM     24  O   UNL     1       2.389   2.919  18.459  0.00  0.00    +0.000 OA
BRANCH  24  26
ATOM     25  C   UNL     1       4.239   2.188  19.728  0.00  0.00    +0.000 C 
ATOM     26  C   UNL     1       3.439   2.008  18.472  0.00  0.00    +0.000 C 
ATOM     27  O   UNL     1       3.687   1.185  17.601  0.00  0.00    +0.000 OA
ENDBRANCH  24  26
ENDBRANCH   1  24
BRANCH   6  28
ATOM     28  O   UNL     1       1.142   4.835  20.196  0.00  0.00    +0.000 OA
BRANCH  28  29
ATOM     29  C   UNL     1       1.393   3.753  21.043  0.00  0.00    +0.000 C 
ATOM     30  C   UNL     1       2.546   4.089  21.949  0.00  0.00    +0.000 C 
ATOM     31  O   UNL     1       0.773   2.700  21.077  0.00  0.00    +0.000 OA
ENDBRANCH  28  29
ENDBRANCH   6  28
TORSDOF 8
ENDMDL
MODEL 7
REMARK VINA RESULT:      -7.1      1.115      1.586
REMARK  Name = 
REMARK  10 active torsions:
REMARK  status: ('A' for Active; 'I' for Inactive)
REMARK    1  A    between atoms: C_1  and  C_2
REMARK    2  A    between atoms: C_2  and  O_4
REMARK    3  A    between atoms: O_4  and  C_5
REMARK    4  A    between atoms: C_7  and  C_8
REMARK    5  A    between atoms: C_8  and  C_10
REMARK    6  A    between atoms: C_10  and  C_11
REMARK    7  A    between atoms: C_23  and  N_24
REMARK    8  A    between atoms: C_27  and  O_28
REMARK    9  A    between atoms: O_28  and  C_29
REMARK   10  A    between atoms: C_29  and  C_30
REMARK                            x       y       z     vdW  Elec       q    Type
REMARK                         _______ _______ _______ _____ _____    ______ ____
ROOT
ATOM      1  C   UNL     1       2.966   5.688  19.900  0.00  0.00    +0.000 A 
ATOM      2  C   UNL     1       3.660   6.150  18.766  0.00  0.00    +0.000 A 
ATOM      3  C   UNL     1       4.495   5.311  18.014  0.00  0.00    +0.000 A 
ATOM      4  C   UNL     1       4.629   3.979  18.415  0.00  0.00    +0.000 A 
ATOM      5  C   UNL     1       3.963   3.541  19.580  0.00  0.00    +0.000 A 
ATOM      6  C   UNL     1       3.153   4.384  20.354  0.00  0.00    +0.000 A 
ENDROOT
BRANCH   5   7
ATOM      7  N   UNL     1       4.162   2.167  19.979  0.00  0.00    +0.000 N 
ATOM      8  O   UNL     1       4.850   1.964  20.991  0.00  0.00    +0.000 OA
ATOM      9  O   UNL     1       3.663   1.285  19.265  0.00  0.00    +0.000 OA
ENDBRANCH   5   7
BRANCH   3  10
ATOM     10  C   UNL     1       5.119   5.908  16.782  0.00  0.00    +0.000 C 
ATOM     11  O   UNL     1       4.349   6.576  16.080  0.00  0.00    +0.000 OA
BRANCH  10  12
ATOM     12  C   UNL     1       6.605   5.681  16.343  0.00  0.00    +0.000 C 
ATOM     13  C   UNL     1       7.285   7.096  16.289  0.00  0.00    +0.000 C 
ATOM     14  C   UNL     1       7.534   7.728  17.659  0.00  0.00    +0.000 C 
ATOM     15  C   UNL     1       8.328   6.808  18.573  0.00  0.00    +0.000 C 
ATOM     16  C   UNL     1       7.682   5.437  18.703  0.00  0.00    +0.000 C 
ATOM     17  C   UNL     1       7.401   4.795  17.348  0.00  0.00    +0.000 C 
BRANCH  12  18
ATOM     18  C   UNL     1       6.709   5.077  14.916  0.00  0.00    +0.000 A 
ATOM     19  C   UNL     1       5.879   4.041  14.451  0.00  0.00    +0.000 A 
ATOM     20  C   UNL     1       6.032   3.515  13.164  0.00  0.00    +0.000 A 
ATOM     21  C   UNL     1       6.991   4.030  12.298  0.00  0.00    +0.000 A 
ATOM     22  C   UNL     1       7.795   5.082  12.712  0.00  0.00    +0.000 A 
ATOM     23  C   UNL     1       7.654   5.594  14.002  0.00  0.00    +0.000 A 
ENDBRANCH  12  18
ENDBRANCH  10  12
ENDBRANCH   3  10
BRANCH   1  24
ATOM     24  O   UNL     1       2.181   6.589  20.636  0.00  0.00    +0.000 OA
BRANCH  24  26
ATOM     25  C   UNL     1       1.121   8.669  20.983  0.00  0.00    +0.000 C 
ATOM     26  C   UNL     1       1.832   7.779  20.007  0.00  0.00    +0.000 C 
ATOM     27  O   UNL     1       2.061   8.069  18.840  0.00  0.00    +0.000 OA
ENDBRANCH  24  26
ENDBRANCH   1  24
BRANCH   6  28
ATOM     28  O   UNL     1       2.480   3.860  21.479  0.00  0.00    +0.000 OA
BRANCH  28  29
ATOM     29  C   UNL     1       1.402   2.985  21.327  0.00  0.00    +0.000 C 
ATOM     30  C   UNL     1       0.698   3.286  20.033  0.00  0.00    +0.000 C 
ATOM     31  O   UNL     1       1.077   2.094  22.099  0.00  0.00    +0.000 OA
ENDBRANCH  28  29
ENDBRANCH   6  28
TORSDOF 8
ENDMDL
MODEL 8
REMARK VINA RESULT:      -7.0      3.116      6.082
REMARK  Name = 
REMARK  10 active torsions:
REMARK  status: ('A' for Active; 'I' for Inactive)
REMARK    1  A    between atoms: C_1  and  C_2
REMARK    2  A    between atoms: C_2  and  O_4
REMARK    3  A    between atoms: O_4  and  C_5
REMARK    4  A    between atoms: C_7  and  C_8
REMARK    5  A    between atoms: C_8  and  C_10
REMARK    6  A    between atoms: C_10  and  C_11
REMARK    7  A    between atoms: C_23  and  N_24
REMARK    8  A    between atoms: C_27  and  O_28
REMARK    9  A    between atoms: O_28  and  C_29
REMARK   10  A    between atoms: C_29  and  C_30
REMARK                            x       y       z     vdW  Elec       q    Type
REMARK                         _______ _______ _______ _____ _____    ______ ____
ROOT
ATOM      1  C   UNL     1       1.285   8.933  21.345  0.00  0.00    +0.000 A 
ATOM      2  C   UNL     1       1.796   7.623  21.297  0.00  0.00    +0.000 A 
ATOM      3  C   UNL     1       2.122   6.997  20.085  0.00  0.00    +0.000 A 
ATOM      4  C   UNL     1       1.928   7.711  18.900  0.00  0.00    +0.000 A 
ATOM      5  C   UNL     1       1.372   9.007  18.960  0.00  0.00    +0.000 A 
ATOM      6  C   UNL     1       1.014   9.624  20.167  0.00  0.00    +0.000 A 
ENDROOT
BRANCH   5   7
ATOM      7  N   UNL     1       1.153   9.692  17.707  0.00  0.00    +0.000 N 
ATOM      8  O   UNL     1       2.147  10.179  17.147  0.00  0.00    +0.000 OA
ATOM      9  O   UNL     1      -0.013   9.777  17.297  0.00  0.00    +0.000 OA
ENDBRANCH   5   7
BRANCH   3  10
ATOM     10  C   UNL     1       2.732   5.624  20.176  0.00  0.00    +0.000 C 
ATOM     11  O   UNL     1       2.714   5.121  21.306  0.00  0.00    +0.000 OA
BRANCH  10  12
ATOM     12  C   UNL     1       3.406   4.874  18.978  0.00  0.00    +0.000 C 
ATOM     13  C   UNL     1       3.714   3.415  19.471  0.00  0.00    +0.000 C 
ATOM     14  C   UNL     1       2.477   2.531  19.640  0.00  0.00    +0.000 C 
ATOM     15  C   UNL     1       1.637   2.483  18.373  0.00  0.00    +0.000 C 
ATOM     16  C   UNL     1       1.264   3.873  17.882  0.00  0.00    +0.000 C 
ATOM     17  C   UNL     1       2.481   4.782  17.728  0.00  0.00    +0.000 C 
BRANCH  12  18
ATOM     18  C   UNL     1       4.764   5.511  18.578  0.00  0.00    +0.000 A 
ATOM     19  C   UNL     1       4.910   6.422  17.516  0.00  0.00    +0.000 A 
ATOM     20  C   UNL     1       6.163   6.947  17.182  0.00  0.00    +0.000 A 
ATOM     21  C   UNL     1       7.294   6.604  17.917  0.00  0.00    +0.000 A 
ATOM     22  C   UNL     1       7.174   5.742  18.997  0.00  0.00    +0.000 A 
ATOM     23  C   UNL     1       5.928   5.205  19.319  0.00  0.00    +0.000 A 
ENDBRANCH  12  18
ENDBRANCH  10  12
ENDBRANCH   3  10
BRANCH   1  24
ATOM     24  O   UNL     1       0.937   9.486  22.588  0.00  0.00    +0.000 OA
BRANCH  24  26
ATOM     25  C   UNL     1      -0.880  10.878  23.164  0.00  0.00    +0.000 C 
ATOM     26  C   UNL     1      -0.412   9.472  22.927  0.00  0.00    +0.000 C 
ATOM     27  O   UNL     1      -1.119   8.478  23.024  0.00  0.00    +0.000 OA
ENDBRANCH  24  26
ENDBRANCH   1  24
BRANCH   6  28
ATOM     28  O   UNL     1       0.508  10.942  20.150  0.00  0.00    +0.000 OA
BRANCH  28  29
ATOM     29  C   UNL     1       1.360  12.039  20.300  0.00  0.00    +0.000 C 
ATOM     30  C   UNL     1       1.328  12.868  19.045  0.00  0.00    +0.000 C 
ATOM     31  O   UNL     1       2.020  12.315  21.292  0.00  0.00    +0.000 OA
ENDBRANCH  28  29
ENDBRANCH   6  28
TORSDOF 8
ENDMDL
MODEL 9
REMARK VINA RESULT:      -7.0      2.378      4.966
REMARK  Name = 
REMARK  10 active torsions:
REMARK  status: ('A' for Active; 'I' for Inactive)
REMARK    1  A    between atoms: C_1  and  C_2
REMARK    2  A    between atoms: C_2  and  O_4
REMARK    3  A    between atoms: O_4  and  C_5
REMARK    4  A    between atoms: C_7  and  C_8
REMARK    5  A    between atoms: C_8  and  C_10
REMARK    6  A    between atoms: C_10  and  C_11
REMARK    7  A    between atoms: C_23  and  N_24
REMARK    8  A    between atoms: C_27  and  O_28
REMARK    9  A    between atoms: O_28  and  C_29
REMARK   10  A    between atoms: C_29  and  C_30
REMARK                            x       y       z     vdW  Elec       q    Type
REMARK                         _______ _______ _______ _____ _____    ______ ____
ROOT
ATOM      1  C   UNL     1       1.878   6.710  20.253  0.00  0.00    +0.000 A 
ATOM      2  C   UNL     1       2.783   6.274  19.269  0.00  0.00    +0.000 A 
ATOM      3  C   UNL     1       3.137   7.080  18.176  0.00  0.00    +0.000 A 
ATOM      4  C   UNL     1       2.565   8.351  18.081  0.00  0.00    +0.000 A 
ATOM      5  C   UNL     1       1.623   8.758  19.051  0.00  0.00    +0.000 A 
ATOM      6  C   UNL     1       1.242   7.943  20.126  0.00  0.00    +0.000 A 
ENDROOT
BRANCH   5   7
ATOM      7  N   UNL     1       1.029  10.064  18.889  0.00  0.00    +0.000 N 
ATOM      8  O   UNL     1       1.632  11.027  19.387  0.00  0.00    +0.000 OA
ATOM      9  O   UNL     1      -0.058  10.130  18.297  0.00  0.00    +0.000 OA
ENDBRANCH   5   7
BRANCH   3  10
ATOM     10  C   UNL     1       4.173   6.527  17.236  0.00  0.00    +0.000 C 
ATOM     11  O   UNL     1       4.252   7.108  16.147  0.00  0.00    +0.000 OA
BRANCH  10  12
ATOM     12  C   UNL     1       5.064   5.275  17.540  0.00  0.00    +0.000 C 
ATOM     13  C   UNL     1       5.870   4.961  16.228  0.00  0.00    +0.000 C 
ATOM     14  C   UNL     1       6.975   5.969  15.911  0.00  0.00    +0.000 C 
ATOM     15  C   UNL     1       7.935   6.145  17.077  0.00  0.00    +0.000 C 
ATOM     16  C   UNL     1       7.208   6.505  18.364  0.00  0.00    +0.000 C 
ATOM     17  C   UNL     1       6.084   5.526  18.690  0.00  0.00    +0.000 C 
BRANCH  12  18
ATOM     18  C   UNL     1       4.214   4.015  17.859  0.00  0.00    +0.000 A 
ATOM     19  C   UNL     1       3.072   3.645  17.126  0.00  0.00    +0.000 A 
ATOM     20  C   UNL     1       2.327   2.513  17.472  0.00  0.00    +0.000 A 
ATOM     21  C   UNL     1       2.721   1.703  18.534  0.00  0.00    +0.000 A 
ATOM     22  C   UNL     1       3.867   2.018  19.248  0.00  0.00    +0.000 A 
ATOM     23  C   UNL     1       4.600   3.157  18.913  0.00  0.00    +0.000 A 
ENDBRANCH  12  18
ENDBRANCH  10  12
ENDBRANCH   3  10
BRANCH   1  24
ATOM     24  O   UNL     1       1.531   5.839  21.298  0.00  0.00    +0.000 OA
BRANCH  24  26
ATOM     25  C   UNL     1       2.298   3.664  21.801  0.00  0.00    +0.000 C 
ATOM     26  C   UNL     1       1.368   4.498  20.970  0.00  0.00    +0.000 C 
ATOM     27  O   UNL     1       0.592   4.051  20.135  0.00  0.00    +0.000 OA
ENDBRANCH  24  26
ENDBRANCH   1  24
BRANCH   6  28
ATOM     28  O   UNL     1       0.330   8.439  21.084  0.00  0.00    +0.000 OA
BRANCH  28  29
ATOM     29  C   UNL     1       0.778   9.159  22.194  0.00  0.00    +0.000 C 
ATOM     30  C   UNL     1      -0.407   9.631  22.990  0.00  0.00    +0.000 C 
ATOM     31  O   UNL     1       1.943   9.365  22.503  0.00  0.00    +0.000 OA
ENDBRANCH  28  29
ENDBRANCH   6  28
TORSDOF 8
ENDMDL
