MODEL 1
REMARK VINA RESULT:      -8.0      0.000      0.000
REMARK  Name = 
REMARK  14 active torsions:
REMARK  status: ('A' for Active; 'I' for Inactive)
REMARK    1  A    between atoms: C_1  and  C_2
REMARK    2  A    between atoms: C_2  and  C_3
REMARK    3  A    between atoms: C_2  and  C_4
REMARK    4  A    between atoms: C_2  and  C_5
REMARK    5  A    between atoms: C_6  and  C_7
REMARK    6  A    between atoms: C_9  and  C_10
REMARK    7  A    between atoms: C_9  and  C_21
REMARK    8  A    between atoms: C_10  and  C_11
REMARK    9  A    between atoms: C_11  and  O_13
REMARK   10  A    between atoms: O_13  and  C_14
REMARK   11  A    between atoms: C_14  and  C_15
REMARK   12  A    between atoms: C_21  and  O_23
REMARK   13  A    between atoms: O_23  and  C_24
REMARK   14  A    between atoms: C_24  and  C_25
REMARK                            x       y       z     vdW  Elec       q    Type
REMARK                         _______ _______ _______ _____ _____    ______ ____
ROOT
ATOM      1  C   UNL     1       4.151   4.611  18.664  0.00  0.00    +0.000 C 
ATOM      2  C   UNL     1       4.117   5.764  17.950  0.00  0.00    +0.000 C 
ATOM      3  C   UNL     1       5.464   6.075  17.305  0.00  0.00    +0.000 C 
ATOM      4  C   UNL     1       6.232   4.817  17.693  0.00  0.00    +0.000 C 
ATOM      5  C   UNL     1       5.478   4.032  18.474  0.00  0.00    +0.000 C 
ENDROOT
BRANCH   1   7
ATOM      6  C   UNL     1       3.625   2.671  20.210  0.00  0.00    +0.000 C 
ATOM      7  C   UNL     1       3.065   3.918  19.494  0.00  0.00    +0.000 C 
ATOM      8  C   UNL     1       1.874   3.506  18.599  0.00  0.00    +0.000 C 
ATOM      9  C   UNL     1       2.473   4.837  20.591  0.00  0.00    +0.000 C 
ENDBRANCH   1   7
BRANCH   2  10
ATOM     10  C   UNL     1       2.942   6.625  17.729  0.00  0.00    +0.000 C 
ATOM     11  O   UNL     1       2.815   7.714  18.275  0.00  0.00    +0.000 OA
ENDBRANCH   2  10
BRANCH   3  12
ATOM     12  C   UNL     1       5.404   6.096  15.758  0.00  0.00    +0.000 C 
ATOM     13  O   UNL     1       5.035   7.056  15.089  0.00  0.00    +0.000 OA
BRANCH  12  14
ATOM     14  O   UNL     1       5.645   4.854  15.239  0.00  0.00    +0.000 OA
BRANCH  14  15
ATOM     15  C   UNL     1       6.681   4.772  14.244  0.00  0.00    +0.000 C 
BRANCH  15  16
ATOM     16  C   UNL     1       6.227   3.890  13.106  0.00  0.00    +0.000 A 
ATOM     17  C   UNL     1       7.131   3.078  12.406  0.00  0.00    +0.000 A 
ATOM     18  C   UNL     1       6.684   2.242  11.374  0.00  0.00    +0.000 A 
ATOM     19  C   UNL     1       5.333   2.204  11.042  0.00  0.00    +0.000 A 
ATOM     20  C   UNL     1       4.423   2.992  11.745  0.00  0.00    +0.000 A 
ATOM     21  C   UNL     1       4.868   3.825  12.771  0.00  0.00    +0.000 A 
ENDBRANCH  15  16
ENDBRANCH  14  15
ENDBRANCH  12  14
ENDBRANCH   3  12
BRANCH   3  22
ATOM     22  C   UNL     1       6.195   7.261  17.949  0.00  0.00    +0.000 C 
BRANCH  22  23
ATOM     23  C   UNL     1       7.578   7.476  17.410  0.00  0.00    +0.000 C 
ATOM     24  O   UNL     1       8.009   6.917  16.411  0.00  0.00    +0.000 OA
BRANCH  23  25
ATOM     25  O   UNL     1       8.271   8.335  18.200  0.00  0.00    +0.000 OA
BRANCH  25  26
ATOM     26  C   UNL     1       8.057   9.731  17.945  0.00  0.00    +0.000 C 
BRANCH  26  27
ATOM     27  C   UNL     1       9.188  10.505  18.572  0.00  0.00    +0.000 A 
ATOM     28  C   UNL     1      10.207  11.057  17.785  0.00  0.00    +0.000 A 
ATOM     29  C   UNL     1      11.276  11.728  18.382  0.00  0.00    +0.000 A 
ATOM     30  C   UNL     1      11.331  11.859  19.769  0.00  0.00    +0.000 A 
ATOM     31  C   UNL     1      10.314  11.328  20.559  0.00  0.00    +0.000 A 
ATOM     32  C   UNL     1       9.248  10.653  19.965  0.00  0.00    +0.000 A 
ENDBRANCH  26  27
ENDBRANCH  25  26
ENDBRANCH  23  25
ENDBRANCH  22  23
ENDBRANCH   3  22
TORSDOF 11
ENDMDL
MODEL 2
REMARK VINA RESULT:      -7.9      3.566      8.806
REMARK  Name = 
REMARK  14 active torsions:
REMARK  status: ('A' for Active; 'I' for Inactive)
REMARK    1  A    between atoms: C_1  and  C_2
REMARK    2  A    between atoms: C_2  and  C_3
REMARK    3  A    between atoms: C_2  and  C_4
REMARK    4  A    between atoms: C_2  and  C_5
REMARK    5  A    between atoms: C_6  and  C_7
REMARK    6  A    between atoms: C_9  and  C_10
REMARK    7  A    between atoms: C_9  and  C_21
REMARK    8  A    between atoms: C_10  and  C_11
REMARK    9  A    between atoms: C_11  and  O_13
REMARK   10  A    between atoms: O_13  and  C_14
REMARK   11  A    between atoms: C_14  and  C_15
REMARK   12  A    between atoms: C_21  and  O_23
REMARK   13  A    between atoms: O_23  and  C_24
REMARK   14  A    between atoms: C_24  and  C_25
REMARK                            x       y       z     vdW  Elec       q    Type
REMARK                         _______ _______ _______ _____ _____    ______ ____
ROOT
ATOM      1  C   UNL     1       5.582   5.889  18.316  0.00  0.00    +0.000 C 
ATOM      2  C   UNL     1       4.607   6.433  17.545  0.00  0.00    +0.000 C 
ATOM      3  C   UNL     1       3.217   6.163  18.110  0.00  0.00    +0.000 C 
ATOM      4  C   UNL     1       3.599   5.465  19.411  0.00  0.00    +0.000 C 
ATOM      5  C   UNL     1       4.927   5.305  19.482  0.00  0.00    +0.000 C 
ENDROOT
BRANCH   1   7
ATOM      6  C   UNL     1       7.536   4.794  17.129  0.00  0.00    +0.000 C 
ATOM      7  C   UNL     1       7.105   5.877  18.139  0.00  0.00    +0.000 C 
ATOM      8  C   UNL     1       7.810   5.631  19.492  0.00  0.00    +0.000 C 
ATOM      9  C   UNL     1       7.656   7.226  17.613  0.00  0.00    +0.000 C 
ENDBRANCH   1   7
BRANCH   2  10
ATOM     10  C   UNL     1       4.799   7.249  16.333  0.00  0.00    +0.000 C 
ATOM     11  O   UNL     1       5.163   6.767  15.269  0.00  0.00    +0.000 OA
ENDBRANCH   2  10
BRANCH   3  12
ATOM     12  C   UNL     1       2.464   7.456  18.508  0.00  0.00    +0.000 C 
ATOM     13  O   UNL     1       2.063   8.300  17.712  0.00  0.00    +0.000 OA
BRANCH  12  14
ATOM     14  O   UNL     1       2.457   7.625  19.865  0.00  0.00    +0.000 OA
BRANCH  14  15
ATOM     15  C   UNL     1       1.199   7.397  20.526  0.00  0.00    +0.000 C 
BRANCH  15  16
ATOM     16  C   UNL     1       0.666   8.701  21.071  0.00  0.00    +0.000 A 
ATOM     17  C   UNL     1       0.494   9.821  20.246  0.00  0.00    +0.000 A 
ATOM     18  C   UNL     1      -0.032  11.012  20.764  0.00  0.00    +0.000 A 
ATOM     19  C   UNL     1      -0.398  11.088  22.105  0.00  0.00    +0.000 A 
ATOM     20  C   UNL     1      -0.249   9.975  22.929  0.00  0.00    +0.000 A 
ATOM     21  C   UNL     1       0.276   8.790  22.414  0.00  0.00    +0.000 A 
ENDBRANCH  15  16
ENDBRANCH  14  15
ENDBRANCH  12  14
ENDBRANCH   3  12
BRANCH   3  22
ATOM     22  C   UNL     1       2.402   5.156  17.287  0.00  0.00    +0.000 C 
BRANCH  22  23
ATOM     23  C   UNL     1       3.197   3.964  16.843  0.00  0.00    +0.000 C 
ATOM     24  O   UNL     1       4.333   4.038  16.393  0.00  0.00    +0.000 OA
BRANCH  23  25
ATOM     25  O   UNL     1       2.470   2.827  16.980  0.00  0.00    +0.000 OA
BRANCH  25  26
ATOM     26  C   UNL     1       2.991   1.857  17.901  0.00  0.00    +0.000 C 
BRANCH  26  27
ATOM     27  C   UNL     1       2.504   2.208  19.282  0.00  0.00    +0.000 A 
ATOM     28  C   UNL     1       1.191   2.653  19.493  0.00  0.00    +0.000 A 
ATOM     29  C   UNL     1       0.768   3.023  20.770  0.00  0.00    +0.000 A 
ATOM     30  C   UNL     1       1.648   2.946  21.848  0.00  0.00    +0.000 A 
ATOM     31  C   UNL     1       2.950   2.490  21.653  0.00  0.00    +0.000 A 
ATOM     32  C   UNL     1       3.376   2.124  20.376  0.00  0.00    +0.000 A 
ENDBRANCH  26  27
ENDBRANCH  25  26
ENDBRANCH  23  25
ENDBRANCH  22  23
ENDBRANCH   3  22
TORSDOF 11
ENDMDL
MODEL 3
REMARK VINA RESULT:      -7.8      3.667      7.248
REMARK  Name = 
REMARK  14 active torsions:
REMARK  status: ('A' for Active; 'I' for Inactive)
REMARK    1  A    between atoms: C_1  and  C_2
REMARK    2  A    between atoms: C_2  and  C_3
REMARK    3  A    between atoms: C_2  and  C_4
REMARK    4  A    between atoms: C_2  and  C_5
REMARK    5  A    between atoms: C_6  and  C_7
REMARK    6  A    between atoms: C_9  and  C_10
REMARK    7  A    between atoms: C_9  and  C_21
REMARK    8  A    between atoms: C_10  and  C_11
REMARK    9  A    between atoms: C_11  and  O_13
REMARK   10  A    between atoms: O_13  and  C_14
REMARK   11  A    between atoms: C_14  and  C_15
REMARK   12  A    between atoms: C_21  and  O_23
REMARK   13  A    between atoms: O_23  and  C_24
REMARK   14  A    between atoms: C_24  and  C_25
REMARK                            x       y       z     vdW  Elec       q    Type
REMARK                         _______ _______ _______ _____ _____    ______ ____
ROOT
ATOM      1  C   UNL     1       3.181   3.908  18.725  0.00  0.00    +0.000 C 
ATOM      2  C   UNL     1       4.328   4.601  18.510  0.00  0.00    +0.000 C 
ATOM      3  C   UNL     1       4.596   4.812  17.024  0.00  0.00    +0.000 C 
ATOM      4  C   UNL     1       3.321   4.210  16.444  0.00  0.00    +0.000 C 
ATOM      5  C   UNL     1       2.565   3.690  17.420  0.00  0.00    +0.000 C 
ENDROOT
BRANCH   1   7
ATOM      6  C   UNL     1       3.384   2.367  20.728  0.00  0.00    +0.000 C 
ATOM      7  C   UNL     1       2.525   3.442  20.031  0.00  0.00    +0.000 C 
ATOM      8  C   UNL     1       1.112   2.879  19.760  0.00  0.00    +0.000 C 
ATOM      9  C   UNL     1       2.335   4.595  21.048  0.00  0.00    +0.000 C 
ENDBRANCH   1   7
BRANCH   2  10
ATOM     10  C   UNL     1       5.218   5.165  19.540  0.00  0.00    +0.000 C 
ATOM     11  O   UNL     1       6.209   4.573  19.946  0.00  0.00    +0.000 OA
ENDBRANCH   2  10
BRANCH   3  12
ATOM     12  C   UNL     1       4.603   6.306  16.616  0.00  0.00    +0.000 C 
ATOM     13  O   UNL     1       5.162   6.752  15.620  0.00  0.00    +0.000 OA
BRANCH  12  14
ATOM     14  O   UNL     1       4.058   7.087  17.598  0.00  0.00    +0.000 OA
BRANCH  14  15
ATOM     15  C   UNL     1       3.009   7.983  17.187  0.00  0.00    +0.000 C 
BRANCH  15  16
ATOM     16  C   UNL     1       2.173   8.370  18.383  0.00  0.00    +0.000 A 
ATOM     17  C   UNL     1       2.214   7.631  19.573  0.00  0.00    +0.000 A 
ATOM     18  C   UNL     1       1.454   8.026  20.683  0.00  0.00    +0.000 A 
ATOM     19  C   UNL     1       0.657   9.165  20.613  0.00  0.00    +0.000 A 
ATOM     20  C   UNL     1       0.624   9.918  19.440  0.00  0.00    +0.000 A 
ATOM     21  C   UNL     1       1.379   9.524  18.337  0.00  0.00    +0.000 A 
ENDBRANCH  15  16
ENDBRANCH  14  15
ENDBRANCH  12  14
ENDBRANCH   3  12
BRANCH   3  22
ATOM     22  C   UNL     1       5.767   3.980  16.486  0.00  0.00    +0.000 C 
BRANCH  22  23
ATOM     23  C   UNL     1       7.034   4.766  16.322  0.00  0.00    +0.000 C 
ATOM     24  O   UNL     1       7.436   5.580  17.142  0.00  0.00    +0.000 OA
BRANCH  23  25
ATOM     25  O   UNL     1       7.631   4.470  15.140  0.00  0.00    +0.000 OA
BRANCH  25  26
ATOM     26  C   UNL     1       7.114   5.153  13.988  0.00  0.00    +0.000 C 
BRANCH  26  27
ATOM     27  C   UNL     1       6.524   4.127  13.055  0.00  0.00    +0.000 A 
ATOM     28  C   UNL     1       7.342   3.365  12.211  0.00  0.00    +0.000 A 
ATOM     29  C   UNL     1       6.780   2.454  11.316  0.00  0.00    +0.000 A 
ATOM     30  C   UNL     1       5.397   2.292  11.261  0.00  0.00    +0.000 A 
ATOM     31  C   UNL     1       4.575   3.032  12.107  0.00  0.00    +0.000 A 
ATOM     32  C   UNL     1       5.135   3.947  12.999  0.00  0.00    +0.000 A 
ENDBRANCH  26  27
ENDBRANCH  25  26
ENDBRANCH  23  25
ENDBRANCH  22  23
ENDBRANCH   3  22
TORSDOF 11
ENDMDL
MODEL 4
REMARK VINA RESULT:      -7.8      3.693      7.567
REMARK  Name = 
REMARK  14 active torsions:
REMARK  status: ('A' for Active; 'I' for Inactive)
REMARK    1  A    between atoms: C_1  and  C_2
REMARK    2  A    between atoms: C_2  and  C_3
REMARK    3  A    between atoms: C_2  and  C_4
REMARK    4  A    between atoms: C_2  and  C_5
REMARK    5  A    between atoms: C_6  and  C_7
REMARK    6  A    between atoms: C_9  and  C_10
REMARK    7  A    between atoms: C_9  and  C_21
REMARK    8  A    between atoms: C_10  and  C_11
REMARK    9  A    between atoms: C_11  and  O_13
REMARK   10  A    between atoms: O_13  and  C_14
REMARK   11  A    between atoms: C_14  and  C_15
REMARK   12  A    between atoms: C_21  and  O_23
REMARK   13  A    between atoms: O_23  and  C_24
REMARK   14  A    between atoms: C_24  and  C_25
REMARK                            x       y       z     vdW  Elec       q    Type
REMARK                         _______ _______ _______ _____ _____    ______ ____
ROOT
ATOM      1  C   UNL     1       3.343   3.736  18.873  0.00  0.00    +0.000 C 
ATOM      2  C   UNL     1       4.406   4.520  18.559  0.00  0.00    +0.000 C 
ATOM      3  C   UNL     1       4.460   4.836  17.068  0.00  0.00    +0.000 C 
ATOM      4  C   UNL     1       3.160   4.179  16.618  0.00  0.00    +0.000 C 
ATOM      5  C   UNL     1       2.574   3.552  17.647  0.00  0.00    +0.000 C 
ENDROOT
BRANCH   1   7
ATOM      6  C   UNL     1       2.567   4.268  21.227  0.00  0.00    +0.000 C 
ATOM      7  C   UNL     1       2.898   3.150  20.218  0.00  0.00    +0.000 C 
ATOM      8  C   UNL     1       3.996   2.234  20.804  0.00  0.00    +0.000 C 
ATOM      9  C   UNL     1       1.631   2.267  20.094  0.00  0.00    +0.000 C 
ENDBRANCH   1   7
BRANCH   2  10
ATOM     10  C   UNL     1       5.388   5.086  19.500  0.00  0.00    +0.000 C 
ATOM     11  O   UNL     1       6.552   4.708  19.539  0.00  0.00    +0.000 OA
ENDBRANCH   2  10
BRANCH   3  12
ATOM     12  C   UNL     1       4.319   6.348  16.764  0.00  0.00    +0.000 C 
ATOM     13  O   UNL     1       4.743   6.896  15.752  0.00  0.00    +0.000 OA
BRANCH  12  14
ATOM     14  O   UNL     1       3.818   7.023  17.843  0.00  0.00    +0.000 OA
BRANCH  14  15
ATOM     15  C   UNL     1       2.914   8.104  17.553  0.00  0.00    +0.000 C 
BRANCH  15  16
ATOM     16  C   UNL     1       2.074   8.407  18.770  0.00  0.00    +0.000 A 
ATOM     17  C   UNL     1       1.213   9.513  18.805  0.00  0.00    +0.000 A 
ATOM     18  C   UNL     1       0.418   9.760  19.932  0.00  0.00    +0.000 A 
ATOM     19  C   UNL     1       0.470   8.899  21.025  0.00  0.00    +0.000 A 
ATOM     20  C   UNL     1       1.308   7.786  20.992  0.00  0.00    +0.000 A 
ATOM     21  C   UNL     1       2.100   7.542  19.871  0.00  0.00    +0.000 A 
ENDBRANCH  15  16
ENDBRANCH  14  15
ENDBRANCH  12  14
ENDBRANCH   3  12
BRANCH   3  22
ATOM     22  C   UNL     1       5.599   4.122  16.329  0.00  0.00    +0.000 C 
BRANCH  22  23
ATOM     23  C   UNL     1       6.671   5.051  15.841  0.00  0.00    +0.000 C 
ATOM     24  O   UNL     1       7.541   5.519  16.562  0.00  0.00    +0.000 OA
BRANCH  23  25
ATOM     25  O   UNL     1       6.509   5.315  14.519  0.00  0.00    +0.000 OA
BRANCH  25  26
ATOM     26  C   UNL     1       7.338   4.559  13.624  0.00  0.00    +0.000 C 
BRANCH  26  27
ATOM     27  C   UNL     1       6.445   3.726  12.742  0.00  0.00    +0.000 A 
ATOM     28  C   UNL     1       6.964   2.666  11.986  0.00  0.00    +0.000 A 
ATOM     29  C   UNL     1       6.135   1.933  11.135  0.00  0.00    +0.000 A 
ATOM     30  C   UNL     1       4.780   2.248  11.038  0.00  0.00    +0.000 A 
ATOM     31  C   UNL     1       4.251   3.289  11.797  0.00  0.00    +0.000 A 
ATOM     32  C   UNL     1       5.079   4.025  12.645  0.00  0.00    +0.000 A 
ENDBRANCH  26  27
ENDBRANCH  25  26
ENDBRANCH  23  25
ENDBRANCH  22  23
ENDBRANCH   3  22
TORSDOF 11
ENDMDL
MODEL 5
REMARK VINA RESULT:      -7.8      3.593      8.810
REMARK  Name = 
REMARK  14 active torsions:
REMARK  status: ('A' for Active; 'I' for Inactive)
REMARK    1  A    between atoms: C_1  and  C_2
REMARK    2  A    between atoms: C_2  and  C_3
REMARK    3  A    between atoms: C_2  and  C_4
REMARK    4  A    between atoms: C_2  and  C_5
REMARK    5  A    between atoms: C_6  and  C_7
REMARK    6  A    between atoms: C_9  and  C_10
REMARK    7  A    between atoms: C_9  and  C_21
REMARK    8  A    between atoms: C_10  and  C_11
REMARK    9  A    between atoms: C_11  and  O_13
REMARK   10  A    between atoms: O_13  and  C_14
REMARK   11  A    between atoms: C_14  and  C_15
REMARK   12  A    between atoms: C_21  and  O_23
REMARK   13  A    between atoms: O_23  and  C_24
REMARK   14  A    between atoms: C_24  and  C_25
REMARK                            x       y       z     vdW  Elec       q    Type
REMARK                         _______ _______ _______ _____ _____    ______ ____
ROOT
ATOM      1  C   UNL     1       5.562   5.935  18.328  0.00  0.00    +0.000 C 
ATOM      2  C   UNL     1       4.589   6.487  17.559  0.00  0.00    +0.000 C 
ATOM      3  C   UNL     1       3.200   6.249  18.143  0.00  0.00    +0.000 C 
ATOM      4  C   UNL     1       3.583   5.561  19.448  0.00  0.00    +0.000 C 
ATOM      5  C   UNL     1       4.909   5.378  19.508  0.00  0.00    +0.000 C 
ENDROOT
BRANCH   1   7
ATOM      6  C   UNL     1       7.612   7.246  17.615  0.00  0.00    +0.000 C 
ATOM      7  C   UNL     1       7.083   5.894  18.135  0.00  0.00    +0.000 C 
ATOM      8  C   UNL     1       7.477   4.771  17.149  0.00  0.00    +0.000 C 
ATOM      9  C   UNL     1       7.843   5.590  19.450  0.00  0.00    +0.000 C 
ENDBRANCH   1   7
BRANCH   2  10
ATOM     10  C   UNL     1       4.783   7.284  16.336  0.00  0.00    +0.000 C 
ATOM     11  O   UNL     1       5.131   6.783  15.275  0.00  0.00    +0.000 OA
ENDBRANCH   2  10
BRANCH   3  12
ATOM     12  C   UNL     1       2.474   7.561  18.531  0.00  0.00    +0.000 C 
ATOM     13  O   UNL     1       2.136   8.430  17.734  0.00  0.00    +0.000 OA
BRANCH  12  14
ATOM     14  O   UNL     1       2.416   7.707  19.889  0.00  0.00    +0.000 OA
BRANCH  14  15
ATOM     15  C   UNL     1       1.152   7.402  20.507  0.00  0.00    +0.000 C 
BRANCH  15  16
ATOM     16  C   UNL     1       0.541   8.663  21.068  0.00  0.00    +0.000 A 
ATOM     17  C   UNL     1       0.348   8.830  22.447  0.00  0.00    +0.000 A 
ATOM     18  C   UNL     1      -0.191  10.022  22.951  0.00  0.00    +0.000 A 
ATOM     19  C   UNL     1      -0.531  11.056  22.083  0.00  0.00    +0.000 A 
ATOM     20  C   UNL     1      -0.324  10.908  20.713  0.00  0.00    +0.000 A 
ATOM     21  C   UNL     1       0.211   9.722  20.212  0.00  0.00    +0.000 A 
ENDBRANCH  15  16
ENDBRANCH  14  15
ENDBRANCH  12  14
ENDBRANCH   3  12
BRANCH   3  22
ATOM     22  C   UNL     1       2.360   5.247  17.340  0.00  0.00    +0.000 C 
BRANCH  22  23
ATOM     23  C   UNL     1       3.114   4.010  16.951  0.00  0.00    +0.000 C 
ATOM     24  O   UNL     1       4.296   4.009  16.636  0.00  0.00    +0.000 OA
BRANCH  23  25
ATOM     25  O   UNL     1       2.295   2.927  16.966  0.00  0.00    +0.000 OA
BRANCH  25  26
ATOM     26  C   UNL     1       2.698   1.850  17.826  0.00  0.00    +0.000 C 
BRANCH  26  27
ATOM     27  C   UNL     1       2.413   2.251  19.250  0.00  0.00    +0.000 A 
ATOM     28  C   UNL     1       3.398   2.143  20.241  0.00  0.00    +0.000 A 
ATOM     29  C   UNL     1       3.107   2.471  21.566  0.00  0.00    +0.000 A 
ATOM     30  C   UNL     1       1.832   2.916  21.912  0.00  0.00    +0.000 A 
ATOM     31  C   UNL     1       0.850   3.042  20.932  0.00  0.00    +0.000 A 
ATOM     32  C   UNL     1       1.138   2.711  19.608  0.00  0.00    +0.000 A 
ENDBRANCH  26  27
ENDBRANCH  25  26
ENDBRANCH  23  25
ENDBRANCH  22  23
ENDBRANCH   3  22
TORSDOF 11
ENDMDL
MODEL 6
REMARK VINA RESULT:      -7.8      0.738      1.563
REMARK  Name = 
REMARK  14 active torsions:
REMARK  status: ('A' for Active; 'I' for Inactive)
REMARK    1  A    between atoms: C_1  and  C_2
REMARK    2  A    between atoms: C_2  and  C_3
REMARK    3  A    between atoms: C_2  and  C_4
REMARK    4  A    between atoms: C_2  and  C_5
REMARK    5  A    between atoms: C_6  and  C_7
REMARK    6  A    between atoms: C_9  and  C_10
REMARK    7  A    between atoms: C_9  and  C_21
REMARK    8  A    between atoms: C_10  and  C_11
REMARK    9  A    between atoms: C_11  and  O_13
REMARK   10  A    between atoms: O_13  and  C_14
REMARK   11  A    between atoms: C_14  and  C_15
REMARK   12  A    between atoms: C_21  and  O_23
REMARK   13  A    between atoms: O_23  and  C_24
REMARK   14  A    between atoms: C_24  and  C_25
REMARK                            x       y       z     vdW  Elec       q    Type
REMARK                         _______ _______ _______ _____ _____    ______ ____
ROOT
ATOM      1  C   UNL     1       3.780   4.595  18.534  0.00  0.00    +0.000 C 
ATOM      2  C   UNL     1       3.989   5.772  17.891  0.00  0.00    +0.000 C 
ATOM      3  C   UNL     1       5.409   5.878  17.344  0.00  0.00    +0.000 C 
ATOM      4  C   UNL     1       5.925   4.488  17.697  0.00  0.00    +0.000 C 
ATOM      5  C   UNL     1       4.999   3.806  18.384  0.00  0.00    +0.000 C 
ENDROOT
BRANCH   1   7
ATOM      6  C   UNL     1       2.068   5.039  20.350  0.00  0.00    +0.000 C 
ATOM      7  C   UNL     1       2.539   4.058  19.256  0.00  0.00    +0.000 C 
ATOM      8  C   UNL     1       2.831   2.680  19.892  0.00  0.00    +0.000 C 
ATOM      9  C   UNL     1       1.340   3.840  18.301  0.00  0.00    +0.000 C 
ENDBRANCH   1   7
BRANCH   2  10
ATOM     10  C   UNL     1       2.994   6.833  17.659  0.00  0.00    +0.000 C 
ATOM     11  O   UNL     1       2.819   7.752  18.448  0.00  0.00    +0.000 OA
ENDBRANCH   2  10
BRANCH   3  12
ATOM     12  C   UNL     1       5.456   5.988  15.800  0.00  0.00    +0.000 C 
ATOM     13  O   UNL     1       5.029   6.942  15.158  0.00  0.00    +0.000 OA
BRANCH  12  14
ATOM     14  O   UNL     1       5.872   4.814  15.235  0.00  0.00    +0.000 OA
BRANCH  14  15
ATOM     15  C   UNL     1       6.676   4.931  14.048  0.00  0.00    +0.000 C 
BRANCH  15  16
ATOM     16  C   UNL     1       6.205   3.938  13.013  0.00  0.00    +0.000 A 
ATOM     17  C   UNL     1       4.859   3.869  12.627  0.00  0.00    +0.000 A 
ATOM     18  C   UNL     1       4.448   2.963  11.641  0.00  0.00    +0.000 A 
ATOM     19  C   UNL     1       5.378   2.128  11.028  0.00  0.00    +0.000 A 
ATOM     20  C   UNL     1       6.722   2.202  11.391  0.00  0.00    +0.000 A 
ATOM     21  C   UNL     1       7.131   3.103  12.373  0.00  0.00    +0.000 A 
ENDBRANCH  15  16
ENDBRANCH  14  15
ENDBRANCH  12  14
ENDBRANCH   3  12
BRANCH   3  22
ATOM     22  C   UNL     1       6.286   6.885  18.101  0.00  0.00    +0.000 C 
BRANCH  22  23
ATOM     23  C   UNL     1       7.439   7.401  17.292  0.00  0.00    +0.000 C 
ATOM     24  O   UNL     1       8.024   6.736  16.448  0.00  0.00    +0.000 OA
BRANCH  23  25
ATOM     25  O   UNL     1       7.748   8.671  17.656  0.00  0.00    +0.000 OA
BRANCH  25  26
ATOM     26  C   UNL     1       8.734   8.804  18.691  0.00  0.00    +0.000 C 
BRANCH  26  27
ATOM     27  C   UNL     1       9.031  10.270  18.875  0.00  0.00    +0.000 A 
ATOM     28  C   UNL     1       9.503  10.762  20.099  0.00  0.00    +0.000 A 
ATOM     29  C   UNL     1       9.727  12.128  20.272  0.00  0.00    +0.000 A 
ATOM     30  C   UNL     1       9.487  13.014  19.223  0.00  0.00    +0.000 A 
ATOM     31  C   UNL     1       9.033  12.534  17.997  0.00  0.00    +0.000 A 
ATOM     32  C   UNL     1       8.804  11.169  17.823  0.00  0.00    +0.000 A 
ENDBRANCH  26  27
ENDBRANCH  25  26
ENDBRANCH  23  25
ENDBRANCH  22  23
ENDBRANCH   3  22
TORSDOF 11
ENDMDL
MODEL 7
REMARK VINA RESULT:      -7.7      3.747      5.600
REMARK  Name = 
REMARK  14 active torsions:
REMARK  status: ('A' for Active; 'I' for Inactive)
REMARK    1  A    between atoms: C_1  and  C_2
REMARK    2  A    between atoms: C_2  and  C_3
REMARK    3  A    between atoms: C_2  and  C_4
REMARK    4  A    between atoms: C_2  and  C_5
REMARK    5  A    between atoms: C_6  and  C_7
REMARK    6  A    between atoms: C_9  and  C_10
REMARK    7  A    between atoms: C_9  and  C_21
REMARK    8  A    between atoms: C_10  and  C_11
REMARK    9  A    between atoms: C_11  and  O_13
REMARK   10  A    between atoms: O_13  and  C_14
REMARK   11  A    between atoms: C_14  and  C_15
REMARK   12  A    between atoms: C_21  and  O_23
REMARK   13  A    between atoms: O_23  and  C_24
REMARK   14  A    between atoms: C_24  and  C_25
REMARK                            x       y       z     vdW  Elec       q    Type
REMARK                         _______ _______ _______ _____ _____    ______ ____
ROOT
ATOM      1  C   UNL     1       3.848   3.778  19.106  0.00  0.00    +0.000 C 
ATOM      2  C   UNL     1       3.391   4.431  18.008  0.00  0.00    +0.000 C 
ATOM      3  C   UNL     1       3.987   5.830  17.888  0.00  0.00    +0.000 C 
ATOM      4  C   UNL     1       4.958   5.797  19.063  0.00  0.00    +0.000 C 
ATOM      5  C   UNL     1       4.836   4.647  19.737  0.00  0.00    +0.000 C 
ENDROOT
BRANCH   1   7
ATOM      6  C   UNL     1       4.524   1.958  20.737  0.00  0.00    +0.000 C 
ATOM      7  C   UNL     1       3.518   2.382  19.647  0.00  0.00    +0.000 C 
ATOM      8  C   UNL     1       3.524   1.339  18.507  0.00  0.00    +0.000 C 
ATOM      9  C   UNL     1       2.108   2.306  20.284  0.00  0.00    +0.000 C 
ENDBRANCH   1   7
BRANCH   2  10
ATOM     10  C   UNL     1       2.481   3.893  16.982  0.00  0.00    +0.000 C 
ATOM     11  O   UNL     1       1.273   3.803  17.159  0.00  0.00    +0.000 OA
ENDBRANCH   2  10
BRANCH   3  12
ATOM     12  C   UNL     1       4.844   6.015  16.612  0.00  0.00    +0.000 C 
ATOM     13  O   UNL     1       4.731   6.953  15.828  0.00  0.00    +0.000 OA
BRANCH  12  14
ATOM     14  O   UNL     1       5.620   4.914  16.376  0.00  0.00    +0.000 OA
BRANCH  14  15
ATOM     15  C   UNL     1       6.898   5.159  15.760  0.00  0.00    +0.000 C 
BRANCH  15  16
ATOM     16  C   UNL     1       6.851   4.746  14.308  0.00  0.00    +0.000 A 
ATOM     17  C   UNL     1       7.737   5.290  13.367  0.00  0.00    +0.000 A 
ATOM     18  C   UNL     1       7.699   4.870  12.030  0.00  0.00    +0.000 A 
ATOM     19  C   UNL     1       6.785   3.900  11.629  0.00  0.00    +0.000 A 
ATOM     20  C   UNL     1       5.914   3.339  12.561  0.00  0.00    +0.000 A 
ATOM     21  C   UNL     1       5.950   3.758  13.890  0.00  0.00    +0.000 A 
ENDBRANCH  15  16
ENDBRANCH  14  15
ENDBRANCH  12  14
ENDBRANCH   3  12
BRANCH   3  22
ATOM     22  C   UNL     1       2.981   6.953  18.172  0.00  0.00    +0.000 C 
BRANCH  22  23
ATOM     23  C   UNL     1       2.238   6.779  19.464  0.00  0.00    +0.000 C 
ATOM     24  O   UNL     1       1.698   5.734  19.798  0.00  0.00    +0.000 OA
BRANCH  23  25
ATOM     25  O   UNL     1       2.228   7.939  20.169  0.00  0.00    +0.000 OA
BRANCH  25  26
ATOM     26  C   UNL     1       1.331   8.953  19.693  0.00  0.00    +0.000 C 
BRANCH  26  27
ATOM     27  C   UNL     1       0.611   9.541  20.880  0.00  0.00    +0.000 A 
ATOM     28  C   UNL     1       0.670   8.925  22.137  0.00  0.00    +0.000 A 
ATOM     29  C   UNL     1      -0.042   9.452  23.216  0.00  0.00    +0.000 A 
ATOM     30  C   UNL     1      -0.812  10.602  23.050  0.00  0.00    +0.000 A 
ATOM     31  C   UNL     1      -0.864  11.232  21.809  0.00  0.00    +0.000 A 
ATOM     32  C   UNL     1      -0.157  10.704  20.728  0.00  0.00    +0.000 A 
ENDBRANCH  26  27
ENDBRANCH  25  26
ENDBRANCH  23  25
ENDBRANCH  22  23
ENDBRANCH   3  22
TORSDOF 11
ENDMDL
MODEL 8
REMARK VINA RESULT:      -7.7      2.660      4.645
REMARK  Name = 
REMARK  14 active torsions:
REMARK  status: ('A' for Active; 'I' for Inactive)
REMARK    1  A    between atoms: C_1  and  C_2
REMARK    2  A    between atoms: C_2  and  C_3
REMARK    3  A    between atoms: C_2  and  C_4
REMARK    4  A    between atoms: C_2  and  C_5
REMARK    5  A    between atoms: C_6  and  C_7
REMARK    6  A    between atoms: C_9  and  C_10
REMARK    7  A    between atoms: C_9  and  C_21
REMARK    8  A    between atoms: C_10  and  C_11
REMARK    9  A    between atoms: C_11  and  O_13
REMARK   10  A    between atoms: O_13  and  C_14
REMARK   11  A    between atoms: C_14  and  C_15
REMARK   12  A    between atoms: C_21  and  O_23
REMARK   13  A    between atoms: O_23  and  C_24
REMARK   14  A    between atoms: C_24  and  C_25
REMARK                            x       y       z     vdW  Elec       q    Type
REMARK                         _______ _______ _______ _____ _____    ______ ____
ROOT
ATOM      1  C   UNL     1       3.882   6.659  18.306  0.00  0.00    +0.000 C 
ATOM      2  C   UNL     1       4.608   6.319  17.212  0.00  0.00    +0.000 C 
ATOM      3  C   UNL     1       5.833   5.486  17.578  0.00  0.00    +0.000 C 
ATOM      4  C   UNL     1       5.594   5.321  19.075  0.00  0.00    +0.000 C 
ATOM      5  C   UNL     1       4.510   6.010  19.453  0.00  0.00    +0.000 C 
ENDROOT
BRANCH   1   7
ATOM      6  C   UNL     1       2.841   8.943  17.951  0.00  0.00    +0.000 C 
ATOM      7  C   UNL     1       2.605   7.498  18.435  0.00  0.00    +0.000 C 
ATOM      8  C   UNL     1       2.111   7.518  19.900  0.00  0.00    +0.000 C 
ATOM      9  C   UNL     1       1.430   6.930  17.600  0.00  0.00    +0.000 C 
ENDBRANCH   1   7
BRANCH   2  10
ATOM     10  C   UNL     1       4.280   6.627  15.810  0.00  0.00    +0.000 C 
ATOM     11  O   UNL     1       5.080   7.157  15.050  0.00  0.00    +0.000 OA
ENDBRANCH   2  10
BRANCH   3  12
ATOM     12  C   UNL     1       5.802   4.064  16.967  0.00  0.00    +0.000 C 
ATOM     13  O   UNL     1       6.197   3.783  15.840  0.00  0.00    +0.000 OA
BRANCH  12  14
ATOM     14  O   UNL     1       5.119   3.195  17.773  0.00  0.00    +0.000 OA
BRANCH  14  15
ATOM     15  C   UNL     1       3.748   2.943  17.417  0.00  0.00    +0.000 C 
BRANCH  15  16
ATOM     16  C   UNL     1       2.875   3.049  18.644  0.00  0.00    +0.000 A 
ATOM     17  C   UNL     1       1.535   3.452  18.553  0.00  0.00    +0.000 A 
ATOM     18  C   UNL     1       0.731   3.514  19.699  0.00  0.00    +0.000 A 
ATOM     19  C   UNL     1       1.257   3.165  20.940  0.00  0.00    +0.000 A 
ATOM     20  C   UNL     1       2.582   2.744  21.038  0.00  0.00    +0.000 A 
ATOM     21  C   UNL     1       3.382   2.684  19.898  0.00  0.00    +0.000 A 
ENDBRANCH  15  16
ENDBRANCH  14  15
ENDBRANCH  12  14
ENDBRANCH   3  12
BRANCH   3  22
ATOM     22  C   UNL     1       7.159   6.240  17.419  0.00  0.00    +0.000 C 
BRANCH  22  23
ATOM     23  C   UNL     1       7.965   6.310  18.683  0.00  0.00    +0.000 C 
ATOM     24  O   UNL     1       8.167   5.347  19.409  0.00  0.00    +0.000 OA
BRANCH  23  25
ATOM     25  O   UNL     1       8.392   7.578  18.908  0.00  0.00    +0.000 OA
BRANCH  25  26
ATOM     26  C   UNL     1       8.136   8.521  17.857  0.00  0.00    +0.000 C 
BRANCH  26  27
ATOM     27  C   UNL     1       8.610   9.877  18.312  0.00  0.00    +0.000 A 
ATOM     28  C   UNL     1       8.327  11.029  17.566  0.00  0.00    +0.000 A 
ATOM     29  C   UNL     1       8.815  12.271  17.972  0.00  0.00    +0.000 A 
ATOM     30  C   UNL     1       9.584  12.375  19.130  0.00  0.00    +0.000 A 
ATOM     31  C   UNL     1       9.858  11.239  19.889  0.00  0.00    +0.000 A 
ATOM     32  C   UNL     1       9.375   9.996  19.481  0.00  0.00    +0.000 A 
ENDBRANCH  26  27
ENDBRANCH  25  26
ENDBRANCH  23  25
ENDBRANCH  22  23
ENDBRANCH   3  22
TORSDOF 11
ENDMDL
MODEL 9
REMARK VINA RESULT:      -7.6      2.490      3.871
REMARK  Name = 
REMARK  14 active torsions:
REMARK  status: ('A' for Active; 'I' for Inactive)
REMARK    1  A    between atoms: C_1  and  C_2
REMARK    2  A    between atoms: C_2  and  C_3
REMARK    3  A    between atoms: C_2  and  C_4
REMARK    4  A    between atoms: C_2  and  C_5
REMARK    5  A    between atoms: C_6  and  C_7
REMARK    6  A    between atoms: C_9  and  C_10
REMARK    7  A    between atoms: C_9  and  C_21
REMARK    8  A    between atoms: C_10  and  C_11
REMARK    9  A    between atoms: C_11  and  O_13
REMARK   10  A    between atoms: O_13  and  C_14
REMARK   11  A    between atoms: C_14  and  C_15
REMARK   12  A    between atoms: C_21  and  O_23
REMARK   13  A    between atoms: O_23  and  C_24
REMARK   14  A    between atoms: C_24  and  C_25
REMARK                            x       y       z     vdW  Elec       q    Type
REMARK                         _______ _______ _______ _____ _____    ______ ____
ROOT
ATOM      1  C   UNL     1       3.941   6.491  18.547  0.00  0.00    +0.000 C 
ATOM      2  C   UNL     1       5.006   6.537  17.706  0.00  0.00    +0.000 C 
ATOM      3  C   UNL     1       6.107   5.570  18.129  0.00  0.00    +0.000 C 
ATOM      4  C   UNL     1       5.412   4.885  19.300  0.00  0.00    +0.000 C 
ATOM      5  C   UNL     1       4.214   5.441  19.523  0.00  0.00    +0.000 C 
ENDROOT
BRANCH   1   7
ATOM      6  C   UNL     1       1.557   6.578  17.689  0.00  0.00    +0.000 C 
ATOM      7  C   UNL     1       2.630   7.286  18.542  0.00  0.00    +0.000 C 
ATOM      8  C   UNL     1       2.861   8.715  17.999  0.00  0.00    +0.000 C 
ATOM      9  C   UNL     1       2.033   7.463  19.960  0.00  0.00    +0.000 C 
ENDBRANCH   1   7
BRANCH   2  10
ATOM     10  C   UNL     1       5.124   7.349  16.483  0.00  0.00    +0.000 C 
ATOM     11  O   UNL     1       4.997   6.871  15.363  0.00  0.00    +0.000 OA
ENDBRANCH   2  10
BRANCH   3  12
ATOM     12  C   UNL     1       6.384   4.471  17.075  0.00  0.00    +0.000 C 
ATOM     13  O   UNL     1       7.500   4.165  16.666  0.00  0.00    +0.000 OA
BRANCH  12  14
ATOM     14  O   UNL     1       5.219   4.006  16.530  0.00  0.00    +0.000 OA
BRANCH  14  15
ATOM     15  C   UNL     1       4.888   2.634  16.815  0.00  0.00    +0.000 C 
BRANCH  15  16
ATOM     16  C   UNL     1       3.616   2.574  17.625  0.00  0.00    +0.000 A 
ATOM     17  C   UNL     1       3.549   1.855  18.826  0.00  0.00    +0.000 A 
ATOM     18  C   UNL     1       2.367   1.838  19.580  0.00  0.00    +0.000 A 
ATOM     19  C   UNL     1       1.251   2.546  19.144  0.00  0.00    +0.000 A 
ATOM     20  C   UNL     1       1.313   3.280  17.961  0.00  0.00    +0.000 A 
ATOM     21  C   UNL     1       2.488   3.296  17.210  0.00  0.00    +0.000 A 
ENDBRANCH  15  16
ENDBRANCH  14  15
ENDBRANCH  12  14
ENDBRANCH   3  12
BRANCH   3  22
ATOM     22  C   UNL     1       7.352   6.266  18.694  0.00  0.00    +0.000 C 
BRANCH  22  23
ATOM     23  C   UNL     1       7.883   7.355  17.809  0.00  0.00    +0.000 C 
ATOM     24  O   UNL     1       7.944   7.267  16.591  0.00  0.00    +0.000 OA
BRANCH  23  25
ATOM     25  O   UNL     1       8.306   8.410  18.551  0.00  0.00    +0.000 OA
BRANCH  25  26
ATOM     26  C   UNL     1       8.310   9.682  17.887  0.00  0.00    +0.000 C 
BRANCH  26  27
ATOM     27  C   UNL     1       9.330  10.564  18.559  0.00  0.00    +0.000 A 
ATOM     28  C   UNL     1      10.328  11.208  17.816  0.00  0.00    +0.000 A 
ATOM     29  C   UNL     1      11.297  11.982  18.457  0.00  0.00    +0.000 A 
ATOM     30  C   UNL     1      11.274  12.124  19.843  0.00  0.00    +0.000 A 
ATOM     31  C   UNL     1      10.276  11.501  20.590  0.00  0.00    +0.000 A 
ATOM     32  C   UNL     1       9.309  10.724  19.952  0.00  0.00    +0.000 A 
ENDBRANCH  26  27
ENDBRANCH  25  26
ENDBRANCH  23  25
ENDBRANCH  22  23
ENDBRANCH   3  22
TORSDOF 11
ENDMDL
