MODEL 1
REMARK VINA RESULT:      -7.6      0.000      0.000
REMARK  Name = 
REMARK  4 active torsions:
REMARK  status: ('A' for Active; 'I' for Inactive)
REMARK    1  A    between atoms: C_1  and  N_2
REMARK    2  A    between atoms: C_5  and  S_6
REMARK    3  A    between atoms: S_6  and  N_9
REMARK    4  A    between atoms: N_12  and  C_13
REMARK                            x       y       z     vdW  Elec       q    Type
REMARK                         _______ _______ _______ _____ _____    ______ ____
ROOT
ATOM      1  N   UNL     1       5.606   4.344  17.610  0.00  0.00    +0.000 NA
ATOM      2  C   UNL     1       5.465   4.558  19.075  0.00  0.00    +0.000 C 
ATOM      3  C   UNL     1       4.793   5.901  19.384  0.00  0.00    +0.000 C 
ATOM      4  N   UNL     1       3.512   6.009  18.659  0.00  0.00    +0.000 N 
ATOM      5  C   UNL     1       3.561   5.754  17.207  0.00  0.00    +0.000 C 
ATOM      6  C   UNL     1       4.292   4.428  16.916  0.00  0.00    +0.000 C 
ENDROOT
BRANCH   4   7
ATOM      7  C   UNL     1       2.588   6.941  19.121  0.00  0.00    +0.000 A 
ATOM      8  C   UNL     1       2.266   8.109  18.416  0.00  0.00    +0.000 A 
ATOM      9  C   UNL     1       1.489   9.116  18.996  0.00  0.00    +0.000 A 
ATOM     10  C   UNL     1       1.008   8.962  20.293  0.00  0.00    +0.000 A 
ATOM     11  C   UNL     1       1.268   7.786  20.988  0.00  0.00    +0.000 A 
ATOM     12  C   UNL     1       2.037   6.780  20.399  0.00  0.00    +0.000 A 
ENDBRANCH   4   7
BRANCH   1  13
ATOM     13  S   UNL     1       6.970   4.979  16.845  0.00  0.00    +0.000 S 
ATOM     14  O   UNL     1       8.108   4.190  17.264  0.00  0.00    +0.000 OA
ATOM     15  O   UNL     1       6.953   6.419  17.016  0.00  0.00    +0.000 OA
BRANCH  13  20
ATOM     16  C   UNL     1       6.088   3.127  12.012  0.00  0.00    +0.000 C 
ATOM     17  N   UNL     1       6.562   3.929  13.112  0.00  0.00    +0.000 N 
ATOM     18  C   UNL     1       7.477   4.939  13.032  0.00  0.00    +0.000 A 
ATOM     19  N   UNL     1       7.700   5.487  14.207  0.00  0.00    +0.000 NA
ATOM     20  C   UNL     1       6.935   4.748  15.104  0.00  0.00    +0.000 A 
ATOM     21  C   UNL     1       6.203   3.789  14.423  0.00  0.00    +0.000 A 
ENDBRANCH  13  20
ENDBRANCH   1  13
TORSDOF 3
ENDMDL
MODEL 2
REMARK VINA RESULT:      -7.5      3.110      4.620
REMARK  Name = 
REMARK  4 active torsions:
REMARK  status: ('A' for Active; 'I' for Inactive)
REMARK    1  A    between atoms: C_1  and  N_2
REMARK    2  A    between atoms: C_5  and  S_6
REMARK    3  A    between atoms: S_6  and  N_9
REMARK    4  A    between atoms: N_12  and  C_13
REMARK                            x       y       z     vdW  Elec       q    Type
REMARK                         _______ _______ _______ _____ _____    ______ ____
ROOT
ATOM      1  N   UNL     1       5.325   5.483  16.263  0.00  0.00    +0.000 NA
ATOM      2  C   UNL     1       4.625   4.201  15.984  0.00  0.00    +0.000 C 
ATOM      3  C   UNL     1       4.286   3.453  17.279  0.00  0.00    +0.000 C 
ATOM      4  N   UNL     1       3.534   4.334  18.194  0.00  0.00    +0.000 N 
ATOM      5  C   UNL     1       4.138   5.649  18.476  0.00  0.00    +0.000 C 
ATOM      6  C   UNL     1       4.524   6.358  17.163  0.00  0.00    +0.000 C 
ENDROOT
BRANCH   4   7
ATOM      7  C   UNL     1       2.799   3.728  19.209  0.00  0.00    +0.000 A 
ATOM      8  C   UNL     1       1.420   3.920  19.369  0.00  0.00    +0.000 A 
ATOM      9  C   UNL     1       0.750   3.460  20.507  0.00  0.00    +0.000 A 
ATOM     10  C   UNL     1       1.453   2.788  21.502  0.00  0.00    +0.000 A 
ATOM     11  C   UNL     1       2.811   2.537  21.336  0.00  0.00    +0.000 A 
ATOM     12  C   UNL     1       3.471   2.991  20.192  0.00  0.00    +0.000 A 
ENDBRANCH   4   7
BRANCH   1  13
ATOM     13  S   UNL     1       7.002   5.446  16.449  0.00  0.00    +0.000 S 
ATOM     14  O   UNL     1       7.587   5.747  15.160  0.00  0.00    +0.000 OA
ATOM     15  O   UNL     1       7.350   4.234  17.166  0.00  0.00    +0.000 OA
BRANCH  13  20
ATOM     16  C   UNL     1       8.649  10.078  18.293  0.00  0.00    +0.000 C 
ATOM     17  N   UNL     1       8.295   8.684  18.194  0.00  0.00    +0.000 N 
ATOM     18  C   UNL     1       8.527   7.730  19.144  0.00  0.00    +0.000 A 
ATOM     19  N   UNL     1       8.082   6.551  18.765  0.00  0.00    +0.000 NA
ATOM     20  C   UNL     1       7.595   6.742  17.476  0.00  0.00    +0.000 A 
ATOM     21  C   UNL     1       7.703   8.078  17.123  0.00  0.00    +0.000 A 
ENDBRANCH  13  20
ENDBRANCH   1  13
TORSDOF 3
ENDMDL
MODEL 3
REMARK VINA RESULT:      -7.4      2.695      3.568
REMARK  Name = 
REMARK  4 active torsions:
REMARK  status: ('A' for Active; 'I' for Inactive)
REMARK    1  A    between atoms: C_1  and  N_2
REMARK    2  A    between atoms: C_5  and  S_6
REMARK    3  A    between atoms: S_6  and  N_9
REMARK    4  A    between atoms: N_12  and  C_13
REMARK                            x       y       z     vdW  Elec       q    Type
REMARK                         _______ _______ _______ _____ _____    ______ ____
ROOT
ATOM      1  N   UNL     1       2.490   3.133  19.517  0.00  0.00    +0.000 NA
ATOM      2  C   UNL     1       2.392   3.949  20.756  0.00  0.00    +0.000 C 
ATOM      3  C   UNL     1       2.791   5.408  20.500  0.00  0.00    +0.000 C 
ATOM      4  N   UNL     1       2.006   5.962  19.380  0.00  0.00    +0.000 N 
ATOM      5  C   UNL     1       2.009   5.178  18.131  0.00  0.00    +0.000 C 
ATOM      6  C   UNL     1       1.662   3.704  18.419  0.00  0.00    +0.000 C 
ENDROOT
BRANCH   4   7
ATOM      7  C   UNL     1       1.928   7.348  19.274  0.00  0.00    +0.000 A 
ATOM      8  C   UNL     1       1.426   8.163  20.298  0.00  0.00    +0.000 A 
ATOM      9  C   UNL     1       1.176   9.523  20.087  0.00  0.00    +0.000 A 
ATOM     10  C   UNL     1       1.439  10.092  18.844  0.00  0.00    +0.000 A 
ATOM     11  C   UNL     1       1.991   9.313  17.833  0.00  0.00    +0.000 A 
ATOM     12  C   UNL     1       2.247   7.958  18.054  0.00  0.00    +0.000 A 
ENDBRANCH   4   7
BRANCH   1  13
ATOM     13  S   UNL     1       3.987   2.451  19.134  0.00  0.00    +0.000 S 
ATOM     14  O   UNL     1       3.754   1.431  18.134  0.00  0.00    +0.000 OA
ATOM     15  O   UNL     1       4.672   2.143  20.374  0.00  0.00    +0.000 OA
BRANCH  13  20
ATOM     16  C   UNL     1       6.646   5.177  15.520  0.00  0.00    +0.000 C 
ATOM     17  N   UNL     1       6.156   4.677  16.780  0.00  0.00    +0.000 N 
ATOM     18  C   UNL     1       6.656   4.985  18.013  0.00  0.00    +0.000 A 
ATOM     19  N   UNL     1       5.991   4.376  18.971  0.00  0.00    +0.000 NA
ATOM     20  C   UNL     1       5.054   3.583  18.317  0.00  0.00    +0.000 A 
ATOM     21  C   UNL     1       5.135   3.785  16.949  0.00  0.00    +0.000 A 
ENDBRANCH  13  20
ENDBRANCH   1  13
TORSDOF 3
ENDMDL
MODEL 4
REMARK VINA RESULT:      -7.4      2.228      3.042
REMARK  Name = 
REMARK  4 active torsions:
REMARK  status: ('A' for Active; 'I' for Inactive)
REMARK    1  A    between atoms: C_1  and  N_2
REMARK    2  A    between atoms: C_5  and  S_6
REMARK    3  A    between atoms: S_6  and  N_9
REMARK    4  A    between atoms: N_12  and  C_13
REMARK                            x       y       z     vdW  Elec       q    Type
REMARK                         _______ _______ _______ _____ _____    ______ ____
ROOT
ATOM      1  N   UNL     1       5.471   6.137  16.938  0.00  0.00    +0.000 NA
ATOM      2  C   UNL     1       4.221   5.531  16.409  0.00  0.00    +0.000 C 
ATOM      3  C   UNL     1       3.773   4.336  17.259  0.00  0.00    +0.000 C 
ATOM      4  N   UNL     1       3.668   4.730  18.677  0.00  0.00    +0.000 N 
ATOM      5  C   UNL     1       4.851   5.390  19.260  0.00  0.00    +0.000 C 
ATOM      6  C   UNL     1       5.319   6.551  18.360  0.00  0.00    +0.000 C 
ENDROOT
BRANCH   4   7
ATOM      7  C   UNL     1       2.900   3.925  19.513  0.00  0.00    +0.000 A 
ATOM      8  C   UNL     1       1.498   3.960  19.527  0.00  0.00    +0.000 A 
ATOM      9  C   UNL     1       0.765   3.289  20.511  0.00  0.00    +0.000 A 
ATOM     10  C   UNL     1       1.427   2.557  21.492  0.00  0.00    +0.000 A 
ATOM     11  C   UNL     1       2.815   2.462  21.462  0.00  0.00    +0.000 A 
ATOM     12  C   UNL     1       3.540   3.127  20.471  0.00  0.00    +0.000 A 
ENDBRANCH   4   7
BRANCH   1  13
ATOM     13  S   UNL     1       6.943   5.481  16.437  0.00  0.00    +0.000 S 
ATOM     14  O   UNL     1       7.142   4.252  17.175  0.00  0.00    +0.000 OA
ATOM     15  O   UNL     1       7.938   6.536  16.458  0.00  0.00    +0.000 OA
BRANCH  13  20
ATOM     16  C   UNL     1       5.996   2.857  11.990  0.00  0.00    +0.000 C 
ATOM     17  N   UNL     1       6.506   3.812  12.941  0.00  0.00    +0.000 N 
ATOM     18  C   UNL     1       7.479   4.740  12.701  0.00  0.00    +0.000 A 
ATOM     19  N   UNL     1       7.723   5.473  13.765  0.00  0.00    +0.000 NA
ATOM     20  C   UNL     1       6.910   4.948  14.764  0.00  0.00    +0.000 A 
ATOM     21  C   UNL     1       6.129   3.926  14.249  0.00  0.00    +0.000 A 
ENDBRANCH  13  20
ENDBRANCH   1  13
TORSDOF 3
ENDMDL
MODEL 5
REMARK VINA RESULT:      -7.4      3.033      4.586
REMARK  Name = 
REMARK  4 active torsions:
REMARK  status: ('A' for Active; 'I' for Inactive)
REMARK    1  A    between atoms: C_1  and  N_2
REMARK    2  A    between atoms: C_5  and  S_6
REMARK    3  A    between atoms: S_6  and  N_9
REMARK    4  A    between atoms: N_12  and  C_13
REMARK                            x       y       z     vdW  Elec       q    Type
REMARK                         _______ _______ _______ _____ _____    ______ ____
ROOT
ATOM      1  N   UNL     1       5.245   5.338  16.163  0.00  0.00    +0.000 NA
ATOM      2  C   UNL     1       4.548   4.027  16.077  0.00  0.00    +0.000 C 
ATOM      3  C   UNL     1       4.259   3.453  17.470  0.00  0.00    +0.000 C 
ATOM      4  N   UNL     1       3.529   4.442  18.287  0.00  0.00    +0.000 N 
ATOM      5  C   UNL     1       4.130   5.786  18.375  0.00  0.00    +0.000 C 
ATOM      6  C   UNL     1       4.466   6.319  16.968  0.00  0.00    +0.000 C 
ENDROOT
BRANCH   4   7
ATOM      7  C   UNL     1       2.833   3.970  19.397  0.00  0.00    +0.000 A 
ATOM      8  C   UNL     1       3.440   3.222  20.415  0.00  0.00    +0.000 A 
ATOM      9  C   UNL     1       2.679   2.599  21.409  0.00  0.00    +0.000 A 
ATOM     10  C   UNL     1       1.293   2.726  21.405  0.00  0.00    +0.000 A 
ATOM     11  C   UNL     1       0.677   3.511  20.436  0.00  0.00    +0.000 A 
ATOM     12  C   UNL     1       1.444   4.139  19.453  0.00  0.00    +0.000 A 
ENDBRANCH   4   7
BRANCH   1  13
ATOM     13  S   UNL     1       6.928   5.334  16.296  0.00  0.00    +0.000 S 
ATOM     14  O   UNL     1       7.464   5.728  15.011  0.00  0.00    +0.000 OA
ATOM     15  O   UNL     1       7.327   4.090  16.925  0.00  0.00    +0.000 OA
BRANCH  13  20
ATOM     16  C   UNL     1       8.622   9.861  18.344  0.00  0.00    +0.000 C 
ATOM     17  N   UNL     1       8.242   8.480  18.187  0.00  0.00    +0.000 N 
ATOM     18  C   UNL     1       8.430   7.488  19.107  0.00  0.00    +0.000 A 
ATOM     19  N   UNL     1       7.971   6.333  18.675  0.00  0.00    +0.000 NA
ATOM     20  C   UNL     1       7.521   6.580  17.383  0.00  0.00    +0.000 A 
ATOM     21  C   UNL     1       7.665   7.924  17.081  0.00  0.00    +0.000 A 
ENDBRANCH  13  20
ENDBRANCH   1  13
TORSDOF 3
ENDMDL
MODEL 6
REMARK VINA RESULT:      -7.3      2.806      3.659
REMARK  Name = 
REMARK  4 active torsions:
REMARK  status: ('A' for Active; 'I' for Inactive)
REMARK    1  A    between atoms: C_1  and  N_2
REMARK    2  A    between atoms: C_5  and  S_6
REMARK    3  A    between atoms: S_6  and  N_9
REMARK    4  A    between atoms: N_12  and  C_13
REMARK                            x       y       z     vdW  Elec       q    Type
REMARK                         _______ _______ _______ _____ _____    ______ ____
ROOT
ATOM      1  N   UNL     1       2.509   3.219  19.483  0.00  0.00    +0.000 NA
ATOM      2  C   UNL     1       2.495   4.042  20.721  0.00  0.00    +0.000 C 
ATOM      3  C   UNL     1       2.865   5.501  20.430  0.00  0.00    +0.000 C 
ATOM      4  N   UNL     1       1.999   6.044  19.366  0.00  0.00    +0.000 N 
ATOM      5  C   UNL     1       1.917   5.253  18.124  0.00  0.00    +0.000 C 
ATOM      6  C   UNL     1       1.601   3.779  18.444  0.00  0.00    +0.000 C 
ENDROOT
BRANCH   4   7
ATOM      7  C   UNL     1       1.905   7.429  19.258  0.00  0.00    +0.000 A 
ATOM      8  C   UNL     1       1.378   8.238  20.275  0.00  0.00    +0.000 A 
ATOM      9  C   UNL     1       1.115   9.594  20.060  0.00  0.00    +0.000 A 
ATOM     10  C   UNL     1       1.388  10.167  18.821  0.00  0.00    +0.000 A 
ATOM     11  C   UNL     1       1.964   9.395  17.817  0.00  0.00    +0.000 A 
ATOM     12  C   UNL     1       2.233   8.043  18.043  0.00  0.00    +0.000 A 
ENDBRANCH   4   7
BRANCH   1  13
ATOM     13  S   UNL     1       3.978   2.544  18.997  0.00  0.00    +0.000 S 
ATOM     14  O   UNL     1       3.677   1.472  18.073  0.00  0.00    +0.000 OA
ATOM     15  O   UNL     1       4.780   2.307  20.183  0.00  0.00    +0.000 OA
BRANCH  13  20
ATOM     16  C   UNL     1       7.226   6.356  17.423  0.00  0.00    +0.000 C 
ATOM     17  N   UNL     1       6.286   5.263  17.423  0.00  0.00    +0.000 N 
ATOM     18  C   UNL     1       5.639   4.763  16.330  0.00  0.00    +0.000 A 
ATOM     19  N   UNL     1       4.849   3.761  16.650  0.00  0.00    +0.000 NA
ATOM     20  C   UNL     1       4.943   3.651  18.034  0.00  0.00    +0.000 A 
ATOM     21  C   UNL     1       5.858   4.570  18.520  0.00  0.00    +0.000 A 
ENDBRANCH  13  20
ENDBRANCH   1  13
TORSDOF 3
ENDMDL
MODEL 7
REMARK VINA RESULT:      -7.1      0.159      1.060
REMARK  Name = 
REMARK  4 active torsions:
REMARK  status: ('A' for Active; 'I' for Inactive)
REMARK    1  A    between atoms: C_1  and  N_2
REMARK    2  A    between atoms: C_5  and  S_6
REMARK    3  A    between atoms: S_6  and  N_9
REMARK    4  A    between atoms: N_12  and  C_13
REMARK                            x       y       z     vdW  Elec       q    Type
REMARK                         _______ _______ _______ _____ _____    ______ ____
ROOT
ATOM      1  N   UNL     1       5.570   4.399  17.506  0.00  0.00    +0.000 NA
ATOM      2  C   UNL     1       5.481   4.526  18.985  0.00  0.00    +0.000 C 
ATOM      3  C   UNL     1       4.906   5.887  19.397  0.00  0.00    +0.000 C 
ATOM      4  N   UNL     1       3.617   6.124  18.719  0.00  0.00    +0.000 N 
ATOM      5  C   UNL     1       3.612   5.960  17.253  0.00  0.00    +0.000 C 
ATOM      6  C   UNL     1       4.247   4.612  16.858  0.00  0.00    +0.000 C 
ENDROOT
BRANCH   4   7
ATOM      7  C   UNL     1       2.769   7.082  19.266  0.00  0.00    +0.000 A 
ATOM      8  C   UNL     1       2.149   6.927  20.514  0.00  0.00    +0.000 A 
ATOM      9  C   UNL     1       1.154   7.810  20.945  0.00  0.00    +0.000 A 
ATOM     10  C   UNL     1       0.770   8.873  20.133  0.00  0.00    +0.000 A 
ATOM     11  C   UNL     1       1.413   9.077  18.916  0.00  0.00    +0.000 A 
ATOM     12  C   UNL     1       2.413   8.197  18.497  0.00  0.00    +0.000 A 
ENDBRANCH   4   7
BRANCH   1  13
ATOM     13  S   UNL     1       6.953   4.994  16.742  0.00  0.00    +0.000 S 
ATOM     14  O   UNL     1       8.072   4.191  17.187  0.00  0.00    +0.000 OA
ATOM     15  O   UNL     1       6.962   6.437  16.886  0.00  0.00    +0.000 OA
BRANCH  13  20
ATOM     16  C   UNL     1       6.093   3.060  11.938  0.00  0.00    +0.000 C 
ATOM     17  N   UNL     1       6.565   3.878  13.027  0.00  0.00    +0.000 N 
ATOM     18  C   UNL     1       7.489   4.879  12.935  0.00  0.00    +0.000 A 
ATOM     19  N   UNL     1       7.707   5.447  14.102  0.00  0.00    +0.000 NA
ATOM     20  C   UNL     1       6.929   4.731  15.006  0.00  0.00    +0.000 A 
ATOM     21  C   UNL     1       6.194   3.765  14.337  0.00  0.00    +0.000 A 
ENDBRANCH  13  20
ENDBRANCH   1  13
TORSDOF 3
ENDMDL
MODEL 8
REMARK VINA RESULT:      -7.1      3.114      3.856
REMARK  Name = 
REMARK  4 active torsions:
REMARK  status: ('A' for Active; 'I' for Inactive)
REMARK    1  A    between atoms: C_1  and  N_2
REMARK    2  A    between atoms: C_5  and  S_6
REMARK    3  A    between atoms: S_6  and  N_9
REMARK    4  A    between atoms: N_12  and  C_13
REMARK                            x       y       z     vdW  Elec       q    Type
REMARK                         _______ _______ _______ _____ _____    ______ ____
ROOT
ATOM      1  N   UNL     1       2.795   3.766  19.184  0.00  0.00    +0.000 NA
ATOM      2  C   UNL     1       2.595   4.487  20.469  0.00  0.00    +0.000 C 
ATOM      3  C   UNL     1       2.883   5.986  20.322  0.00  0.00    +0.000 C 
ATOM      4  N   UNL     1       2.090   6.551  19.212  0.00  0.00    +0.000 N 
ATOM      5  C   UNL     1       2.193   5.855  17.917  0.00  0.00    +0.000 C 
ATOM      6  C   UNL     1       1.958   4.342  18.096  0.00  0.00    +0.000 C 
ENDROOT
BRANCH   4   7
ATOM      7  C   UNL     1       1.904   7.930  19.192  0.00  0.00    +0.000 A 
ATOM      8  C   UNL     1       1.293   8.632  20.241  0.00  0.00    +0.000 A 
ATOM      9  C   UNL     1       0.943   9.979  20.107  0.00  0.00    +0.000 A 
ATOM     10  C   UNL     1       1.212  10.650  18.918  0.00  0.00    +0.000 A 
ATOM     11  C   UNL     1       1.869   9.988  17.886  0.00  0.00    +0.000 A 
ATOM     12  C   UNL     1       2.224   8.646  18.032  0.00  0.00    +0.000 A 
ENDBRANCH   4   7
BRANCH   1  13
ATOM     13  S   UNL     1       4.352   3.230  18.812  0.00  0.00    +0.000 S 
ATOM     14  O   UNL     1       4.329   2.748  17.447  0.00  0.00    +0.000 OA
ATOM     15  O   UNL     1       4.810   2.384  19.897  0.00  0.00    +0.000 OA
BRANCH  13  20
ATOM     16  C   UNL     1       7.369   7.250  17.293  0.00  0.00    +0.000 C 
ATOM     17  N   UNL     1       6.773   6.197  18.077  0.00  0.00    +0.000 N 
ATOM     18  C   UNL     1       7.200   5.770  19.301  0.00  0.00    +0.000 A 
ATOM     19  N   UNL     1       6.446   4.797  19.766  0.00  0.00    +0.000 NA
ATOM     20  C   UNL     1       5.521   4.540  18.759  0.00  0.00    +0.000 A 
ATOM     21  C   UNL     1       5.704   5.428  17.711  0.00  0.00    +0.000 A 
ENDBRANCH  13  20
ENDBRANCH   1  13
TORSDOF 3
ENDMDL
MODEL 9
REMARK VINA RESULT:      -7.1      2.324      7.247
REMARK  Name = 
REMARK  4 active torsions:
REMARK  status: ('A' for Active; 'I' for Inactive)
REMARK    1  A    between atoms: C_1  and  N_2
REMARK    2  A    between atoms: C_5  and  S_6
REMARK    3  A    between atoms: S_6  and  N_9
REMARK    4  A    between atoms: N_12  and  C_13
REMARK                            x       y       z     vdW  Elec       q    Type
REMARK                         _______ _______ _______ _____ _____    ______ ____
ROOT
ATOM      1  N   UNL     1       4.812   5.694  18.361  0.00  0.00    +0.000 NA
ATOM      2  C   UNL     1       5.513   4.411  18.094  0.00  0.00    +0.000 C 
ATOM      3  C   UNL     1       5.363   3.985  16.628  0.00  0.00    +0.000 C 
ATOM      4  N   UNL     1       5.794   5.076  15.733  0.00  0.00    +0.000 N 
ATOM      5  C   UNL     1       5.183   6.396  15.973  0.00  0.00    +0.000 C 
ATOM      6  C   UNL     1       5.294   6.779  17.462  0.00  0.00    +0.000 C 
ENDROOT
BRANCH   4   7
ATOM      7  C   UNL     1       6.116   4.741  14.421  0.00  0.00    +0.000 A 
ATOM      8  C   UNL     1       5.374   3.824  13.663  0.00  0.00    +0.000 A 
ATOM      9  C   UNL     1       5.834   3.363  12.426  0.00  0.00    +0.000 A 
ATOM     10  C   UNL     1       7.046   3.825  11.921  0.00  0.00    +0.000 A 
ATOM     11  C   UNL     1       7.770   4.778  12.630  0.00  0.00    +0.000 A 
ATOM     12  C   UNL     1       7.299   5.241  13.860  0.00  0.00    +0.000 A 
ENDBRANCH   4   7
BRANCH   1  13
ATOM     13  S   UNL     1       3.171   5.634  18.752  0.00  0.00    +0.000 S 
ATOM     14  O   UNL     1       3.067   5.133  20.106  0.00  0.00    +0.000 OA
ATOM     15  O   UNL     1       2.470   4.988  17.659  0.00  0.00    +0.000 OA
BRANCH  13  20
ATOM     16  C   UNL     1       0.660   9.946  20.384  0.00  0.00    +0.000 C 
ATOM     17  N   UNL     1       1.371   8.994  19.567  0.00  0.00    +0.000 N 
ATOM     18  C   UNL     1       1.609   9.110  18.227  0.00  0.00    +0.000 A 
ATOM     19  N   UNL     1       2.289   8.082  17.766  0.00  0.00    +0.000 NA
ATOM     20  C   UNL     1       2.443   7.229  18.853  0.00  0.00    +0.000 A 
ATOM     21  C   UNL     1       1.893   7.804  19.987  0.00  0.00    +0.000 A 
ENDBRANCH  13  20
ENDBRANCH   1  13
TORSDOF 3
ENDMDL
