MODEL 1
REMARK VINA RESULT:      -8.1      0.000      0.000
REMARK  Name = 
REMARK  8 active torsions:
REMARK  status: ('A' for Active; 'I' for Inactive)
REMARK    1  A    between atoms: C_1  and  O_2
REMARK    2  A    between atoms: O_2  and  C_3
REMARK    3  A    between atoms: C_6  and  C_7
REMARK    4  A    between atoms: C_14  and  O_15
REMARK    5  A    between atoms: O_15  and  C_16
REMARK    6  A    between atoms: C_16  and  C_17
REMARK    7  A    between atoms: N_19  and  C_20
REMARK    8  A    between atoms: N_19  and  C_21
REMARK                            x       y       z     vdW  Elec       q    Type
REMARK                         _______ _______ _______ _____ _____    ______ ____
ROOT
ATOM      1  C   UNL     1       7.132   8.087  18.190  0.00  0.00    +0.000 A 
ATOM      2  C   UNL     1       8.100   7.271  18.562  0.00  0.00    +0.000 A 
ATOM      3  C   UNL     1       7.914   5.913  19.004  0.00  0.00    +0.000 A 
ATOM      4  O   UNL     1       7.823   5.539  20.132  0.00  0.00    +0.000 OA
ATOM      5  O   UNL     1       7.974   5.153  17.898  0.00  0.00    +0.000 OA
ATOM      6  C   UNL     1       6.776   5.555  17.228  0.00  0.00    +0.000 A 
ATOM      7  C   UNL     1       6.140   4.322  16.832  0.00  0.00    +0.000 A 
ATOM      8  C   UNL     1       4.781   4.197  16.708  0.00  0.00    +0.000 A 
ATOM      9  C   UNL     1       4.080   5.381  17.015  0.00  0.00    +0.000 A 
ATOM     10  C   UNL     1       4.773   6.705  17.347  0.00  0.00    +0.000 A 
ATOM     11  C   UNL     1       6.193   6.880  17.420  0.00  0.00    +0.000 A 
ENDROOT
BRANCH   1  15
ATOM     12  C   UNL     1       9.821  11.947  18.819  0.00  0.00    +0.000 A 
ATOM     13  C   UNL     1       9.961  10.799  19.561  0.00  0.00    +0.000 A 
ATOM     14  C   UNL     1       9.270   9.610  19.221  0.00  0.00    +0.000 A 
ATOM     15  C   UNL     1       8.313   9.386  18.124  0.00  0.00    +0.000 A 
ATOM     16  C   UNL     1       8.211  10.597  17.386  0.00  0.00    +0.000 A 
ATOM     17  C   UNL     1       8.970  11.836  17.712  0.00  0.00    +0.000 A 
BRANCH  12  19
ATOM     18  C   UNL     1      11.878  13.019  19.610  0.00  0.00    +0.000 C 
ATOM     19  O   UNL     1      10.481  13.001  19.372  0.00  0.00    +0.000 OA
ENDBRANCH  12  19
ENDBRANCH   1  15
BRANCH   8  20
ATOM     20  O   UNL     1       4.371   2.890  16.777  0.00  0.00    +0.000 OA
BRANCH  20  21
ATOM     21  C   UNL     1       3.538   2.259  17.736  0.00  0.00    +0.000 C 
BRANCH  21  22
ATOM     22  C   UNL     1       3.577   2.451  19.293  0.00  0.00    +0.000 C 
ATOM     23  O   UNL     1       4.674   2.366  19.861  0.00  0.00    +0.000 OA
ATOM     24  N   UNL     1       2.407   2.617  20.041  0.00  0.00    +0.000 N 
ATOM     25  C   UNL     1       1.050   2.656  19.520  0.00  0.00    +0.000 C 
ATOM     26  C   UNL     1       2.512   2.863  21.481  0.00  0.00    +0.000 C 
ENDBRANCH  21  22
ENDBRANCH  20  21
ENDBRANCH   8  20
TORSDOF 5
ENDMDL
MODEL 2
REMARK VINA RESULT:      -7.9      0.891      1.169
REMARK  Name = 
REMARK  8 active torsions:
REMARK  status: ('A' for Active; 'I' for Inactive)
REMARK    1  A    between atoms: C_1  and  O_2
REMARK    2  A    between atoms: O_2  and  C_3
REMARK    3  A    between atoms: C_6  and  C_7
REMARK    4  A    between atoms: C_14  and  O_15
REMARK    5  A    between atoms: O_15  and  C_16
REMARK    6  A    between atoms: C_16  and  C_17
REMARK    7  A    between atoms: N_19  and  C_20
REMARK    8  A    between atoms: N_19  and  C_21
REMARK                            x       y       z     vdW  Elec       q    Type
REMARK                         _______ _______ _______ _____ _____    ______ ____
ROOT
ATOM      1  C   UNL     1       7.211   8.181  18.205  0.00  0.00    +0.000 A 
ATOM      2  C   UNL     1       8.153   7.337  18.582  0.00  0.00    +0.000 A 
ATOM      3  C   UNL     1       7.929   5.975  18.993  0.00  0.00    +0.000 A 
ATOM      4  O   UNL     1       7.806   5.582  20.112  0.00  0.00    +0.000 OA
ATOM      5  O   UNL     1       7.995   5.235  17.874  0.00  0.00    +0.000 OA
ATOM      6  C   UNL     1       6.820   5.676  17.188  0.00  0.00    +0.000 A 
ATOM      7  C   UNL     1       6.165   4.465  16.756  0.00  0.00    +0.000 A 
ATOM      8  C   UNL     1       4.807   4.373  16.602  0.00  0.00    +0.000 A 
ATOM      9  C   UNL     1       4.126   5.566  16.917  0.00  0.00    +0.000 A 
ATOM     10  C   UNL     1       4.841   6.868  17.288  0.00  0.00    +0.000 A 
ATOM     11  C   UNL     1       6.262   7.010  17.393  0.00  0.00    +0.000 A 
ENDROOT
BRANCH   1  15
ATOM     12  C   UNL     1       9.924  12.011  18.911  0.00  0.00    +0.000 A 
ATOM     13  C   UNL     1       9.980  10.889  19.702  0.00  0.00    +0.000 A 
ATOM     14  C   UNL     1       9.293   9.702  19.350  0.00  0.00    +0.000 A 
ATOM     15  C   UNL     1       8.422   9.454  18.189  0.00  0.00    +0.000 A 
ATOM     16  C   UNL     1       8.405  10.639  17.402  0.00  0.00    +0.000 A 
ATOM     17  C   UNL     1       9.162  11.875  17.743  0.00  0.00    +0.000 A 
BRANCH  12  19
ATOM     18  C   UNL     1      10.531  14.386  18.942  0.00  0.00    +0.000 C 
ATOM     19  O   UNL     1      10.561  13.073  19.476  0.00  0.00    +0.000 OA
ENDBRANCH  12  19
ENDBRANCH   1  15
BRANCH   8  20
ATOM     20  O   UNL     1       4.368   3.074  16.637  0.00  0.00    +0.000 OA
BRANCH  20  21
ATOM     21  C   UNL     1       3.571   2.421  17.614  0.00  0.00    +0.000 C 
BRANCH  21  22
ATOM     22  C   UNL     1       2.275   2.977  18.301  0.00  0.00    +0.000 C 
ATOM     23  O   UNL     1       1.374   3.414  17.571  0.00  0.00    +0.000 OA
ATOM     24  N   UNL     1       2.166   3.074  19.691  0.00  0.00    +0.000 N 
ATOM     25  C   UNL     1       3.171   2.677  20.664  0.00  0.00    +0.000 C 
ATOM     26  C   UNL     1       0.903   3.535  20.275  0.00  0.00    +0.000 C 
ENDBRANCH  21  22
ENDBRANCH  20  21
ENDBRANCH   8  20
TORSDOF 5
ENDMDL
MODEL 3
REMARK VINA RESULT:      -7.8      4.960      7.598
REMARK  Name = 
REMARK  8 active torsions:
REMARK  status: ('A' for Active; 'I' for Inactive)
REMARK    1  A    between atoms: C_1  and  O_2
REMARK    2  A    between atoms: O_2  and  C_3
REMARK    3  A    between atoms: C_6  and  C_7
REMARK    4  A    between atoms: C_14  and  O_15
REMARK    5  A    between atoms: O_15  and  C_16
REMARK    6  A    between atoms: C_16  and  C_17
REMARK    7  A    between atoms: N_19  and  C_20
REMARK    8  A    between atoms: N_19  and  C_21
REMARK                            x       y       z     vdW  Elec       q    Type
REMARK                         _______ _______ _______ _____ _____    ______ ____
ROOT
ATOM      1  C   UNL     1       4.912   5.912  16.743  0.00  0.00    +0.000 A 
ATOM      2  C   UNL     1       5.292   5.037  17.655  0.00  0.00    +0.000 A 
ATOM      3  C   UNL     1       5.256   5.254  19.078  0.00  0.00    +0.000 A 
ATOM      4  O   UNL     1       6.156   5.630  19.763  0.00  0.00    +0.000 OA
ATOM      5  O   UNL     1       4.041   4.846  19.483  0.00  0.00    +0.000 OA
ATOM      6  C   UNL     1       3.205   5.835  18.876  0.00  0.00    +0.000 A 
ATOM      7  C   UNL     1       2.311   6.261  19.924  0.00  0.00    +0.000 A 
ATOM      8  C   UNL     1       1.781   7.523  19.976  0.00  0.00    +0.000 A 
ATOM      9  C   UNL     1       2.202   8.351  18.917  0.00  0.00    +0.000 A 
ATOM     10  C   UNL     1       3.081   7.859  17.763  0.00  0.00    +0.000 A 
ATOM     11  C   UNL     1       3.597   6.527  17.651  0.00  0.00    +0.000 A 
ENDROOT
BRANCH   1  15
ATOM     12  C   UNL     1       6.585   3.832  12.819  0.00  0.00    +0.000 A 
ATOM     13  C   UNL     1       7.347   4.635  13.632  0.00  0.00    +0.000 A 
ATOM     14  C   UNL     1       6.868   5.083  14.887  0.00  0.00    +0.000 A 
ATOM     15  C   UNL     1       5.556   4.839  15.510  0.00  0.00    +0.000 A 
ATOM     16  C   UNL     1       4.812   4.000  14.634  0.00  0.00    +0.000 A 
ATOM     17  C   UNL     1       5.329   3.488  13.335  0.00  0.00    +0.000 A 
BRANCH  12  19
ATOM     18  C   UNL     1       7.389   2.308  11.076  0.00  0.00    +0.000 C 
ATOM     19  O   UNL     1       7.182   3.601  11.617  0.00  0.00    +0.000 OA
ENDBRANCH  12  19
ENDBRANCH   1  15
BRANCH   8  20
ATOM     20  O   UNL     1       1.353   7.855  21.236  0.00  0.00    +0.000 OA
BRANCH  20  21
ATOM     21  C   UNL     1       0.151   8.493  21.637  0.00  0.00    +0.000 C 
BRANCH  21  22
ATOM     22  C   UNL     1      -0.006   9.954  22.187  0.00  0.00    +0.000 C 
ATOM     23  O   UNL     1       0.040  10.120  23.414  0.00  0.00    +0.000 OA
ATOM     24  N   UNL     1      -0.286  11.030  21.340  0.00  0.00    +0.000 N 
ATOM     25  C   UNL     1      -0.445  10.971  19.895  0.00  0.00    +0.000 C 
ATOM     26  C   UNL     1      -0.350  12.382  21.903  0.00  0.00    +0.000 C 
ENDBRANCH  21  22
ENDBRANCH  20  21
ENDBRANCH   8  20
TORSDOF 5
ENDMDL
MODEL 4
REMARK VINA RESULT:      -7.7      5.240      7.534
REMARK  Name = 
REMARK  8 active torsions:
REMARK  status: ('A' for Active; 'I' for Inactive)
REMARK    1  A    between atoms: C_1  and  O_2
REMARK    2  A    between atoms: O_2  and  C_3
REMARK    3  A    between atoms: C_6  and  C_7
REMARK    4  A    between atoms: C_14  and  O_15
REMARK    5  A    between atoms: O_15  and  C_16
REMARK    6  A    between atoms: C_16  and  C_17
REMARK    7  A    between atoms: N_19  and  C_20
REMARK    8  A    between atoms: N_19  and  C_21
REMARK                            x       y       z     vdW  Elec       q    Type
REMARK                         _______ _______ _______ _____ _____    ______ ____
ROOT
ATOM      1  C   UNL     1       1.792   7.446  19.518  0.00  0.00    +0.000 A 
ATOM      2  C   UNL     1       1.647   6.336  20.216  0.00  0.00    +0.000 A 
ATOM      3  C   UNL     1       1.998   5.017  19.757  0.00  0.00    +0.000 A 
ATOM      4  O   UNL     1       1.267   4.221  19.254  0.00  0.00    +0.000 OA
ATOM      5  O   UNL     1       3.282   4.832  20.111  0.00  0.00    +0.000 OA
ATOM      6  C   UNL     1       3.937   5.773  19.256  0.00  0.00    +0.000 A 
ATOM      7  C   UNL     1       5.034   5.044  18.671  0.00  0.00    +0.000 A 
ATOM      8  C   UNL     1       5.535   5.331  17.429  0.00  0.00    +0.000 A 
ATOM      9  C   UNL     1       4.867   6.393  16.788  0.00  0.00    +0.000 A 
ATOM     10  C   UNL     1       3.762   7.216  17.457  0.00  0.00    +0.000 A 
ATOM     11  C   UNL     1       3.264   6.979  18.779  0.00  0.00    +0.000 A 
ENDROOT
BRANCH   1  15
ATOM     12  C   UNL     1      -0.127  10.566  22.536  0.00  0.00    +0.000 A 
ATOM     13  C   UNL     1      -0.581  10.378  21.254  0.00  0.00    +0.000 A 
ATOM     14  C   UNL     1      -0.107   9.313  20.451  0.00  0.00    +0.000 A 
ATOM     15  C   UNL     1       0.910   8.299  20.776  0.00  0.00    +0.000 A 
ATOM     16  C   UNL     1       1.340   8.533  22.112  0.00  0.00    +0.000 A 
ATOM     17  C   UNL     1       0.811   9.623  22.977  0.00  0.00    +0.000 A 
BRANCH  12  19
ATOM     18  C   UNL     1      -1.788  12.366  22.635  0.00  0.00    +0.000 C 
ATOM     19  O   UNL     1      -0.625  11.702  23.098  0.00  0.00    +0.000 OA
ENDBRANCH  12  19
ENDBRANCH   1  15
BRANCH   8  20
ATOM     20  O   UNL     1       6.228   4.276  16.891  0.00  0.00    +0.000 OA
BRANCH  20  21
ATOM     21  C   UNL     1       6.289   3.835  15.544  0.00  0.00    +0.000 C 
BRANCH  21  22
ATOM     22  C   UNL     1       7.003   4.554  14.346  0.00  0.00    +0.000 C 
ATOM     23  O   UNL     1       7.797   5.468  14.608  0.00  0.00    +0.000 OA
ATOM     24  N   UNL     1       6.691   4.250  13.017  0.00  0.00    +0.000 N 
ATOM     25  C   UNL     1       5.726   3.261  12.563  0.00  0.00    +0.000 C 
ATOM     26  C   UNL     1       7.443   4.904  11.943  0.00  0.00    +0.000 C 
ENDBRANCH  21  22
ENDBRANCH  20  21
ENDBRANCH   8  20
TORSDOF 5
ENDMDL
MODEL 5
REMARK VINA RESULT:      -7.7      8.372     10.260
REMARK  Name = 
REMARK  8 active torsions:
REMARK  status: ('A' for Active; 'I' for Inactive)
REMARK    1  A    between atoms: C_1  and  O_2
REMARK    2  A    between atoms: O_2  and  C_3
REMARK    3  A    between atoms: C_6  and  C_7
REMARK    4  A    between atoms: C_14  and  O_15
REMARK    5  A    between atoms: O_15  and  C_16
REMARK    6  A    between atoms: C_16  and  C_17
REMARK    7  A    between atoms: N_19  and  C_20
REMARK    8  A    between atoms: N_19  and  C_21
REMARK                            x       y       z     vdW  Elec       q    Type
REMARK                         _______ _______ _______ _____ _____    ______ ____
ROOT
ATOM      1  C   UNL     1       0.841   9.449  18.236  0.00  0.00    +0.000 A 
ATOM      2  C   UNL     1       1.488  10.351  18.951  0.00  0.00    +0.000 A 
ATOM      3  C   UNL     1       1.097  11.729  19.095  0.00  0.00    +0.000 A 
ATOM      4  O   UNL     1       1.499  12.652  18.458  0.00  0.00    +0.000 OA
ATOM      5  O   UNL     1       0.275  11.771  20.157  0.00  0.00    +0.000 OA
ATOM      6  C   UNL     1      -0.855  11.054  19.654  0.00  0.00    +0.000 A 
ATOM      7  C   UNL     1      -1.995  11.867  19.999  0.00  0.00    +0.000 A 
ATOM      8  C   UNL     1      -3.143  11.886  19.251  0.00  0.00    +0.000 A 
ATOM      9  C   UNL     1      -3.089  11.046  18.121  0.00  0.00    +0.000 A 
ATOM     10  C   UNL     1      -1.907  10.121  17.818  0.00  0.00    +0.000 A 
ATOM     11  C   UNL     1      -0.722  10.034  18.617  0.00  0.00    +0.000 A 
ENDROOT
BRANCH   1  15
ATOM     12  C   UNL     1       3.995   5.902  18.265  0.00  0.00    +0.000 A 
ATOM     13  C   UNL     1       4.000   6.910  17.333  0.00  0.00    +0.000 A 
ATOM     14  C   UNL     1       3.164   8.045  17.467  0.00  0.00    +0.000 A 
ATOM     15  C   UNL     1       2.174   8.338  18.516  0.00  0.00    +0.000 A 
ATOM     16  C   UNL     1       2.213   7.271  19.456  0.00  0.00    +0.000 A 
ATOM     17  C   UNL     1       3.123   6.098  19.345  0.00  0.00    +0.000 A 
BRANCH  12  19
ATOM     18  C   UNL     1       4.327   3.741  17.156  0.00  0.00    +0.000 C 
ATOM     19  O   UNL     1       4.787   4.857  17.900  0.00  0.00    +0.000 OA
ENDBRANCH  12  19
ENDBRANCH   1  15
BRANCH   8  20
ATOM     20  O   UNL     1      -3.888  13.017  19.472  0.00  0.00    +0.000 OA
BRANCH  20  21
ATOM     21  C   UNL     1      -5.254  13.134  19.840  0.00  0.00    +0.000 C 
BRANCH  21  22
ATOM     22  C   UNL     1      -6.123  12.071  20.599  0.00  0.00    +0.000 C 
ATOM     23  O   UNL     1      -6.128  12.103  21.837  0.00  0.00    +0.000 OA
ATOM     24  N   UNL     1      -6.797  11.054  19.917  0.00  0.00    +0.000 N 
ATOM     25  C   UNL     1      -6.815  10.846  18.478  0.00  0.00    +0.000 C 
ATOM     26  C   UNL     1      -7.650  10.134  20.674  0.00  0.00    +0.000 C 
ENDBRANCH  21  22
ENDBRANCH  20  21
ENDBRANCH   8  20
TORSDOF 5
ENDMDL
MODEL 6
REMARK VINA RESULT:      -7.5      7.905     10.426
REMARK  Name = 
REMARK  8 active torsions:
REMARK  status: ('A' for Active; 'I' for Inactive)
REMARK    1  A    between atoms: C_1  and  O_2
REMARK    2  A    between atoms: O_2  and  C_3
REMARK    3  A    between atoms: C_6  and  C_7
REMARK    4  A    between atoms: C_14  and  O_15
REMARK    5  A    between atoms: O_15  and  C_16
REMARK    6  A    between atoms: C_16  and  C_17
REMARK    7  A    between atoms: N_19  and  C_20
REMARK    8  A    between atoms: N_19  and  C_21
REMARK                            x       y       z     vdW  Elec       q    Type
REMARK                         _______ _______ _______ _____ _____    ______ ____
ROOT
ATOM      1  C   UNL     1       1.804   8.404  19.803  0.00  0.00    +0.000 A 
ATOM      2  C   UNL     1       1.402   8.132  21.030  0.00  0.00    +0.000 A 
ATOM      3  C   UNL     1       0.992   9.111  22.003  0.00  0.00    +0.000 A 
ATOM      4  O   UNL     1       1.672   9.596  22.854  0.00  0.00    +0.000 OA
ATOM      5  O   UNL     1      -0.329   9.280  21.824  0.00  0.00    +0.000 OA
ATOM      6  C   UNL     1      -0.350   9.913  20.542  0.00  0.00    +0.000 A 
ATOM      7  C   UNL     1      -1.239  11.038  20.697  0.00  0.00    +0.000 A 
ATOM      8  C   UNL     1      -1.107  12.191  19.970  0.00  0.00    +0.000 A 
ATOM      9  C   UNL     1      -0.019  12.167  19.074  0.00  0.00    +0.000 A 
ATOM     10  C   UNL     1       0.862  10.933  18.857  0.00  0.00    +0.000 A 
ATOM     11  C   UNL     1       0.706   9.693  19.557  0.00  0.00    +0.000 A 
ENDROOT
BRANCH   1  15
ATOM     12  C   UNL     1       2.210   3.805  18.702  0.00  0.00    +0.000 A 
ATOM     13  C   UNL     1       2.643   4.819  17.883  0.00  0.00    +0.000 A 
ATOM     14  C   UNL     1       2.675   6.164  18.325  0.00  0.00    +0.000 A 
ATOM     15  C   UNL     1       2.252   6.714  19.624  0.00  0.00    +0.000 A 
ATOM     16  C   UNL     1       1.822   5.626  20.434  0.00  0.00    +0.000 A 
ATOM     17  C   UNL     1       1.830   4.205  19.990  0.00  0.00    +0.000 A 
BRANCH  12  19
ATOM     18  C   UNL     1       3.190   1.640  18.101  0.00  0.00    +0.000 C 
ATOM     19  O   UNL     1       2.156   2.608  18.056  0.00  0.00    +0.000 OA
ENDBRANCH  12  19
ENDBRANCH   1  15
BRANCH   8  20
ATOM     20  O   UNL     1      -1.729  13.257  20.569  0.00  0.00    +0.000 OA
BRANCH  20  21
ATOM     21  C   UNL     1      -3.104  13.444  20.865  0.00  0.00    +0.000 C 
BRANCH  21  22
ATOM     22  C   UNL     1      -3.887  12.890  22.107  0.00  0.00    +0.000 C 
ATOM     23  O   UNL     1      -4.930  12.255  21.899  0.00  0.00    +0.000 OA
ATOM     24  N   UNL     1      -3.485  13.178  23.415  0.00  0.00    +0.000 N 
ATOM     25  C   UNL     1      -2.332  13.973  23.807  0.00  0.00    +0.000 C 
ATOM     26  C   UNL     1      -4.215  12.573  24.533  0.00  0.00    +0.000 C 
ENDBRANCH  21  22
ENDBRANCH  20  21
ENDBRANCH   8  20
TORSDOF 5
ENDMDL
MODEL 7
REMARK VINA RESULT:      -7.4      6.925     10.520
REMARK  Name = 
REMARK  8 active torsions:
REMARK  status: ('A' for Active; 'I' for Inactive)
REMARK    1  A    between atoms: C_1  and  O_2
REMARK    2  A    between atoms: O_2  and  C_3
REMARK    3  A    between atoms: C_6  and  C_7
REMARK    4  A    between atoms: C_14  and  O_15
REMARK    5  A    between atoms: O_15  and  C_16
REMARK    6  A    between atoms: C_16  and  C_17
REMARK    7  A    between atoms: N_19  and  C_20
REMARK    8  A    between atoms: N_19  and  C_21
REMARK                            x       y       z     vdW  Elec       q    Type
REMARK                         _______ _______ _______ _____ _____    ______ ____
ROOT
ATOM      1  C   UNL     1       1.921   7.781  20.039  0.00  0.00    +0.000 A 
ATOM      2  C   UNL     1       1.349   7.825  21.228  0.00  0.00    +0.000 A 
ATOM      3  C   UNL     1       1.009   9.030  21.939  0.00  0.00    +0.000 A 
ATOM      4  O   UNL     1       1.667   9.574  22.771  0.00  0.00    +0.000 OA
ATOM      5  O   UNL     1      -0.237   9.350  21.551  0.00  0.00    +0.000 OA
ATOM      6  C   UNL     1      -0.013   9.706  20.184  0.00  0.00    +0.000 A 
ATOM      7  C   UNL     1      -0.710  10.956  20.006  0.00  0.00    +0.000 A 
ATOM      8  C   UNL     1      -0.307  11.906  19.106  0.00  0.00    +0.000 A 
ATOM      9  C   UNL     1       0.851  11.542  18.389  0.00  0.00    +0.000 A 
ATOM     10  C   UNL     1       1.528  10.175  18.524  0.00  0.00    +0.000 A 
ATOM     11  C   UNL     1       1.089   9.139  19.411  0.00  0.00    +0.000 A 
ENDROOT
BRANCH   1  15
ATOM     12  C   UNL     1       2.264   3.071  19.566  0.00  0.00    +0.000 A 
ATOM     13  C   UNL     1       3.300   3.934  19.306  0.00  0.00    +0.000 A 
ATOM     14  C   UNL     1       3.218   5.308  19.637  0.00  0.00    +0.000 A 
ATOM     15  C   UNL     1       2.092   6.043  20.236  0.00  0.00    +0.000 A 
ATOM     16  C   UNL     1       1.052   5.106  20.491  0.00  0.00    +0.000 A 
ATOM     17  C   UNL     1       1.151   3.652  20.188  0.00  0.00    +0.000 A 
BRANCH  12  19
ATOM     18  C   UNL     1       3.651   1.471  18.331  0.00  0.00    +0.000 C 
ATOM     19  O   UNL     1       2.498   1.822  19.077  0.00  0.00    +0.000 OA
ENDBRANCH  12  19
ENDBRANCH   1  15
BRANCH   8  20
ATOM     20  O   UNL     1      -0.799  13.150  19.408  0.00  0.00    +0.000 OA
BRANCH  20  21
ATOM     21  C   UNL     1      -0.135  14.263  19.986  0.00  0.00    +0.000 C 
BRANCH  21  22
ATOM     22  C   UNL     1       1.022  15.109  19.347  0.00  0.00    +0.000 C 
ATOM     23  O   UNL     1       2.185  14.712  19.501  0.00  0.00    +0.000 OA
ATOM     24  N   UNL     1       0.771  16.326  18.705  0.00  0.00    +0.000 N 
ATOM     25  C   UNL     1      -0.529  16.951  18.520  0.00  0.00    +0.000 C 
ATOM     26  C   UNL     1       1.883  17.035  18.065  0.00  0.00    +0.000 C 
ENDBRANCH  21  22
ENDBRANCH  20  21
ENDBRANCH   8  20
TORSDOF 5
ENDMDL
MODEL 8
REMARK VINA RESULT:      -7.4      5.486      7.435
REMARK  Name = 
REMARK  8 active torsions:
REMARK  status: ('A' for Active; 'I' for Inactive)
REMARK    1  A    between atoms: C_1  and  O_2
REMARK    2  A    between atoms: O_2  and  C_3
REMARK    3  A    between atoms: C_6  and  C_7
REMARK    4  A    between atoms: C_14  and  O_15
REMARK    5  A    between atoms: O_15  and  C_16
REMARK    6  A    between atoms: C_16  and  C_17
REMARK    7  A    between atoms: N_19  and  C_20
REMARK    8  A    between atoms: N_19  and  C_21
REMARK                            x       y       z     vdW  Elec       q    Type
REMARK                         _______ _______ _______ _____ _____    ______ ____
ROOT
ATOM      1  C   UNL     1       1.761   7.870  20.475  0.00  0.00    +0.000 A 
ATOM      2  C   UNL     1       1.527   8.427  19.302  0.00  0.00    +0.000 A 
ATOM      3  C   UNL     1       2.311   8.215  18.112  0.00  0.00    +0.000 A 
ATOM      4  O   UNL     1       3.203   8.900  17.717  0.00  0.00    +0.000 OA
ATOM      5  O   UNL     1       1.762   7.157  17.492  0.00  0.00    +0.000 OA
ATOM      6  C   UNL     1       2.081   6.108  18.411  0.00  0.00    +0.000 A 
ATOM      7  C   UNL     1       2.615   5.047  17.593  0.00  0.00    +0.000 A 
ATOM      8  C   UNL     1       3.544   4.152  18.055  0.00  0.00    +0.000 A 
ATOM      9  C   UNL     1       3.924   4.381  19.393  0.00  0.00    +0.000 A 
ATOM     10  C   UNL     1       3.283   5.455  20.276  0.00  0.00    +0.000 A 
ATOM     11  C   UNL     1       2.265   6.363  19.837  0.00  0.00    +0.000 A 
ENDROOT
BRANCH   1  15
ATOM     12  C   UNL     1      -0.797  11.170  22.730  0.00  0.00    +0.000 A 
ATOM     13  C   UNL     1      -0.179  11.387  21.523  0.00  0.00    +0.000 A 
ATOM     14  C   UNL     1       0.415  10.328  20.795  0.00  0.00    +0.000 A 
ATOM     15  C   UNL     1       0.522   8.906  21.165  0.00  0.00    +0.000 A 
ATOM     16  C   UNL     1      -0.138   8.735  22.413  0.00  0.00    +0.000 A 
ATOM     17  C   UNL     1      -0.805   9.837  23.160  0.00  0.00    +0.000 A 
BRANCH  12  19
ATOM     18  C   UNL     1      -0.816  13.617  22.873  0.00  0.00    +0.000 C 
ATOM     19  O   UNL     1      -1.208  12.329  23.315  0.00  0.00    +0.000 OA
ENDBRANCH  12  19
ENDBRANCH   1  15
BRANCH   8  20
ATOM     20  O   UNL     1       4.234   3.547  17.036  0.00  0.00    +0.000 OA
BRANCH  20  21
ATOM     21  C   UNL     1       5.134   4.117  16.098  0.00  0.00    +0.000 C 
BRANCH  21  22
ATOM     22  C   UNL     1       5.842   5.513  16.198  0.00  0.00    +0.000 C 
ATOM     23  O   UNL     1       5.478   6.405  15.419  0.00  0.00    +0.000 OA
ATOM     24  N   UNL     1       6.918   5.729  17.064  0.00  0.00    +0.000 N 
ATOM     25  C   UNL     1       7.502   4.755  17.973  0.00  0.00    +0.000 C 
ATOM     26  C   UNL     1       7.492   7.074  17.164  0.00  0.00    +0.000 C 
ENDBRANCH  21  22
ENDBRANCH  20  21
ENDBRANCH   8  20
TORSDOF 5
ENDMDL
MODEL 9
REMARK VINA RESULT:      -7.4      7.696     10.467
REMARK  Name = 
REMARK  8 active torsions:
REMARK  status: ('A' for Active; 'I' for Inactive)
REMARK    1  A    between atoms: C_1  and  O_2
REMARK    2  A    between atoms: O_2  and  C_3
REMARK    3  A    between atoms: C_6  and  C_7
REMARK    4  A    between atoms: C_14  and  O_15
REMARK    5  A    between atoms: O_15  and  C_16
REMARK    6  A    between atoms: C_16  and  C_17
REMARK    7  A    between atoms: N_19  and  C_20
REMARK    8  A    between atoms: N_19  and  C_21
REMARK                            x       y       z     vdW  Elec       q    Type
REMARK                         _______ _______ _______ _____ _____    ______ ____
ROOT
ATOM      1  C   UNL     1       1.877   8.058  19.986  0.00  0.00    +0.000 A 
ATOM      2  C   UNL     1       1.453   7.948  21.231  0.00  0.00    +0.000 A 
ATOM      3  C   UNL     1       1.142   9.053  22.101  0.00  0.00    +0.000 A 
ATOM      4  O   UNL     1       1.868   9.551  22.905  0.00  0.00    +0.000 OA
ATOM      5  O   UNL     1      -0.157   9.330  21.896  0.00  0.00    +0.000 OA
ATOM      6  C   UNL     1      -0.119   9.834  20.558  0.00  0.00    +0.000 A 
ATOM      7  C   UNL     1      -0.895  11.049  20.597  0.00  0.00    +0.000 A 
ATOM      8  C   UNL     1      -0.654  12.107  19.761  0.00  0.00    +0.000 A 
ATOM      9  C   UNL     1       0.425  11.890  18.880  0.00  0.00    +0.000 A 
ATOM     10  C   UNL     1       1.182  10.562  18.790  0.00  0.00    +0.000 A 
ATOM     11  C   UNL     1       0.908   9.417  19.607  0.00  0.00    +0.000 A 
ENDROOT
BRANCH   1  15
ATOM     12  C   UNL     1       2.221   3.421  19.037  0.00  0.00    +0.000 A 
ATOM     13  C   UNL     1       3.101   4.358  18.554  0.00  0.00    +0.000 A 
ATOM     14  C   UNL     1       3.076   5.699  19.008  0.00  0.00    +0.000 A 
ATOM     15  C   UNL     1       2.159   6.324  19.976  0.00  0.00    +0.000 A 
ATOM     16  C   UNL     1       1.277   5.313  20.450  0.00  0.00    +0.000 A 
ATOM     17  C   UNL     1       1.329   3.891  20.010  0.00  0.00    +0.000 A 
BRANCH  12  19
ATOM     18  C   UNL     1       3.534   1.462  18.368  0.00  0.00    +0.000 C 
ATOM     19  O   UNL     1       2.340   2.225  18.398  0.00  0.00    +0.000 OA
ENDBRANCH  12  19
ENDBRANCH   1  15
BRANCH   8  20
ATOM     20  O   UNL     1      -1.168  13.282  20.249  0.00  0.00    +0.000 OA
BRANCH  20  21
ATOM     21  C   UNL     1      -1.803  13.536  21.492  0.00  0.00    +0.000 C 
BRANCH  21  22
ATOM     22  C   UNL     1      -1.170  14.220  22.754  0.00  0.00    +0.000 C 
ATOM     23  O   UNL     1       0.059  14.372  22.776  0.00  0.00    +0.000 OA
ATOM     24  N   UNL     1      -1.943  14.563  23.868  0.00  0.00    +0.000 N 
ATOM     25  C   UNL     1      -3.378  14.370  24.013  0.00  0.00    +0.000 C 
ATOM     26  C   UNL     1      -1.308  15.264  24.987  0.00  0.00    +0.000 C 
ENDBRANCH  21  22
ENDBRANCH  20  21
ENDBRANCH   8  20
TORSDOF 5
ENDMDL
