MODEL 1
REMARK VINA RESULT:      -7.6      0.000      0.000
REMARK  Name = 
REMARK  6 active torsions:
REMARK  status: ('A' for Active; 'I' for Inactive)
REMARK    1  A    between atoms: C_1  and  C_2
REMARK    2  A    between atoms: C_2  and  N_3
REMARK    3  A    between atoms: C_5  and  C_6
REMARK    4  A    between atoms: N_8  and  C_9
REMARK    5  A    between atoms: C_9  and  C_10
REMARK    6  A    between atoms: C_12  and  C_13
REMARK                            x       y       z     vdW  Elec       q    Type
REMARK                         _______ _______ _______ _____ _____    ______ ____
ROOT
ATOM      1  C   UNL     1       7.478   7.104  17.638  0.00  0.00    +0.000 C 
ATOM      2  O   UNL     1       6.694   7.362  16.729  0.00  0.00    +0.000 OA
ATOM      3  N   UNL     1       8.206   8.097  18.248  0.00  0.00    +0.000 N 
ATOM      4  H   UNL     1       8.825   7.911  19.026  0.00  0.00    +0.000 HD
ENDROOT
BRANCH   1   7
ATOM      5  N   UNL     1       5.566   4.838  18.748  0.00  0.00    +0.000 N 
ATOM      6  C   UNL     1       6.715   5.454  19.369  0.00  0.00    +0.000 C 
ATOM      7  C   UNL     1       7.667   5.705  18.206  0.00  0.00    +0.000 C 
ATOM      8  C   UNL     1       7.302   4.614  17.198  0.00  0.00    +0.000 C 
ATOM      9  C   UNL     1       5.839   4.369  17.476  0.00  0.00    +0.000 C 
ATOM     10  O   UNL     1       5.061   3.825  16.712  0.00  0.00    +0.000 OA
BRANCH   5  12
ATOM     11  C   UNL     1       3.466   6.118  18.846  0.00  0.00    +0.000 C 
ATOM     12  C   UNL     1       4.238   4.899  19.328  0.00  0.00    +0.000 C 
ENDBRANCH   5  12
ENDBRANCH   1   7
BRANCH   3  13
ATOM     13  C   UNL     1       8.065   9.472  17.796  0.00  0.00    +0.000 C 
BRANCH  13  14
ATOM     14  C   UNL     1       9.133  10.310  18.383  0.00  0.00    +0.000 A 
ATOM     15  N   UNL     1      10.100  10.956  17.780  0.00  0.00    +0.000 NA
ATOM     16  C   UNL     1      10.778  11.520  18.829  0.00  0.00    +0.000 A 
ATOM     17  N   UNL     1      10.264  11.246  20.038  0.00  0.00    +0.000 NA
ATOM     18  O   UNL     1       9.161  10.436  19.742  0.00  0.00    +0.000 OA
BRANCH  16  19
ATOM     19  C   UNL     1      11.998  12.363  18.630  0.00  0.00    +0.000 C 
ATOM     20  C   UNL     1      12.001  13.058  17.258  0.00  0.00    +0.000 C 
ATOM     21  C   UNL     1      10.975  14.187  17.149  0.00  0.00    +0.000 C 
ATOM     22  C   UNL     1      11.086  15.188  18.296  0.00  0.00    +0.000 C 
ATOM     23  C   UNL     1      11.146  14.538  19.676  0.00  0.00    +0.000 C 
ATOM     24  C   UNL     1      12.169  13.405  19.747  0.00  0.00    +0.000 C 
ENDBRANCH  16  19
ENDBRANCH  13  14
ENDBRANCH   3  13
TORSDOF 5
ENDMDL
MODEL 2
REMARK VINA RESULT:      -7.4      6.999     10.224
REMARK  Name = 
REMARK  6 active torsions:
REMARK  status: ('A' for Active; 'I' for Inactive)
REMARK    1  A    between atoms: C_1  and  C_2
REMARK    2  A    between atoms: C_2  and  N_3
REMARK    3  A    between atoms: C_5  and  C_6
REMARK    4  A    between atoms: N_8  and  C_9
REMARK    5  A    between atoms: C_9  and  C_10
REMARK    6  A    between atoms: C_12  and  C_13
REMARK                            x       y       z     vdW  Elec       q    Type
REMARK                         _______ _______ _______ _____ _____    ______ ____
ROOT
ATOM      1  C   UNL     1       1.731   9.656  18.071  0.00  0.00    +0.000 C 
ATOM      2  O   UNL     1       2.524  10.369  17.461  0.00  0.00    +0.000 OA
ATOM      3  N   UNL     1       2.027   8.343  18.347  0.00  0.00    +0.000 N 
ATOM      4  H   UNL     1       1.406   7.753  18.885  0.00  0.00    +0.000 HD
ENDROOT
BRANCH   1   7
ATOM      5  N   UNL     1       0.548  10.212  20.955  0.00  0.00    +0.000 N 
ATOM      6  C   UNL     1       0.014   9.405  19.884  0.00  0.00    +0.000 C 
ATOM      7  C   UNL     1       0.408  10.164  18.623  0.00  0.00    +0.000 C 
ATOM      8  C   UNL     1       0.490  11.619  19.087  0.00  0.00    +0.000 C 
ATOM      9  C   UNL     1       0.877  11.491  20.541  0.00  0.00    +0.000 C 
ATOM     10  O   UNL     1       1.363  12.379  21.218  0.00  0.00    +0.000 OA
BRANCH   5  12
ATOM     11  C   UNL     1      -0.303   9.698  23.205  0.00  0.00    +0.000 C 
ATOM     12  C   UNL     1       0.884   9.664  22.255  0.00  0.00    +0.000 C 
ENDBRANCH   5  12
ENDBRANCH   1   7
BRANCH   3  13
ATOM     13  C   UNL     1       3.287   7.779  17.890  0.00  0.00    +0.000 C 
BRANCH  13  14
ATOM     14  C   UNL     1       3.180   6.307  17.803  0.00  0.00    +0.000 A 
ATOM     15  N   UNL     1       2.309   5.508  18.369  0.00  0.00    +0.000 NA
ATOM     16  C   UNL     1       2.724   4.272  17.949  0.00  0.00    +0.000 A 
ATOM     17  N   UNL     1       3.804   4.286  17.154  0.00  0.00    +0.000 NA
ATOM     18  O   UNL     1       4.111   5.649  17.054  0.00  0.00    +0.000 OA
BRANCH  16  19
ATOM     19  C   UNL     1       2.026   3.014  18.360  0.00  0.00    +0.000 C 
ATOM     20  C   UNL     1       2.982   2.018  19.038  0.00  0.00    +0.000 C 
ATOM     21  C   UNL     1       3.419   2.455  20.437  0.00  0.00    +0.000 C 
ATOM     22  C   UNL     1       2.235   2.809  21.333  0.00  0.00    +0.000 C 
ATOM     23  C   UNL     1       1.228   3.751  20.678  0.00  0.00    +0.000 C 
ATOM     24  C   UNL     1       0.823   3.295  19.276  0.00  0.00    +0.000 C 
ENDBRANCH  16  19
ENDBRANCH  13  14
ENDBRANCH   3  13
TORSDOF 5
ENDMDL
MODEL 3
REMARK VINA RESULT:      -7.3      1.939      8.750
REMARK  Name = 
REMARK  6 active torsions:
REMARK  status: ('A' for Active; 'I' for Inactive)
REMARK    1  A    between atoms: C_1  and  C_2
REMARK    2  A    between atoms: C_2  and  N_3
REMARK    3  A    between atoms: C_5  and  C_6
REMARK    4  A    between atoms: N_8  and  C_9
REMARK    5  A    between atoms: C_9  and  C_10
REMARK    6  A    between atoms: C_12  and  C_13
REMARK                            x       y       z     vdW  Elec       q    Type
REMARK                         _______ _______ _______ _____ _____    ______ ____
ROOT
ATOM      1  C   UNL     1      10.251  11.296  18.685  0.00  0.00    +0.000 C 
ATOM      2  O   UNL     1      10.502  11.775  17.582  0.00  0.00    +0.000 OA
ATOM      3  N   UNL     1       9.234  10.388  18.847  0.00  0.00    +0.000 N 
ATOM      4  H   UNL     1       9.039   9.950  19.739  0.00  0.00    +0.000 HD
ENDROOT
BRANCH   1   7
ATOM      5  N   UNL     1      11.371  13.918  20.061  0.00  0.00    +0.000 N 
ATOM      6  C   UNL     1      12.070  12.718  19.668  0.00  0.00    +0.000 C 
ATOM      7  C   UNL     1      11.064  11.606  19.934  0.00  0.00    +0.000 C 
ATOM      8  C   UNL     1      10.200  12.162  21.067  0.00  0.00    +0.000 C 
ATOM      9  C   UNL     1      10.259  13.653  20.840  0.00  0.00    +0.000 C 
ATOM     10  O   UNL     1       9.472  14.464  21.296  0.00  0.00    +0.000 OA
BRANCH   5  12
ATOM     11  C   UNL     1      11.127  15.414  18.123  0.00  0.00    +0.000 C 
ATOM     12  C   UNL     1      11.696  15.224  19.521  0.00  0.00    +0.000 C 
ENDBRANCH   5  12
ENDBRANCH   1   7
BRANCH   3  13
ATOM     13  C   UNL     1       8.423  10.003  17.702  0.00  0.00    +0.000 C 
BRANCH  13  14
ATOM     14  C   UNL     1       8.031   8.582  17.814  0.00  0.00    +0.000 A 
ATOM     15  N   UNL     1       7.179   7.902  17.088  0.00  0.00    +0.000 NA
ATOM     16  C   UNL     1       7.213   6.663  17.673  0.00  0.00    +0.000 A 
ATOM     17  N   UNL     1       8.048   6.563  18.718  0.00  0.00    +0.000 NA
ATOM     18  O   UNL     1       8.598   7.848  18.815  0.00  0.00    +0.000 OA
BRANCH  16  19
ATOM     19  C   UNL     1       6.375   5.526  17.181  0.00  0.00    +0.000 C 
ATOM     20  C   UNL     1       5.937   4.596  18.325  0.00  0.00    +0.000 C 
ATOM     21  C   UNL     1       4.884   5.220  19.243  0.00  0.00    +0.000 C 
ATOM     22  C   UNL     1       3.691   5.775  18.470  0.00  0.00    +0.000 C 
ATOM     23  C   UNL     1       4.081   6.658  17.287  0.00  0.00    +0.000 C 
ATOM     24  C   UNL     1       5.144   6.012  16.398  0.00  0.00    +0.000 C 
ENDBRANCH  16  19
ENDBRANCH  13  14
ENDBRANCH   3  13
TORSDOF 5
ENDMDL
MODEL 4
REMARK VINA RESULT:      -7.2      4.524      8.033
REMARK  Name = 
REMARK  6 active torsions:
REMARK  status: ('A' for Active; 'I' for Inactive)
REMARK    1  A    between atoms: C_1  and  C_2
REMARK    2  A    between atoms: C_2  and  N_3
REMARK    3  A    between atoms: C_5  and  C_6
REMARK    4  A    between atoms: N_8  and  C_9
REMARK    5  A    between atoms: C_9  and  C_10
REMARK    6  A    between atoms: C_12  and  C_13
REMARK                            x       y       z     vdW  Elec       q    Type
REMARK                         _______ _______ _______ _____ _____    ______ ____
ROOT
ATOM      1  C   UNL     1       4.165   4.697  17.120  0.00  0.00    +0.000 C 
ATOM      2  O   UNL     1       3.559   3.629  17.076  0.00  0.00    +0.000 OA
ATOM      3  N   UNL     1       3.948   5.592  18.139  0.00  0.00    +0.000 N 
ATOM      4  H   UNL     1       4.468   6.458  18.215  0.00  0.00    +0.000 HD
ENDROOT
BRANCH   1   7
ATOM      5  N   UNL     1       7.045   6.003  17.270  0.00  0.00    +0.000 N 
ATOM      6  C   UNL     1       5.893   6.409  16.501  0.00  0.00    +0.000 C 
ATOM      7  C   UNL     1       5.232   5.092  16.111  0.00  0.00    +0.000 C 
ATOM      8  C   UNL     1       6.396   4.100  16.076  0.00  0.00    +0.000 C 
ATOM      9  C   UNL     1       7.358   4.667  17.092  0.00  0.00    +0.000 C 
ATOM     10  O   UNL     1       8.261   4.047  17.625  0.00  0.00    +0.000 OA
BRANCH   5  12
ATOM     11  C   UNL     1       7.944   8.250  17.715  0.00  0.00    +0.000 C 
ATOM     12  C   UNL     1       7.662   6.860  18.264  0.00  0.00    +0.000 C 
ENDBRANCH   5  12
ENDBRANCH   1   7
BRANCH   3  13
ATOM     13  C   UNL     1       2.970   5.284  19.170  0.00  0.00    +0.000 C 
BRANCH  13  14
ATOM     14  C   UNL     1       2.338   6.530  19.656  0.00  0.00    +0.000 A 
ATOM     15  N   UNL     1       2.378   7.732  19.136  0.00  0.00    +0.000 NA
ATOM     16  C   UNL     1       1.641   8.465  20.029  0.00  0.00    +0.000 A 
ATOM     17  N   UNL     1       1.156   7.762  21.063  0.00  0.00    +0.000 NA
ATOM     18  O   UNL     1       1.621   6.464  20.815  0.00  0.00    +0.000 OA
BRANCH  16  19
ATOM     19  C   UNL     1       1.412   9.934  19.857  0.00  0.00    +0.000 C 
ATOM     20  C   UNL     1       1.192  10.316  18.384  0.00  0.00    +0.000 C 
ATOM     21  C   UNL     1      -0.157   9.851  17.833  0.00  0.00    +0.000 C 
ATOM     22  C   UNL     1      -1.326  10.282  18.714  0.00  0.00    +0.000 C 
ATOM     23  C   UNL     1      -1.126   9.975  20.196  0.00  0.00    +0.000 C 
ATOM     24  C   UNL     1       0.237  10.438  20.712  0.00  0.00    +0.000 C 
ENDBRANCH  16  19
ENDBRANCH  13  14
ENDBRANCH   3  13
TORSDOF 5
ENDMDL
MODEL 5
REMARK VINA RESULT:      -7.0      1.713      8.859
REMARK  Name = 
REMARK  6 active torsions:
REMARK  status: ('A' for Active; 'I' for Inactive)
REMARK    1  A    between atoms: C_1  and  C_2
REMARK    2  A    between atoms: C_2  and  N_3
REMARK    3  A    between atoms: C_5  and  C_6
REMARK    4  A    between atoms: N_8  and  C_9
REMARK    5  A    between atoms: C_9  and  C_10
REMARK    6  A    between atoms: C_12  and  C_13
REMARK                            x       y       z     vdW  Elec       q    Type
REMARK                         _______ _______ _______ _____ _____    ______ ____
ROOT
ATOM      1  C   UNL     1       8.963  10.141  18.777  0.00  0.00    +0.000 C 
ATOM      2  O   UNL     1       8.596  10.884  17.870  0.00  0.00    +0.000 OA
ATOM      3  N   UNL     1       8.688   8.796  18.747  0.00  0.00    +0.000 N 
ATOM      4  H   UNL     1       9.019   8.163  19.464  0.00  0.00    +0.000 HD
ENDROOT
BRANCH   1   7
ATOM      5  N   UNL     1      10.717  12.697  19.425  0.00  0.00    +0.000 N 
ATOM      6  C   UNL     1      11.073  11.299  19.491  0.00  0.00    +0.000 C 
ATOM      7  C   UNL     1       9.794  10.619  19.960  0.00  0.00    +0.000 C 
ATOM      8  C   UNL     1       9.082  11.704  20.770  0.00  0.00    +0.000 C 
ATOM      9  C   UNL     1       9.553  12.980  20.116  0.00  0.00    +0.000 C 
ATOM     10  O   UNL     1       9.004  14.064  20.217  0.00  0.00    +0.000 OA
BRANCH   5  12
ATOM     11  C   UNL     1      10.871  13.585  17.135  0.00  0.00    +0.000 C 
ATOM     12  C   UNL     1      11.402  13.637  18.559  0.00  0.00    +0.000 C 
ENDBRANCH   5  12
ENDBRANCH   1   7
BRANCH   3  13
ATOM     13  C   UNL     1       7.930   8.242  17.637  0.00  0.00    +0.000 C 
BRANCH  13  14
ATOM     14  C   UNL     1       7.331   6.949  18.029  0.00  0.00    +0.000 A 
ATOM     15  N   UNL     1       6.345   6.292  17.468  0.00  0.00    +0.000 NA
ATOM     16  C   UNL     1       6.223   5.194  18.278  0.00  0.00    +0.000 A 
ATOM     17  N   UNL     1       7.090   5.155  19.301  0.00  0.00    +0.000 NA
ATOM     18  O   UNL     1       7.834   6.329  19.135  0.00  0.00    +0.000 OA
BRANCH  16  19
ATOM     19  C   UNL     1       5.193   4.135  18.036  0.00  0.00    +0.000 C 
ATOM     20  C   UNL     1       4.556   3.639  19.345  0.00  0.00    +0.000 C 
ATOM     21  C   UNL     1       3.622   4.664  19.990  0.00  0.00    +0.000 C 
ATOM     22  C   UNL     1       2.576   5.196  19.013  0.00  0.00    +0.000 C 
ATOM     23  C   UNL     1       3.158   5.646  17.675  0.00  0.00    +0.000 C 
ATOM     24  C   UNL     1       4.098   4.607  17.064  0.00  0.00    +0.000 C 
ENDBRANCH  16  19
ENDBRANCH  13  14
ENDBRANCH   3  13
TORSDOF 5
ENDMDL
MODEL 6
REMARK VINA RESULT:      -7.0      6.887     10.503
REMARK  Name = 
REMARK  6 active torsions:
REMARK  status: ('A' for Active; 'I' for Inactive)
REMARK    1  A    between atoms: C_1  and  C_2
REMARK    2  A    between atoms: C_2  and  N_3
REMARK    3  A    between atoms: C_5  and  C_6
REMARK    4  A    between atoms: N_8  and  C_9
REMARK    5  A    between atoms: C_9  and  C_10
REMARK    6  A    between atoms: C_12  and  C_13
REMARK                            x       y       z     vdW  Elec       q    Type
REMARK                         _______ _______ _______ _____ _____    ______ ____
ROOT
ATOM      1  C   UNL     1       1.429   9.750  18.661  0.00  0.00    +0.000 C 
ATOM      2  O   UNL     1       2.087  10.597  18.062  0.00  0.00    +0.000 OA
ATOM      3  N   UNL     1       1.774   8.422  18.613  0.00  0.00    +0.000 N 
ATOM      4  H   UNL     1       1.269   7.715  19.134  0.00  0.00    +0.000 HD
ENDROOT
BRANCH   1   7
ATOM      5  N   UNL     1      -0.388  12.302  19.121  0.00  0.00    +0.000 N 
ATOM      6  C   UNL     1       0.344  11.512  20.082  0.00  0.00    +0.000 C 
ATOM      7  C   UNL     1       0.237  10.091  19.544  0.00  0.00    +0.000 C 
ATOM      8  C   UNL     1      -1.080  10.097  18.766  0.00  0.00    +0.000 C 
ATOM      9  C   UNL     1      -1.199  11.530  18.308  0.00  0.00    +0.000 C 
ATOM     10  O   UNL     1      -1.912  11.920  17.400  0.00  0.00    +0.000 OA
BRANCH   5  12
ATOM     11  C   UNL     1       1.328  13.982  18.583  0.00  0.00    +0.000 C 
ATOM     12  C   UNL     1      -0.132  13.715  18.913  0.00  0.00    +0.000 C 
ENDBRANCH   5  12
ENDBRANCH   1   7
BRANCH   3  13
ATOM     13  C   UNL     1       2.921   8.005  17.822  0.00  0.00    +0.000 C 
BRANCH  13  14
ATOM     14  C   UNL     1       3.156   6.555  17.997  0.00  0.00    +0.000 A 
ATOM     15  N   UNL     1       2.283   5.581  18.063  0.00  0.00    +0.000 NA
ATOM     16  C   UNL     1       3.080   4.482  18.254  0.00  0.00    +0.000 A 
ATOM     17  N   UNL     1       4.394   4.748  18.304  0.00  0.00    +0.000 NA
ATOM     18  O   UNL     1       4.448   6.136  18.131  0.00  0.00    +0.000 OA
BRANCH  16  19
ATOM     19  C   UNL     1       2.516   3.104  18.404  0.00  0.00    +0.000 C 
ATOM     20  C   UNL     1       3.314   2.261  19.412  0.00  0.00    +0.000 C 
ATOM     21  C   UNL     1       3.113   2.703  20.863  0.00  0.00    +0.000 C 
ATOM     22  C   UNL     1       1.638   2.803  21.243  0.00  0.00    +0.000 C 
ATOM     23  C   UNL     1       0.795   3.584  20.238  0.00  0.00    +0.000 C 
ATOM     24  C   UNL     1       1.030   3.129  18.797  0.00  0.00    +0.000 C 
ENDBRANCH  16  19
ENDBRANCH  13  14
ENDBRANCH   3  13
TORSDOF 5
ENDMDL
MODEL 7
REMARK VINA RESULT:      -6.9      4.479      7.968
REMARK  Name = 
REMARK  6 active torsions:
REMARK  status: ('A' for Active; 'I' for Inactive)
REMARK    1  A    between atoms: C_1  and  C_2
REMARK    2  A    between atoms: C_2  and  N_3
REMARK    3  A    between atoms: C_5  and  C_6
REMARK    4  A    between atoms: N_8  and  C_9
REMARK    5  A    between atoms: C_9  and  C_10
REMARK    6  A    between atoms: C_12  and  C_13
REMARK                            x       y       z     vdW  Elec       q    Type
REMARK                         _______ _______ _______ _____ _____    ______ ____
ROOT
ATOM      1  C   UNL     1       4.158   5.050  17.447  0.00  0.00    +0.000 C 
ATOM      2  O   UNL     1       3.688   3.954  17.742  0.00  0.00    +0.000 OA
ATOM      3  N   UNL     1       3.829   6.176  18.161  0.00  0.00    +0.000 N 
ATOM      4  H   UNL     1       4.238   7.080  17.960  0.00  0.00    +0.000 HD
ENDROOT
BRANCH   1   7
ATOM      5  N   UNL     1       7.136   6.108  17.264  0.00  0.00    +0.000 N 
ATOM      6  C   UNL     1       5.965   6.535  16.537  0.00  0.00    +0.000 C 
ATOM      7  C   UNL     1       5.173   5.250  16.332  0.00  0.00    +0.000 C 
ATOM      8  C   UNL     1       6.247   4.161  16.321  0.00  0.00    +0.000 C 
ATOM      9  C   UNL     1       7.327   4.739  17.205  0.00  0.00    +0.000 C 
ATOM     10  O   UNL     1       8.216   4.098  17.737  0.00  0.00    +0.000 OA
BRANCH   5  12
ATOM     11  C   UNL     1       7.841   8.438  17.622  0.00  0.00    +0.000 C 
ATOM     12  C   UNL     1       7.894   7.001  18.119  0.00  0.00    +0.000 C 
ENDBRANCH   5  12
ENDBRANCH   1   7
BRANCH   3  13
ATOM     13  C   UNL     1       2.891   6.077  19.269  0.00  0.00    +0.000 C 
BRANCH  13  14
ATOM     14  C   UNL     1       2.193   7.367  19.458  0.00  0.00    +0.000 A 
ATOM     15  N   UNL     1       2.073   8.369  18.624  0.00  0.00    +0.000 NA
ATOM     16  C   UNL     1       1.355   9.279  19.355  0.00  0.00    +0.000 A 
ATOM     17  N   UNL     1       1.035   8.872  20.592  0.00  0.00    +0.000 NA
ATOM     18  O   UNL     1       1.594   7.590  20.664  0.00  0.00    +0.000 OA
BRANCH  16  19
ATOM     19  C   UNL     1       0.975  10.620  18.810  0.00  0.00    +0.000 C 
ATOM     20  C   UNL     1      -0.445  10.622  18.222  0.00  0.00    +0.000 C 
ATOM     21  C   UNL     1      -1.541  10.537  19.286  0.00  0.00    +0.000 C 
ATOM     22  C   UNL     1      -1.374  11.589  20.379  0.00  0.00    +0.000 C 
ATOM     23  C   UNL     1       0.039  11.662  20.952  0.00  0.00    +0.000 C 
ATOM     24  C   UNL     1       1.111  11.731  19.864  0.00  0.00    +0.000 C 
ENDBRANCH  16  19
ENDBRANCH  13  14
ENDBRANCH   3  13
TORSDOF 5
ENDMDL
MODEL 8
REMARK VINA RESULT:      -6.9      1.875      2.855
REMARK  Name = 
REMARK  6 active torsions:
REMARK  status: ('A' for Active; 'I' for Inactive)
REMARK    1  A    between atoms: C_1  and  C_2
REMARK    2  A    between atoms: C_2  and  N_3
REMARK    3  A    between atoms: C_5  and  C_6
REMARK    4  A    between atoms: N_8  and  C_9
REMARK    5  A    between atoms: C_9  and  C_10
REMARK    6  A    between atoms: C_12  and  C_13
REMARK                            x       y       z     vdW  Elec       q    Type
REMARK                         _______ _______ _______ _____ _____    ______ ____
ROOT
ATOM      1  C   UNL     1       6.308   5.093  17.961  0.00  0.00    +0.000 C 
ATOM      2  O   UNL     1       6.862   4.453  17.070  0.00  0.00    +0.000 OA
ATOM      3  N   UNL     1       6.472   6.452  18.062  0.00  0.00    +0.000 N 
ATOM      4  H   UNL     1       5.990   7.003  18.762  0.00  0.00    +0.000 HD
ENDROOT
BRANCH   1   7
ATOM      5  N   UNL     1       3.206   5.274  18.567  0.00  0.00    +0.000 N 
ATOM      6  C   UNL     1       4.327   5.477  19.453  0.00  0.00    +0.000 C 
ATOM      7  C   UNL     1       5.360   4.465  18.972  0.00  0.00    +0.000 C 
ATOM      8  C   UNL     1       4.514   3.347  18.361  0.00  0.00    +0.000 C 
ATOM      9  C   UNL     1       3.282   4.075  17.881  0.00  0.00    +0.000 C 
ATOM     10  O   UNL     1       2.493   3.650  17.056  0.00  0.00    +0.000 OA
BRANCH   5  12
ATOM     11  C   UNL     1       2.896   7.642  17.973  0.00  0.00    +0.000 C 
ATOM     12  C   UNL     1       2.231   6.312  18.290  0.00  0.00    +0.000 C 
ENDBRANCH   5  12
ENDBRANCH   1   7
BRANCH   3  13
ATOM     13  C   UNL     1       7.333   7.145  17.116  0.00  0.00    +0.000 C 
BRANCH  13  14
ATOM     14  C   UNL     1       7.981   8.300  17.774  0.00  0.00    +0.000 A 
ATOM     15  N   UNL     1       8.003   9.556  17.402  0.00  0.00    +0.000 NA
ATOM     16  C   UNL     1       8.768  10.140  18.378  0.00  0.00    +0.000 A 
ATOM     17  N   UNL     1       9.207   9.296  19.323  0.00  0.00    +0.000 NA
ATOM     18  O   UNL     1       8.680   8.062  18.922  0.00  0.00    +0.000 OA
BRANCH  16  19
ATOM     19  C   UNL     1       9.088  11.602  18.372  0.00  0.00    +0.000 C 
ATOM     20  C   UNL     1       9.185  12.178  19.794  0.00  0.00    +0.000 C 
ATOM     21  C   UNL     1      10.433  11.717  20.550  0.00  0.00    +0.000 C 
ATOM     22  C   UNL     1      11.714  11.946  19.754  0.00  0.00    +0.000 C 
ATOM     23  C   UNL     1      11.643  11.441  18.314  0.00  0.00    +0.000 C 
ATOM     24  C   UNL     1      10.378  11.906  17.592  0.00  0.00    +0.000 C 
ENDBRANCH  16  19
ENDBRANCH  13  14
ENDBRANCH   3  13
TORSDOF 5
ENDMDL
MODEL 9
REMARK VINA RESULT:      -6.9      1.860      8.719
REMARK  Name = 
REMARK  6 active torsions:
REMARK  status: ('A' for Active; 'I' for Inactive)
REMARK    1  A    between atoms: C_1  and  C_2
REMARK    2  A    between atoms: C_2  and  N_3
REMARK    3  A    between atoms: C_5  and  C_6
REMARK    4  A    between atoms: N_8  and  C_9
REMARK    5  A    between atoms: C_9  and  C_10
REMARK    6  A    between atoms: C_12  and  C_13
REMARK                            x       y       z     vdW  Elec       q    Type
REMARK                         _______ _______ _______ _____ _____    ______ ____
ROOT
ATOM      1  C   UNL     1      10.103  11.100  19.115  0.00  0.00    +0.000 C 
ATOM      2  O   UNL     1       9.459  11.223  20.153  0.00  0.00    +0.000 OA
ATOM      3  N   UNL     1       9.506  10.663  17.958  0.00  0.00    +0.000 N 
ATOM      4  H   UNL     1      10.011  10.595  17.083  0.00  0.00    +0.000 HD
ENDROOT
BRANCH   1   7
ATOM      5  N   UNL     1      11.721  13.679  18.246  0.00  0.00    +0.000 N 
ATOM      6  C   UNL     1      11.826  12.324  17.760  0.00  0.00    +0.000 C 
ATOM      7  C   UNL     1      11.574  11.472  18.998  0.00  0.00    +0.000 C 
ATOM      8  C   UNL     1      12.043  12.361  20.151  0.00  0.00    +0.000 C 
ATOM      9  C   UNL     1      11.802  13.755  19.625  0.00  0.00    +0.000 C 
ATOM     10  O   UNL     1      11.725  14.760  20.311  0.00  0.00    +0.000 OA
BRANCH   5  12
ATOM     11  C   UNL     1       9.924  15.227  17.591  0.00  0.00    +0.000 C 
ATOM     12  C   UNL     1      11.367  14.792  17.387  0.00  0.00    +0.000 C 
ENDBRANCH   5  12
ENDBRANCH   1   7
BRANCH   3  13
ATOM     13  C   UNL     1       8.093  10.317  17.965  0.00  0.00    +0.000 C 
BRANCH  13  14
ATOM     14  C   UNL     1       7.932   8.848  17.912  0.00  0.00    +0.000 A 
ATOM     15  N   UNL     1       7.203   8.127  17.097  0.00  0.00    +0.000 NA
ATOM     16  C   UNL     1       7.432   6.852  17.544  0.00  0.00    +0.000 A 
ATOM     17  N   UNL     1       8.267   6.769  18.590  0.00  0.00    +0.000 NA
ATOM     18  O   UNL     1       8.604   8.105  18.839  0.00  0.00    +0.000 OA
BRANCH  16  19
ATOM     19  C   UNL     1       6.788   5.657  16.914  0.00  0.00    +0.000 C 
ATOM     20  C   UNL     1       6.468   4.562  17.945  0.00  0.00    +0.000 C 
ATOM     21  C   UNL     1       5.311   4.928  18.876  0.00  0.00    +0.000 C 
ATOM     22  C   UNL     1       4.066   5.374  18.113  0.00  0.00    +0.000 C 
ATOM     23  C   UNL     1       4.347   6.420  17.037  0.00  0.00    +0.000 C 
ATOM     24  C   UNL     1       5.517   6.033  16.133  0.00  0.00    +0.000 C 
ENDBRANCH  16  19
ENDBRANCH  13  14
ENDBRANCH   3  13
TORSDOF 5
ENDMDL
