MODEL 1
REMARK VINA RESULT:      -7.8      0.000      0.000
REMARK  Name = 
REMARK  4 active torsions:
REMARK  status: ('A' for Active; 'I' for Inactive)
REMARK    1  A    between atoms: C_1  and  C_2
REMARK    2  A    between atoms: N_4  and  C_5
REMARK    3  A    between atoms: C_8  and  S_9
REMARK    4  A    between atoms: S_9  and  N_12
REMARK                            x       y       z     vdW  Elec       q    Type
REMARK                         _______ _______ _______ _____ _____    ______ ____
ROOT
ATOM      1  S   UNL     1       3.587   3.771  18.123  0.00  0.00    +0.000 S 
ATOM      2  O   UNL     1       3.649   2.963  19.311  0.00  0.00    +0.000 OA
ATOM      3  O   UNL     1       2.745   3.393  17.024  0.00  0.00    +0.000 OA
ENDROOT
BRANCH   1   4
ATOM      4  N   UNL     1       5.170   4.003  17.491  0.00  0.00    +0.000 N 
ATOM      5  C   UNL     1       5.327   3.598  16.076  0.00  0.00    +0.000 C 
ATOM      6  C   UNL     1       5.076   4.847  15.233  0.00  0.00    +0.000 C 
ATOM      7  C   UNL     1       6.188   5.838  15.487  0.00  0.00    +0.000 C 
ATOM      8  C   UNL     1       6.363   6.114  16.963  0.00  0.00    +0.000 A 
ATOM      9  C   UNL     1       7.194   7.194  17.296  0.00  0.00    +0.000 A 
ATOM     10  C   UNL     1       7.968   7.139  18.443  0.00  0.00    +0.000 A 
ATOM     11  C   UNL     1       7.877   6.009  19.254  0.00  0.00    +0.000 A 
ATOM     12  C   UNL     1       6.901   5.018  19.014  0.00  0.00    +0.000 A 
ATOM     13  C   UNL     1       6.075   5.096  17.887  0.00  0.00    +0.000 A 
ENDBRANCH   1   4
BRANCH   1  17
ATOM     14  C   UNL     1       1.883   7.934  19.551  0.00  0.00    +0.000 A 
ATOM     15  C   UNL     1       1.981   6.851  20.434  0.00  0.00    +0.000 A 
ATOM     16  C   UNL     1       2.501   5.602  20.001  0.00  0.00    +0.000 A 
ATOM     17  C   UNL     1       2.904   5.401  18.664  0.00  0.00    +0.000 A 
ATOM     18  C   UNL     1       2.874   6.498  17.805  0.00  0.00    +0.000 A 
ATOM     19  C   UNL     1       2.355   7.742  18.241  0.00  0.00    +0.000 A 
BRANCH  14  23
ATOM     20  C   UNL     1      -0.221  10.893  20.723  0.00  0.00    +0.000 C 
ATOM     21  C   UNL     1       0.221   9.442  20.712  0.00  0.00    +0.000 C 
ATOM     22  O   UNL     1      -0.392   8.604  21.371  0.00  0.00    +0.000 OA
ATOM     23  N   UNL     1       1.316   9.198  19.896  0.00  0.00    +0.000 N 
ATOM     24  H   UNL     1       1.790  10.011  19.523  0.00  0.00    +0.000 HD
ENDBRANCH  14  23
ENDBRANCH   1  17
TORSDOF 3
ENDMDL
MODEL 2
REMARK VINA RESULT:      -7.8      0.413      1.078
REMARK  Name = 
REMARK  4 active torsions:
REMARK  status: ('A' for Active; 'I' for Inactive)
REMARK    1  A    between atoms: C_1  and  C_2
REMARK    2  A    between atoms: N_4  and  C_5
REMARK    3  A    between atoms: C_8  and  S_9
REMARK    4  A    between atoms: S_9  and  N_12
REMARK                            x       y       z     vdW  Elec       q    Type
REMARK                         _______ _______ _______ _____ _____    ______ ____
ROOT
ATOM      1  S   UNL     1       3.636   3.670  18.051  0.00  0.00    +0.000 S 
ATOM      2  O   UNL     1       3.728   2.717  19.124  0.00  0.00    +0.000 OA
ATOM      3  O   UNL     1       2.759   3.438  16.940  0.00  0.00    +0.000 OA
ENDROOT
BRANCH   1   4
ATOM      4  N   UNL     1       5.201   3.975  17.406  0.00  0.00    +0.000 N 
ATOM      5  C   UNL     1       5.347   3.632  15.973  0.00  0.00    +0.000 C 
ATOM      6  C   UNL     1       5.045   4.905  15.185  0.00  0.00    +0.000 C 
ATOM      7  C   UNL     1       6.132   5.918  15.462  0.00  0.00    +0.000 C 
ATOM      8  C   UNL     1       6.322   6.140  16.945  0.00  0.00    +0.000 A 
ATOM      9  C   UNL     1       7.126   7.230  17.308  0.00  0.00    +0.000 A 
ATOM     10  C   UNL     1       7.920   7.153  18.441  0.00  0.00    +0.000 A 
ATOM     11  C   UNL     1       7.876   5.990  19.206  0.00  0.00    +0.000 A 
ATOM     12  C   UNL     1       6.926   4.980  18.942  0.00  0.00    +0.000 A 
ATOM     13  C   UNL     1       6.080   5.078  17.831  0.00  0.00    +0.000 A 
ENDBRANCH   1   4
BRANCH   1  17
ATOM     14  C   UNL     1       1.927   7.635  19.956  0.00  0.00    +0.000 A 
ATOM     15  C   UNL     1       2.360   7.600  18.625  0.00  0.00    +0.000 A 
ATOM     16  C   UNL     1       2.866   6.402  18.053  0.00  0.00    +0.000 A 
ATOM     17  C   UNL     1       2.982   5.221  18.816  0.00  0.00    +0.000 A 
ATOM     18  C   UNL     1       2.485   5.237  20.118  0.00  0.00    +0.000 A 
ATOM     19  C   UNL     1       1.980   6.433  20.683  0.00  0.00    +0.000 A 
BRANCH  14  23
ATOM     20  C   UNL     1       0.016  10.427  21.721  0.00  0.00    +0.000 C 
ATOM     21  C   UNL     1       0.267   8.994  21.292  0.00  0.00    +0.000 C 
ATOM     22  O   UNL     1      -0.566   8.122  21.533  0.00  0.00    +0.000 OA
ATOM     23  N   UNL     1       1.464   8.815  20.616  0.00  0.00    +0.000 N 
ATOM     24  H   UNL     1       2.101   9.601  20.611  0.00  0.00    +0.000 HD
ENDBRANCH  14  23
ENDBRANCH   1  17
TORSDOF 3
ENDMDL
MODEL 3
REMARK VINA RESULT:      -7.8      1.049      1.444
REMARK  Name = 
REMARK  4 active torsions:
REMARK  status: ('A' for Active; 'I' for Inactive)
REMARK    1  A    between atoms: C_1  and  C_2
REMARK    2  A    between atoms: N_4  and  C_5
REMARK    3  A    between atoms: C_8  and  S_9
REMARK    4  A    between atoms: S_9  and  N_12
REMARK                            x       y       z     vdW  Elec       q    Type
REMARK                         _______ _______ _______ _____ _____    ______ ____
ROOT
ATOM      1  S   UNL     1       3.450   4.058  18.485  0.00  0.00    +0.000 S 
ATOM      2  O   UNL     1       3.494   3.452  19.788  0.00  0.00    +0.000 OA
ATOM      3  O   UNL     1       2.583   3.541  17.466  0.00  0.00    +0.000 OA
ENDROOT
BRANCH   1   4
ATOM      4  N   UNL     1       5.035   4.122  17.817  0.00  0.00    +0.000 N 
ATOM      5  C   UNL     1       5.144   3.559  16.452  0.00  0.00    +0.000 C 
ATOM      6  C   UNL     1       4.956   4.723  15.481  0.00  0.00    +0.000 C 
ATOM      7  C   UNL     1       6.131   5.664  15.616  0.00  0.00    +0.000 C 
ATOM      8  C   UNL     1       6.345   6.086  17.053  0.00  0.00    +0.000 A 
ATOM      9  C   UNL     1       7.246   7.141  17.259  0.00  0.00    +0.000 A 
ATOM     10  C   UNL     1       8.033   7.162  18.398  0.00  0.00    +0.000 A 
ATOM     11  C   UNL     1       7.886   6.133  19.327  0.00  0.00    +0.000 A 
ATOM     12  C   UNL     1       6.848   5.185  19.205  0.00  0.00    +0.000 A 
ATOM     13  C   UNL     1       6.011   5.192  18.083  0.00  0.00    +0.000 A 
ENDBRANCH   1   4
BRANCH   1  17
ATOM     14  C   UNL     1       1.843   8.448  19.131  0.00  0.00    +0.000 A 
ATOM     15  C   UNL     1       2.273   8.013  17.871  0.00  0.00    +0.000 A 
ATOM     16  C   UNL     1       2.749   6.688  17.680  0.00  0.00    +0.000 A 
ATOM     17  C   UNL     1       2.836   5.780  18.756  0.00  0.00    +0.000 A 
ATOM     18  C   UNL     1       2.341   6.189  19.993  0.00  0.00    +0.000 A 
ATOM     19  C   UNL     1       1.866   7.511  20.179  0.00  0.00    +0.000 A 
BRANCH  14  23
ATOM     20  C   UNL     1       0.289  11.931  19.234  0.00  0.00    +0.000 C 
ATOM     21  C   UNL     1       0.361  10.472  18.826  0.00  0.00    +0.000 C 
ATOM     22  O   UNL     1      -0.453  10.013  18.027  0.00  0.00    +0.000 OA
ATOM     23  N   UNL     1       1.409   9.780  19.412  0.00  0.00    +0.000 N 
ATOM     24  H   UNL     1       1.913  10.260  20.148  0.00  0.00    +0.000 HD
ENDBRANCH  14  23
ENDBRANCH   1  17
TORSDOF 3
ENDMDL
MODEL 4
REMARK VINA RESULT:      -7.7      1.137      1.205
REMARK  Name = 
REMARK  4 active torsions:
REMARK  status: ('A' for Active; 'I' for Inactive)
REMARK    1  A    between atoms: C_1  and  C_2
REMARK    2  A    between atoms: N_4  and  C_5
REMARK    3  A    between atoms: C_8  and  S_9
REMARK    4  A    between atoms: S_9  and  N_12
REMARK                            x       y       z     vdW  Elec       q    Type
REMARK                         _______ _______ _______ _____ _____    ______ ____
ROOT
ATOM      1  S   UNL     1       3.085   4.288  19.011  0.00  0.00    +0.000 S 
ATOM      2  O   UNL     1       3.204   3.926  20.398  0.00  0.00    +0.000 OA
ATOM      3  O   UNL     1       2.127   3.638  18.164  0.00  0.00    +0.000 OA
ENDROOT
BRANCH   1   4
ATOM      4  N   UNL     1       4.618   4.151  18.239  0.00  0.00    +0.000 N 
ATOM      5  C   UNL     1       4.581   3.463  16.930  0.00  0.00    +0.000 C 
ATOM      6  C   UNL     1       4.420   4.549  15.868  0.00  0.00    +0.000 C 
ATOM      7  C   UNL     1       5.675   5.390  15.837  0.00  0.00    +0.000 C 
ATOM      8  C   UNL     1       6.027   5.916  17.211  0.00  0.00    +0.000 A 
ATOM      9  C   UNL     1       7.024   6.901  17.258  0.00  0.00    +0.000 A 
ATOM     10  C   UNL     1       7.891   6.952  18.337  0.00  0.00    +0.000 A 
ATOM     11  C   UNL     1       7.727   6.027  19.366  0.00  0.00    +0.000 A 
ATOM     12  C   UNL     1       6.608   5.167  19.402  0.00  0.00    +0.000 A 
ATOM     13  C   UNL     1       5.695   5.150  18.341  0.00  0.00    +0.000 A 
ENDBRANCH   1   4
BRANCH   1  17
ATOM     14  C   UNL     1       1.774   8.821  19.032  0.00  0.00    +0.000 A 
ATOM     15  C   UNL     1       1.760   8.058  20.206  0.00  0.00    +0.000 A 
ATOM     16  C   UNL     1       2.163   6.696  20.197  0.00  0.00    +0.000 A 
ATOM     17  C   UNL     1       2.556   6.059  19.001  0.00  0.00    +0.000 A 
ATOM     18  C   UNL     1       2.639   6.836  17.847  0.00  0.00    +0.000 A 
ATOM     19  C   UNL     1       2.237   8.194  17.862  0.00  0.00    +0.000 A 
BRANCH  14  23
ATOM     20  C   UNL     1      -0.113  12.124  18.733  0.00  0.00    +0.000 C 
ATOM     21  C   UNL     1       0.024  10.644  19.035  0.00  0.00    +0.000 C 
ATOM     22  O   UNL     1      -0.972   9.973  19.301  0.00  0.00    +0.000 OA
ATOM     23  N   UNL     1       1.326  10.175  18.952  0.00  0.00    +0.000 N 
ATOM     24  H   UNL     1       2.052  10.874  18.853  0.00  0.00    +0.000 HD
ENDBRANCH  14  23
ENDBRANCH   1  17
TORSDOF 3
ENDMDL
MODEL 5
REMARK VINA RESULT:      -7.6      2.646      6.829
REMARK  Name = 
REMARK  4 active torsions:
REMARK  status: ('A' for Active; 'I' for Inactive)
REMARK    1  A    between atoms: C_1  and  C_2
REMARK    2  A    between atoms: N_4  and  C_5
REMARK    3  A    between atoms: C_8  and  S_9
REMARK    4  A    between atoms: S_9  and  N_12
REMARK                            x       y       z     vdW  Elec       q    Type
REMARK                         _______ _______ _______ _____ _____    ______ ____
ROOT
ATOM      1  S   UNL     1       4.020   2.858  18.450  0.00  0.00    +0.000 S 
ATOM      2  O   UNL     1       3.770   1.546  17.916  0.00  0.00    +0.000 OA
ATOM      3  O   UNL     1       4.693   3.021  19.706  0.00  0.00    +0.000 OA
ENDROOT
BRANCH   1   4
ATOM      4  N   UNL     1       2.545   3.739  18.547  0.00  0.00    +0.000 N 
ATOM      5  C   UNL     1       1.367   2.917  18.906  0.00  0.00    +0.000 C 
ATOM      6  C   UNL     1       1.226   2.993  20.425  0.00  0.00    +0.000 C 
ATOM      7  C   UNL     1       0.854   4.407  20.809  0.00  0.00    +0.000 C 
ATOM      8  C   UNL     1       1.819   5.415  20.227  0.00  0.00    +0.000 A 
ATOM      9  C   UNL     1       1.714   6.725  20.717  0.00  0.00    +0.000 A 
ATOM     10  C   UNL     1       1.967   7.797  19.877  0.00  0.00    +0.000 A 
ATOM     11  C   UNL     1       2.347   7.536  18.562  0.00  0.00    +0.000 A 
ATOM     12  C   UNL     1       2.635   6.222  18.134  0.00  0.00    +0.000 A 
ATOM     13  C   UNL     1       2.436   5.137  18.996  0.00  0.00    +0.000 A 
ENDBRANCH   1   4
BRANCH   1  17
ATOM     14  C   UNL     1       6.836   5.003  15.329  0.00  0.00    +0.000 A 
ATOM     15  C   UNL     1       5.626   4.419  14.930  0.00  0.00    +0.000 A 
ATOM     16  C   UNL     1       4.778   3.781  15.875  0.00  0.00    +0.000 A 
ATOM     17  C   UNL     1       5.141   3.684  17.235  0.00  0.00    +0.000 A 
ATOM     18  C   UNL     1       6.309   4.327  17.643  0.00  0.00    +0.000 A 
ATOM     19  C   UNL     1       7.150   4.963  16.698  0.00  0.00    +0.000 A 
BRANCH  14  23
ATOM     20  C   UNL     1       9.147   6.028  12.471  0.00  0.00    +0.000 C 
ATOM     21  C   UNL     1       7.951   5.325  13.084  0.00  0.00    +0.000 C 
ATOM     22  O   UNL     1       7.261   4.570  12.402  0.00  0.00    +0.000 OA
ATOM     23  N   UNL     1       7.767   5.607  14.429  0.00  0.00    +0.000 N 
ATOM     24  H   UNL     1       8.337   6.348  14.817  0.00  0.00    +0.000 HD
ENDBRANCH  14  23
ENDBRANCH   1  17
TORSDOF 3
ENDMDL
MODEL 6
REMARK VINA RESULT:      -7.6      2.662      6.807
REMARK  Name = 
REMARK  4 active torsions:
REMARK  status: ('A' for Active; 'I' for Inactive)
REMARK    1  A    between atoms: C_1  and  C_2
REMARK    2  A    between atoms: N_4  and  C_5
REMARK    3  A    between atoms: C_8  and  S_9
REMARK    4  A    between atoms: S_9  and  N_12
REMARK                            x       y       z     vdW  Elec       q    Type
REMARK                         _______ _______ _______ _____ _____    ______ ____
ROOT
ATOM      1  S   UNL     1       3.998   2.848  18.454  0.00  0.00    +0.000 S 
ATOM      2  O   UNL     1       3.742   1.534  17.927  0.00  0.00    +0.000 OA
ATOM      3  O   UNL     1       4.677   3.014  19.707  0.00  0.00    +0.000 OA
ENDROOT
BRANCH   1   4
ATOM      4  N   UNL     1       2.527   3.735  18.552  0.00  0.00    +0.000 N 
ATOM      5  C   UNL     1       1.343   2.914  18.892  0.00  0.00    +0.000 C 
ATOM      6  C   UNL     1       1.191   2.972  20.411  0.00  0.00    +0.000 C 
ATOM      7  C   UNL     1       0.823   4.382  20.811  0.00  0.00    +0.000 C 
ATOM      8  C   UNL     1       1.797   5.393  20.248  0.00  0.00    +0.000 A 
ATOM      9  C   UNL     1       1.695   6.697  20.754  0.00  0.00    +0.000 A 
ATOM     10  C   UNL     1       1.959   7.778  19.930  0.00  0.00    +0.000 A 
ATOM     11  C   UNL     1       2.347   7.532  18.614  0.00  0.00    +0.000 A 
ATOM     12  C   UNL     1       2.632   6.222  18.171  0.00  0.00    +0.000 A 
ATOM     13  C   UNL     1       2.422   5.128  19.018  0.00  0.00    +0.000 A 
ENDBRANCH   1   4
BRANCH   1  17
ATOM     14  C   UNL     1       6.906   4.900  15.355  0.00  0.00    +0.000 A 
ATOM     15  C   UNL     1       7.212   4.866  16.721  0.00  0.00    +0.000 A 
ATOM     16  C   UNL     1       6.338   4.240  17.649  0.00  0.00    +0.000 A 
ATOM     17  C   UNL     1       5.119   3.665  17.232  0.00  0.00    +0.000 A 
ATOM     18  C   UNL     1       4.849   3.636  15.865  0.00  0.00    +0.000 A 
ATOM     19  C   UNL     1       5.725   4.260  14.942  0.00  0.00    +0.000 A 
BRANCH  14  23
ATOM     20  C   UNL     1       8.896   6.050  12.308  0.00  0.00    +0.000 C 
ATOM     21  C   UNL     1       7.824   5.252  13.027  0.00  0.00    +0.000 C 
ATOM     22  O   UNL     1       7.171   4.407  12.418  0.00  0.00    +0.000 OA
ATOM     23  N   UNL     1       7.705   5.562  14.373  0.00  0.00    +0.000 N 
ATOM     24  H   UNL     1       8.221   6.371  14.697  0.00  0.00    +0.000 HD
ENDBRANCH  14  23
ENDBRANCH   1  17
TORSDOF 3
ENDMDL
MODEL 7
REMARK VINA RESULT:      -7.5      2.937      5.832
REMARK  Name = 
REMARK  4 active torsions:
REMARK  status: ('A' for Active; 'I' for Inactive)
REMARK    1  A    between atoms: C_1  and  C_2
REMARK    2  A    between atoms: N_4  and  C_5
REMARK    3  A    between atoms: C_8  and  S_9
REMARK    4  A    between atoms: S_9  and  N_12
REMARK                            x       y       z     vdW  Elec       q    Type
REMARK                         _______ _______ _______ _____ _____    ______ ____
ROOT
ATOM      1  S   UNL     1       5.265   4.295  17.934  0.00  0.00    +0.000 S 
ATOM      2  O   UNL     1       5.607   3.574  16.738  0.00  0.00    +0.000 OA
ATOM      3  O   UNL     1       5.557   3.747  19.228  0.00  0.00    +0.000 OA
ENDROOT
BRANCH   1   4
ATOM      4  N   UNL     1       3.590   4.691  17.918  0.00  0.00    +0.000 N 
ATOM      5  C   UNL     1       2.721   3.638  17.347  0.00  0.00    +0.000 C 
ATOM      6  C   UNL     1       2.252   2.775  18.517  0.00  0.00    +0.000 C 
ATOM      7  C   UNL     1       1.345   3.602  19.399  0.00  0.00    +0.000 C 
ATOM      8  C   UNL     1       2.002   4.899  19.813  0.00  0.00    +0.000 A 
ATOM      9  C   UNL     1       1.353   5.625  20.823  0.00  0.00    +0.000 A 
ATOM     10  C   UNL     1       1.390   7.009  20.808  0.00  0.00    +0.000 A 
ATOM     11  C   UNL     1       2.099   7.645  19.790  0.00  0.00    +0.000 A 
ATOM     12  C   UNL     1       2.903   6.909  18.893  0.00  0.00    +0.000 A 
ATOM     13  C   UNL     1       2.916   5.510  18.940  0.00  0.00    +0.000 A 
ENDBRANCH   1   4
BRANCH   1  17
ATOM     14  C   UNL     1       7.851   8.239  17.780  0.00  0.00    +0.000 A 
ATOM     15  C   UNL     1       8.232   7.155  18.580  0.00  0.00    +0.000 A 
ATOM     16  C   UNL     1       7.455   5.967  18.617  0.00  0.00    +0.000 A 
ATOM     17  C   UNL     1       6.258   5.853  17.879  0.00  0.00    +0.000 A 
ATOM     18  C   UNL     1       5.917   6.903  17.028  0.00  0.00    +0.000 A 
ATOM     19  C   UNL     1       6.696   8.085  16.993  0.00  0.00    +0.000 A 
BRANCH  14  23
ATOM     20  C   UNL     1       9.563  11.590  18.415  0.00  0.00    +0.000 C 
ATOM     21  C   UNL     1       9.029  10.225  18.807  0.00  0.00    +0.000 C 
ATOM     22  O   UNL     1       9.031   9.875  19.986  0.00  0.00    +0.000 OA
ATOM     23  N   UNL     1       8.548   9.486  17.737  0.00  0.00    +0.000 N 
ATOM     24  H   UNL     1       8.735   9.855  16.813  0.00  0.00    +0.000 HD
ENDBRANCH  14  23
ENDBRANCH   1  17
TORSDOF 3
ENDMDL
MODEL 8
REMARK VINA RESULT:      -7.5      1.527      1.927
REMARK  Name = 
REMARK  4 active torsions:
REMARK  status: ('A' for Active; 'I' for Inactive)
REMARK    1  A    between atoms: C_1  and  C_2
REMARK    2  A    between atoms: N_4  and  C_5
REMARK    3  A    between atoms: C_8  and  S_9
REMARK    4  A    between atoms: S_9  and  N_12
REMARK                            x       y       z     vdW  Elec       q    Type
REMARK                         _______ _______ _______ _____ _____    ______ ____
ROOT
ATOM      1  S   UNL     1       2.807   4.554  19.599  0.00  0.00    +0.000 S 
ATOM      2  O   UNL     1       3.026   4.390  21.011  0.00  0.00    +0.000 OA
ATOM      3  O   UNL     1       1.749   3.850  18.935  0.00  0.00    +0.000 OA
ENDROOT
BRANCH   1   4
ATOM      4  N   UNL     1       4.259   4.212  18.740  0.00  0.00    +0.000 N 
ATOM      5  C   UNL     1       4.090   3.276  17.606  0.00  0.00    +0.000 C 
ATOM      6  C   UNL     1       3.849   4.131  16.364  0.00  0.00    +0.000 C 
ATOM      7  C   UNL     1       5.109   4.905  16.053  0.00  0.00    +0.000 C 
ATOM      8  C   UNL     1       5.595   5.685  17.255  0.00  0.00    +0.000 A 
ATOM      9  C   UNL     1       6.608   6.624  17.013  0.00  0.00    +0.000 A 
ATOM     10  C   UNL     1       7.572   6.861  17.979  0.00  0.00    +0.000 A 
ATOM     11  C   UNL     1       7.489   6.167  19.185  0.00  0.00    +0.000 A 
ATOM     12  C   UNL     1       6.365   5.372  19.492  0.00  0.00    +0.000 A 
ATOM     13  C   UNL     1       5.357   5.173  18.541  0.00  0.00    +0.000 A 
ENDBRANCH   1   4
BRANCH   1  17
ATOM     14  C   UNL     1       1.650   9.084  18.957  0.00  0.00    +0.000 A 
ATOM     15  C   UNL     1       2.102   8.295  17.891  0.00  0.00    +0.000 A 
ATOM     16  C   UNL     1       2.442   6.929  18.088  0.00  0.00    +0.000 A 
ATOM     17  C   UNL     1       2.369   6.335  19.365  0.00  0.00    +0.000 A 
ATOM     18  C   UNL     1       1.852   7.099  20.409  0.00  0.00    +0.000 A 
ATOM     19  C   UNL     1       1.513   8.460  20.208  0.00  0.00    +0.000 A 
BRANCH  14  23
ATOM     20  C   UNL     1       0.127  12.561  18.566  0.00  0.00    +0.000 C 
ATOM     21  C   UNL     1       0.101  11.079  18.891  0.00  0.00    +0.000 C 
ATOM     22  O   UNL     1      -0.965  10.520  19.139  0.00  0.00    +0.000 OA
ATOM     23  N   UNL     1       1.349  10.476  18.848  0.00  0.00    +0.000 N 
ATOM     24  H   UNL     1       2.146  11.094  18.758  0.00  0.00    +0.000 HD
ENDBRANCH  14  23
ENDBRANCH   1  17
TORSDOF 3
ENDMDL
MODEL 9
REMARK VINA RESULT:      -7.5      1.030      1.068
REMARK  Name = 
REMARK  4 active torsions:
REMARK  status: ('A' for Active; 'I' for Inactive)
REMARK    1  A    between atoms: C_1  and  C_2
REMARK    2  A    between atoms: N_4  and  C_5
REMARK    3  A    between atoms: C_8  and  S_9
REMARK    4  A    between atoms: S_9  and  N_12
REMARK                            x       y       z     vdW  Elec       q    Type
REMARK                         _______ _______ _______ _____ _____    ______ ____
ROOT
ATOM      1  S   UNL     1       4.369   3.595  18.881  0.00  0.00    +0.000 S 
ATOM      2  O   UNL     1       4.945   3.089  20.097  0.00  0.00    +0.000 OA
ATOM      3  O   UNL     1       3.478   2.784  18.101  0.00  0.00    +0.000 OA
ENDROOT
BRANCH   1   4
ATOM      4  N   UNL     1       5.615   4.137  17.825  0.00  0.00    +0.000 N 
ATOM      5  C   UNL     1       5.435   3.732  16.412  0.00  0.00    +0.000 C 
ATOM      6  C   UNL     1       4.693   4.875  15.721  0.00  0.00    +0.000 C 
ATOM      7  C   UNL     1       5.597   6.085  15.674  0.00  0.00    +0.000 C 
ATOM      8  C   UNL     1       6.131   6.436  17.045  0.00  0.00    +0.000 A 
ATOM      9  C   UNL     1       6.776   7.675  17.158  0.00  0.00    +0.000 A 
ATOM     10  C   UNL     1       7.843   7.819  18.029  0.00  0.00    +0.000 A 
ATOM     11  C   UNL     1       8.231   6.720  18.793  0.00  0.00    +0.000 A 
ATOM     12  C   UNL     1       7.459   5.538  18.814  0.00  0.00    +0.000 A 
ATOM     13  C   UNL     1       6.344   5.407  17.978  0.00  0.00    +0.000 A 
ENDBRANCH   1   4
BRANCH   1  17
ATOM     14  C   UNL     1       1.738   7.276  20.222  0.00  0.00    +0.000 A 
ATOM     15  C   UNL     1       1.726   6.076  20.945  0.00  0.00    +0.000 A 
ATOM     16  C   UNL     1       2.526   4.973  20.542  0.00  0.00    +0.000 A 
ATOM     17  C   UNL     1       3.329   5.038  19.384  0.00  0.00    +0.000 A 
ATOM     18  C   UNL     1       3.395   6.254  18.706  0.00  0.00    +0.000 A 
ATOM     19  C   UNL     1       2.598   7.351  19.113  0.00  0.00    +0.000 A 
BRANCH  14  23
ATOM     20  C   UNL     1      -0.136  10.233  21.740  0.00  0.00    +0.000 C 
ATOM     21  C   UNL     1       1.006   9.240  21.633  0.00  0.00    +0.000 C 
ATOM     22  O   UNL     1       1.887   9.217  22.491  0.00  0.00    +0.000 OA
ATOM     23  N   UNL     1       0.917   8.404  20.531  0.00  0.00    +0.000 N 
ATOM     24  H   UNL     1       0.207   8.632  19.847  0.00  0.00    +0.000 HD
ENDBRANCH  14  23
ENDBRANCH   1  17
TORSDOF 3
ENDMDL
