MODEL 1
REMARK VINA RESULT:      -7.9      0.000      0.000
REMARK  Name = 
REMARK  5 active torsions:
REMARK  status: ('A' for Active; 'I' for Inactive)
REMARK    1  A    between atoms: C_2  and  C_3
REMARK    2  A    between atoms: C_6  and  N_7
REMARK    3  A    between atoms: C_9  and  C_10
REMARK    4  A    between atoms: C_17  and  N_18
REMARK    5  A    between atoms: C_19  and  C_21
REMARK                            x       y       z     vdW  Elec       q    Type
REMARK                         _______ _______ _______ _____ _____    ______ ____
ROOT
ATOM      1  N   UNL     1       2.625   5.945  18.535  0.00  0.00    +0.000 N 
ATOM      2  N   UNL     1       1.748   4.977  18.968  0.00  0.00    +0.000 NA
ATOM      3  C   UNL     1       2.224   3.815  18.472  0.00  0.00    +0.000 A 
ATOM      4  C   UNL     1       3.471   4.016  17.850  0.00  0.00    +0.000 A 
ATOM      5  C   UNL     1       3.740   5.370  17.926  0.00  0.00    +0.000 A 
ATOM      6  C   UNL     1       5.025   5.915  17.456  0.00  0.00    +0.000 A 
ATOM      7  C   UNL     1       5.568   7.126  17.884  0.00  0.00    +0.000 A 
ATOM      8  C   UNL     1       6.769   7.617  17.361  0.00  0.00    +0.000 A 
ATOM      9  C   UNL     1       7.495   6.821  16.470  0.00  0.00    +0.000 A 
ATOM     10  C   UNL     1       7.019   5.562  16.096  0.00  0.00    +0.000 A 
ATOM     11  C   UNL     1       5.794   5.099  16.589  0.00  0.00    +0.000 A 
ATOM     12  C   UNL     1       5.276   3.734  16.162  0.00  0.00    +0.000 C 
ATOM     13  C   UNL     1       4.432   3.049  17.251  0.00  0.00    +0.000 C 
ENDROOT
BRANCH   1  17
ATOM     14  C   UNL     1       1.456  10.004  19.016  0.00  0.00    +0.000 A 
ATOM     15  C   UNL     1       1.912   9.538  17.779  0.00  0.00    +0.000 A 
ATOM     16  C   UNL     1       2.338   8.208  17.633  0.00  0.00    +0.000 A 
ATOM     17  C   UNL     1       2.283   7.322  18.721  0.00  0.00    +0.000 A 
ATOM     18  C   UNL     1       1.881   7.812  19.971  0.00  0.00    +0.000 A 
ATOM     19  C   UNL     1       1.458   9.141  20.111  0.00  0.00    +0.000 A 
BRANCH  14  21
ATOM     20  C   UNL     1       0.589  12.475  19.308  0.00  0.00    +0.000 C 
ATOM     21  C   UNL     1       0.984  11.351  19.163  0.00  0.00    +0.000 C 
ENDBRANCH  14  21
ENDBRANCH   1  17
BRANCH   3  22
ATOM     22  C   UNL     1       1.520   2.527  18.602  0.00  0.00    +0.000 C 
ATOM     23  N   UNL     1       2.299   1.455  18.917  0.00  0.00    +0.000 N 
ATOM     24  O   UNL     1       0.305   2.393  18.464  0.00  0.00    +0.000 OA
ATOM     25  H   UNL     1       3.289   1.585  19.075  0.00  0.00    +0.000 HD
ATOM     26  H   UNL     1       1.850   0.564  19.077  0.00  0.00    +0.000 HD
ENDBRANCH   3  22
BRANCH   8  27
ATOM     27  N   UNL     1       7.295   8.888  17.690  0.00  0.00    +0.000 N 
ATOM     28  C   UNL     1       8.375   9.136  18.518  0.00  0.00    +0.000 C 
ATOM     29  O   UNL     1       9.037   8.292  19.112  0.00  0.00    +0.000 OA
ATOM     30  H   UNL     1       6.785   9.683  17.321  0.00  0.00    +0.000 HD
BRANCH  28  31
ATOM     31  C   UNL     1       8.820  10.536  18.681  0.00  0.00    +0.000 A 
ATOM     32  C   UNL     1       9.011  11.277  17.504  0.00  0.00    +0.000 A 
ATOM     33  C   UNL     1       9.446  12.595  17.568  0.00  0.00    +0.000 A 
ATOM     34  C   UNL     1       9.686  13.138  18.816  0.00  0.00    +0.000 A 
ATOM     35  N   UNL     1       9.524  12.458  19.973  0.00  0.00    +0.000 NA
ATOM     36  C   UNL     1       9.104  11.171  19.879  0.00  0.00    +0.000 A 
ATOM     37 CL   UNL     1       9.001  10.419  21.424  0.00  0.00    +0.000 Cl
ENDBRANCH  28  31
ENDBRANCH   8  27
TORSDOF 5
ENDMDL
MODEL 2
REMARK VINA RESULT:      -7.5      6.317     10.073
REMARK  Name = 
REMARK  5 active torsions:
REMARK  status: ('A' for Active; 'I' for Inactive)
REMARK    1  A    between atoms: C_2  and  C_3
REMARK    2  A    between atoms: C_6  and  N_7
REMARK    3  A    between atoms: C_9  and  C_10
REMARK    4  A    between atoms: C_17  and  N_18
REMARK    5  A    between atoms: C_19  and  C_21
REMARK                            x       y       z     vdW  Elec       q    Type
REMARK                         _______ _______ _______ _____ _____    ______ ____
ROOT
ATOM      1  N   UNL     1      -2.512  12.741  22.228  0.00  0.00    +0.000 N 
ATOM      2  N   UNL     1      -3.826  12.360  22.381  0.00  0.00    +0.000 NA
ATOM      3  C   UNL     1      -4.312  13.139  23.371  0.00  0.00    +0.000 A 
ATOM      4  C   UNL     1      -3.363  14.107  23.750  0.00  0.00    +0.000 A 
ATOM      5  C   UNL     1      -2.231  13.873  22.993  0.00  0.00    +0.000 A 
ATOM      6  C   UNL     1      -1.070  14.776  23.067  0.00  0.00    +0.000 A 
ATOM      7  C   UNL     1      -0.109  14.903  22.065  0.00  0.00    +0.000 A 
ATOM      8  C   UNL     1       1.002  15.740  22.215  0.00  0.00    +0.000 A 
ATOM      9  C   UNL     1       1.091  16.550  23.352  0.00  0.00    +0.000 A 
ATOM     10  C   UNL     1       0.093  16.510  24.329  0.00  0.00    +0.000 A 
ATOM     11  C   UNL     1      -0.991  15.636  24.191  0.00  0.00    +0.000 A 
ATOM     12  C   UNL     1      -2.063  15.587  25.269  0.00  0.00    +0.000 C 
ATOM     13  C   UNL     1      -3.455  15.241  24.711  0.00  0.00    +0.000 C 
ENDROOT
BRANCH   1  17
ATOM     14  C   UNL     1       0.119  10.555  19.704  0.00  0.00    +0.000 A 
ATOM     15  C   UNL     1      -0.923  11.311  19.160  0.00  0.00    +0.000 A 
ATOM     16  C   UNL     1      -1.817  11.998  19.997  0.00  0.00    +0.000 A 
ATOM     17  C   UNL     1      -1.657  11.957  21.391  0.00  0.00    +0.000 A 
ATOM     18  C   UNL     1      -0.647  11.149  21.931  0.00  0.00    +0.000 A 
ATOM     19  C   UNL     1       0.242  10.465  21.091  0.00  0.00    +0.000 A 
BRANCH  14  21
ATOM     20  C   UNL     1       1.848   9.337  18.133  0.00  0.00    +0.000 C 
ATOM     21  C   UNL     1       1.058   9.881  18.855  0.00  0.00    +0.000 C 
ENDBRANCH  14  21
ENDBRANCH   1  17
BRANCH   3  22
ATOM     22  C   UNL     1      -5.663  12.982  23.938  0.00  0.00    +0.000 C 
ATOM     23  N   UNL     1      -5.802  12.006  24.877  0.00  0.00    +0.000 N 
ATOM     24  O   UNL     1      -6.623  13.686  23.626  0.00  0.00    +0.000 OA
ATOM     25  H   UNL     1      -4.996  11.465  25.160  0.00  0.00    +0.000 HD
ATOM     26  H   UNL     1      -6.695  11.904  25.338  0.00  0.00    +0.000 HD
ENDBRANCH   3  22
BRANCH   8  27
ATOM     27  N   UNL     1       2.051  15.813  21.269  0.00  0.00    +0.000 N 
ATOM     28  C   UNL     1       3.137  14.961  21.185  0.00  0.00    +0.000 C 
ATOM     29  O   UNL     1       3.371  14.016  21.931  0.00  0.00    +0.000 OA
ATOM     30  H   UNL     1       2.016  16.604  20.635  0.00  0.00    +0.000 HD
BRANCH  28  31
ATOM     31  C   UNL     1       4.093  15.157  20.075  0.00  0.00    +0.000 A 
ATOM     32  C   UNL     1       5.131  16.077  20.294  0.00  0.00    +0.000 A 
ATOM     33  C   UNL     1       6.062  16.332  19.294  0.00  0.00    +0.000 A 
ATOM     34  C   UNL     1       5.926  15.661  18.094  0.00  0.00    +0.000 A 
ATOM     35  N   UNL     1       4.937  14.775  17.839  0.00  0.00    +0.000 NA
ATOM     36  C   UNL     1       4.039  14.550  18.831  0.00  0.00    +0.000 A 
ATOM     37 CL   UNL     1       2.810  13.448  18.341  0.00  0.00    +0.000 Cl
ENDBRANCH  28  31
ENDBRANCH   8  27
TORSDOF 5
ENDMDL
MODEL 3
REMARK VINA RESULT:      -7.5      0.893      1.219
REMARK  Name = 
REMARK  5 active torsions:
REMARK  status: ('A' for Active; 'I' for Inactive)
REMARK    1  A    between atoms: C_2  and  C_3
REMARK    2  A    between atoms: C_6  and  N_7
REMARK    3  A    between atoms: C_9  and  C_10
REMARK    4  A    between atoms: C_17  and  N_18
REMARK    5  A    between atoms: C_19  and  C_21
REMARK                            x       y       z     vdW  Elec       q    Type
REMARK                         _______ _______ _______ _____ _____    ______ ____
ROOT
ATOM      1  N   UNL     1       2.598   5.988  18.946  0.00  0.00    +0.000 N 
ATOM      2  N   UNL     1       1.789   5.051  19.548  0.00  0.00    +0.000 NA
ATOM      3  C   UNL     1       2.324   3.854  19.225  0.00  0.00    +0.000 A 
ATOM      4  C   UNL     1       3.545   4.026  18.544  0.00  0.00    +0.000 A 
ATOM      5  C   UNL     1       3.734   5.388  18.402  0.00  0.00    +0.000 A 
ATOM      6  C   UNL     1       4.975   5.923  17.817  0.00  0.00    +0.000 A 
ATOM      7  C   UNL     1       5.453   7.215  18.037  0.00  0.00    +0.000 A 
ATOM      8  C   UNL     1       6.612   7.685  17.411  0.00  0.00    +0.000 A 
ATOM      9  C   UNL     1       7.367   6.801  16.633  0.00  0.00    +0.000 A 
ATOM     10  C   UNL     1       6.959   5.475  16.472  0.00  0.00    +0.000 A 
ATOM     11  C   UNL     1       5.774   5.027  17.064  0.00  0.00    +0.000 A 
ATOM     12  C   UNL     1       5.330   3.585  16.868  0.00  0.00    +0.000 C 
ATOM     13  C   UNL     1       4.550   3.032  18.074  0.00  0.00    +0.000 C 
ENDROOT
BRANCH   1  17
ATOM     14  C   UNL     1       1.502  10.095  18.961  0.00  0.00    +0.000 A 
ATOM     15  C   UNL     1       1.402   9.329  20.126  0.00  0.00    +0.000 A 
ATOM     16  C   UNL     1       1.724   7.961  20.108  0.00  0.00    +0.000 A 
ATOM     17  C   UNL     1       2.179   7.355  18.927  0.00  0.00    +0.000 A 
ATOM     18  C   UNL     1       2.219   8.115  17.751  0.00  0.00    +0.000 A 
ATOM     19  C   UNL     1       1.896   9.479  17.773  0.00  0.00    +0.000 A 
BRANCH  14  21
ATOM     20  C   UNL     1       0.979  12.677  19.015  0.00  0.00    +0.000 C 
ATOM     21  C   UNL     1       1.211  11.499  18.980  0.00  0.00    +0.000 C 
ENDBRANCH  14  21
ENDBRANCH   1  17
BRANCH   3  22
ATOM     22  C   UNL     1       1.701   2.565  19.571  0.00  0.00    +0.000 C 
ATOM     23  N   UNL     1       1.319   1.790  18.518  0.00  0.00    +0.000 N 
ATOM     24  O   UNL     1       1.541   2.169  20.724  0.00  0.00    +0.000 OA
ATOM     25  H   UNL     1       1.498   2.104  17.574  0.00  0.00    +0.000 HD
ATOM     26  H   UNL     1       0.944   0.871  18.707  0.00  0.00    +0.000 HD
ENDBRANCH   3  22
BRANCH   8  27
ATOM     27  N   UNL     1       7.067   9.020  17.524  0.00  0.00    +0.000 N 
ATOM     28  C   UNL     1       8.189   9.444  18.212  0.00  0.00    +0.000 C 
ATOM     29  O   UNL     1       8.959   8.731  18.847  0.00  0.00    +0.000 OA
ATOM     30  H   UNL     1       6.472   9.724  17.103  0.00  0.00    +0.000 HD
BRANCH  28  31
ATOM     31  C   UNL     1       8.542  10.878  18.152  0.00  0.00    +0.000 A 
ATOM     32  C   UNL     1       7.805  11.671  17.258  0.00  0.00    +0.000 A 
ATOM     33  C   UNL     1       8.085  13.026  17.128  0.00  0.00    +0.000 A 
ATOM     34  C   UNL     1       9.105  13.554  17.897  0.00  0.00    +0.000 A 
ATOM     35  N   UNL     1       9.845  12.825  18.762  0.00  0.00    +0.000 NA
ATOM     36  C   UNL     1       9.553  11.503  18.863  0.00  0.00    +0.000 A 
ATOM     37 CL   UNL     1      10.613  10.697  19.955  0.00  0.00    +0.000 Cl
ENDBRANCH  28  31
ENDBRANCH   8  27
TORSDOF 5
ENDMDL
MODEL 4
REMARK VINA RESULT:      -7.4      6.473     10.304
REMARK  Name = 
REMARK  5 active torsions:
REMARK  status: ('A' for Active; 'I' for Inactive)
REMARK    1  A    between atoms: C_2  and  C_3
REMARK    2  A    between atoms: C_6  and  N_7
REMARK    3  A    between atoms: C_9  and  C_10
REMARK    4  A    between atoms: C_17  and  N_18
REMARK    5  A    between atoms: C_19  and  C_21
REMARK                            x       y       z     vdW  Elec       q    Type
REMARK                         _______ _______ _______ _____ _____    ______ ____
ROOT
ATOM      1  N   UNL     1      -2.358  12.454  22.842  0.00  0.00    +0.000 N 
ATOM      2  N   UNL     1      -3.672  12.070  22.985  0.00  0.00    +0.000 NA
ATOM      3  C   UNL     1      -4.263  13.064  23.682  0.00  0.00    +0.000 A 
ATOM      4  C   UNL     1      -3.372  14.140  23.859  0.00  0.00    +0.000 A 
ATOM      5  C   UNL     1      -2.171  13.762  23.288  0.00  0.00    +0.000 A 
ATOM      6  C   UNL     1      -1.042  14.704  23.208  0.00  0.00    +0.000 A 
ATOM      7  C   UNL     1       0.004  14.599  22.290  0.00  0.00    +0.000 A 
ATOM      8  C   UNL     1       1.078  15.494  22.297  0.00  0.00    +0.000 A 
ATOM      9  C   UNL     1       1.046  16.584  23.173  0.00  0.00    +0.000 A 
ATOM     10  C   UNL     1      -0.035  16.764  24.038  0.00  0.00    +0.000 A 
ATOM     11  C   UNL     1      -1.084  15.837  24.057  0.00  0.00    +0.000 A 
ATOM     12  C   UNL     1      -2.248  16.033  25.016  0.00  0.00    +0.000 C 
ATOM     13  C   UNL     1      -3.575  15.487  24.462  0.00  0.00    +0.000 C 
ENDROOT
BRANCH   1  17
ATOM     14  C   UNL     1       0.324   9.537  21.302  0.00  0.00    +0.000 A 
ATOM     15  C   UNL     1       0.022   9.575  22.666  0.00  0.00    +0.000 A 
ATOM     16  C   UNL     1      -0.831  10.566  23.180  0.00  0.00    +0.000 A 
ATOM     17  C   UNL     1      -1.414  11.513  22.323  0.00  0.00    +0.000 A 
ATOM     18  C   UNL     1      -1.060  11.505  20.968  0.00  0.00    +0.000 A 
ATOM     19  C   UNL     1      -0.208  10.514  20.460  0.00  0.00    +0.000 A 
BRANCH  14  21
ATOM     20  C   UNL     1       1.860   7.648  20.295  0.00  0.00    +0.000 C 
ATOM     21  C   UNL     1       1.163   8.506  20.765  0.00  0.00    +0.000 C 
ENDBRANCH  14  21
ENDBRANCH   1  17
BRANCH   3  22
ATOM     22  C   UNL     1      -5.655  13.006  24.158  0.00  0.00    +0.000 C 
ATOM     23  N   UNL     1      -6.337  14.185  24.140  0.00  0.00    +0.000 N 
ATOM     24  O   UNL     1      -6.210  11.974  24.533  0.00  0.00    +0.000 OA
ATOM     25  H   UNL     1      -5.887  15.018  23.786  0.00  0.00    +0.000 HD
ATOM     26  H   UNL     1      -7.314  14.181  24.399  0.00  0.00    +0.000 HD
ENDBRANCH   3  22
BRANCH   8  27
ATOM     27  N   UNL     1       2.206  15.357  21.455  0.00  0.00    +0.000 N 
ATOM     28  C   UNL     1       2.317  15.818  20.155  0.00  0.00    +0.000 C 
ATOM     29  O   UNL     1       1.446  16.405  19.522  0.00  0.00    +0.000 OA
ATOM     30  H   UNL     1       2.976  14.818  21.836  0.00  0.00    +0.000 HD
BRANCH  28  31
ATOM     31  C   UNL     1       3.610  15.641  19.461  0.00  0.00    +0.000 A 
ATOM     32  C   UNL     1       4.565  16.654  19.641  0.00  0.00    +0.000 A 
ATOM     33  C   UNL     1       5.800  16.573  19.009  0.00  0.00    +0.000 A 
ATOM     34  C   UNL     1       6.046  15.477  18.204  0.00  0.00    +0.000 A 
ATOM     35  N   UNL     1       5.152  14.484  17.997  0.00  0.00    +0.000 NA
ATOM     36  C   UNL     1       3.952  14.593  18.622  0.00  0.00    +0.000 A 
ATOM     37 CL   UNL     1       2.901  13.291  18.217  0.00  0.00    +0.000 Cl
ENDBRANCH  28  31
ENDBRANCH   8  27
TORSDOF 5
ENDMDL
MODEL 5
REMARK VINA RESULT:      -7.3      0.981      1.171
REMARK  Name = 
REMARK  5 active torsions:
REMARK  status: ('A' for Active; 'I' for Inactive)
REMARK    1  A    between atoms: C_2  and  C_3
REMARK    2  A    between atoms: C_6  and  N_7
REMARK    3  A    between atoms: C_9  and  C_10
REMARK    4  A    between atoms: C_17  and  N_18
REMARK    5  A    between atoms: C_19  and  C_21
REMARK                            x       y       z     vdW  Elec       q    Type
REMARK                         _______ _______ _______ _____ _____    ______ ____
ROOT
ATOM      1  N   UNL     1       2.627   5.961  18.521  0.00  0.00    +0.000 N 
ATOM      2  N   UNL     1       1.728   5.002  18.930  0.00  0.00    +0.000 NA
ATOM      3  C   UNL     1       2.173   3.844  18.395  0.00  0.00    +0.000 A 
ATOM      4  C   UNL     1       3.421   4.035  17.771  0.00  0.00    +0.000 A 
ATOM      5  C   UNL     1       3.724   5.378  17.888  0.00  0.00    +0.000 A 
ATOM      6  C   UNL     1       5.020   5.905  17.426  0.00  0.00    +0.000 A 
ATOM      7  C   UNL     1       5.595   7.088  17.888  0.00  0.00    +0.000 A 
ATOM      8  C   UNL     1       6.805   7.565  17.373  0.00  0.00    +0.000 A 
ATOM      9  C   UNL     1       7.506   6.780  16.453  0.00  0.00    +0.000 A 
ATOM     10  C   UNL     1       6.996   5.545  16.043  0.00  0.00    +0.000 A 
ATOM     11  C   UNL     1       5.762   5.098  16.529  0.00  0.00    +0.000 A 
ATOM     12  C   UNL     1       5.208   3.761  16.063  0.00  0.00    +0.000 C 
ATOM     13  C   UNL     1       4.353   3.063  17.135  0.00  0.00    +0.000 C 
ENDROOT
BRANCH   1  17
ATOM     14  C   UNL     1       1.563  10.031  19.135  0.00  0.00    +0.000 A 
ATOM     15  C   UNL     1       2.005   9.594  17.884  0.00  0.00    +0.000 A 
ATOM     16  C   UNL     1       2.397   8.258  17.694  0.00  0.00    +0.000 A 
ATOM     17  C   UNL     1       2.321   7.340  18.753  0.00  0.00    +0.000 A 
ATOM     18  C   UNL     1       1.934   7.799  20.018  0.00  0.00    +0.000 A 
ATOM     19  C   UNL     1       1.545   9.133  20.203  0.00  0.00    +0.000 A 
BRANCH  14  21
ATOM     20  C   UNL     1       0.741  12.511  19.479  0.00  0.00    +0.000 C 
ATOM     21  C   UNL     1       1.127  11.384  19.327  0.00  0.00    +0.000 C 
ENDBRANCH  14  21
ENDBRANCH   1  17
BRANCH   3  22
ATOM     22  C   UNL     1       1.437   2.571  18.488  0.00  0.00    +0.000 C 
ATOM     23  N   UNL     1       2.202   1.456  18.657  0.00  0.00    +0.000 N 
ATOM     24  O   UNL     1       0.211   2.483  18.446  0.00  0.00    +0.000 OA
ATOM     25  H   UNL     1       3.206   1.546  18.738  0.00  0.00    +0.000 HD
ATOM     26  H   UNL     1       1.737   0.569  18.788  0.00  0.00    +0.000 HD
ENDBRANCH   3  22
BRANCH   8  27
ATOM     27  N   UNL     1       7.364   8.812  17.738  0.00  0.00    +0.000 N 
ATOM     28  C   UNL     1       8.439   9.009  18.587  0.00  0.00    +0.000 C 
ATOM     29  O   UNL     1       9.066   8.131  19.170  0.00  0.00    +0.000 OA
ATOM     30  H   UNL     1       6.885   9.631  17.380  0.00  0.00    +0.000 HD
BRANCH  28  31
ATOM     31  C   UNL     1       8.925  10.390  18.788  0.00  0.00    +0.000 A 
ATOM     32  C   UNL     1       9.873  10.582  19.805  0.00  0.00    +0.000 A 
ATOM     33  C   UNL     1      10.368  11.853  20.071  0.00  0.00    +0.000 A 
ATOM     34  C   UNL     1       9.894  12.905  19.311  0.00  0.00    +0.000 A 
ATOM     35  N   UNL     1       8.975  12.766  18.329  0.00  0.00    +0.000 NA
ATOM     36  C   UNL     1       8.505  11.515  18.096  0.00  0.00    +0.000 A 
ATOM     37 CL   UNL     1       7.304  11.503  16.862  0.00  0.00    +0.000 Cl
ENDBRANCH  28  31
ENDBRANCH   8  27
TORSDOF 5
ENDMDL
MODEL 6
REMARK VINA RESULT:      -7.2      6.211      9.998
REMARK  Name = 
REMARK  5 active torsions:
REMARK  status: ('A' for Active; 'I' for Inactive)
REMARK    1  A    between atoms: C_2  and  C_3
REMARK    2  A    between atoms: C_6  and  N_7
REMARK    3  A    between atoms: C_9  and  C_10
REMARK    4  A    between atoms: C_17  and  N_18
REMARK    5  A    between atoms: C_19  and  C_21
REMARK                            x       y       z     vdW  Elec       q    Type
REMARK                         _______ _______ _______ _____ _____    ______ ____
ROOT
ATOM      1  N   UNL     1      -2.568  12.691  22.197  0.00  0.00    +0.000 N 
ATOM      2  N   UNL     1      -3.887  12.320  22.334  0.00  0.00    +0.000 NA
ATOM      3  C   UNL     1      -4.379  13.104  23.318  0.00  0.00    +0.000 A 
ATOM      4  C   UNL     1      -3.426  14.066  23.707  0.00  0.00    +0.000 A 
ATOM      5  C   UNL     1      -2.287  13.822  22.963  0.00  0.00    +0.000 A 
ATOM      6  C   UNL     1      -1.121  14.716  23.049  0.00  0.00    +0.000 A 
ATOM      7  C   UNL     1      -0.146  14.835  22.058  0.00  0.00    +0.000 A 
ATOM      8  C   UNL     1       0.969  15.663  22.221  0.00  0.00    +0.000 A 
ATOM      9  C   UNL     1       1.050  16.474  23.357  0.00  0.00    +0.000 A 
ATOM     10  C   UNL     1       0.041  16.443  24.322  0.00  0.00    +0.000 A 
ATOM     11  C   UNL     1      -1.048  15.577  24.173  0.00  0.00    +0.000 A 
ATOM     12  C   UNL     1      -2.133  15.539  25.238  0.00  0.00    +0.000 C 
ATOM     13  C   UNL     1      -3.521  15.202  24.664  0.00  0.00    +0.000 C 
ENDROOT
BRANCH   1  17
ATOM     14  C   UNL     1       0.072  10.481  19.703  0.00  0.00    +0.000 A 
ATOM     15  C   UNL     1      -0.978  11.218  19.149  0.00  0.00    +0.000 A 
ATOM     16  C   UNL     1      -1.876  11.912  19.978  0.00  0.00    +0.000 A 
ATOM     17  C   UNL     1      -1.709  11.899  21.371  0.00  0.00    +0.000 A 
ATOM     18  C   UNL     1      -0.690  11.111  21.922  0.00  0.00    +0.000 A 
ATOM     19  C   UNL     1       0.202  10.419  21.091  0.00  0.00    +0.000 A 
BRANCH  14  21
ATOM     20  C   UNL     1       1.805   9.249  18.147  0.00  0.00    +0.000 C 
ATOM     21  C   UNL     1       1.014   9.800  18.863  0.00  0.00    +0.000 C 
ENDBRANCH  14  21
ENDBRANCH   1  17
BRANCH   3  22
ATOM     22  C   UNL     1      -5.737  12.959  23.869  0.00  0.00    +0.000 C 
ATOM     23  N   UNL     1      -5.955  11.846  24.624  0.00  0.00    +0.000 N 
ATOM     24  O   UNL     1      -6.637  13.781  23.701  0.00  0.00    +0.000 OA
ATOM     25  H   UNL     1      -5.195  11.201  24.795  0.00  0.00    +0.000 HD
ATOM     26  H   UNL     1      -6.853  11.737  25.074  0.00  0.00    +0.000 HD
ENDBRANCH   3  22
BRANCH   8  27
ATOM     27  N   UNL     1       2.029  15.727  21.286  0.00  0.00    +0.000 N 
ATOM     28  C   UNL     1       3.074  14.827  21.174  0.00  0.00    +0.000 C 
ATOM     29  O   UNL     1       3.255  13.840  21.879  0.00  0.00    +0.000 OA
ATOM     30  H   UNL     1       2.039  16.545  20.688  0.00  0.00    +0.000 HD
BRANCH  28  31
ATOM     31  C   UNL     1       4.049  15.025  20.081  0.00  0.00    +0.000 A 
ATOM     32  C   UNL     1       3.577  14.827  18.774  0.00  0.00    +0.000 A 
ATOM     33  C   UNL     1       4.435  14.976  17.690  0.00  0.00    +0.000 A 
ATOM     34  C   UNL     1       5.750  15.315  17.945  0.00  0.00    +0.000 A 
ATOM     35  N   UNL     1       6.247  15.505  19.188  0.00  0.00    +0.000 NA
ATOM     36  C   UNL     1       5.388  15.347  20.227  0.00  0.00    +0.000 A 
ATOM     37 CL   UNL     1       6.175  15.563  21.743  0.00  0.00    +0.000 Cl
ENDBRANCH  28  31
ENDBRANCH   8  27
TORSDOF 5
ENDMDL
MODEL 7
REMARK VINA RESULT:      -7.2      5.807      9.735
REMARK  Name = 
REMARK  5 active torsions:
REMARK  status: ('A' for Active; 'I' for Inactive)
REMARK    1  A    between atoms: C_2  and  C_3
REMARK    2  A    between atoms: C_6  and  N_7
REMARK    3  A    between atoms: C_9  and  C_10
REMARK    4  A    between atoms: C_17  and  N_18
REMARK    5  A    between atoms: C_19  and  C_21
REMARK                            x       y       z     vdW  Elec       q    Type
REMARK                         _______ _______ _______ _____ _____    ______ ____
ROOT
ATOM      1  N   UNL     1      -3.309  12.638  19.899  0.00  0.00    +0.000 N 
ATOM      2  N   UNL     1      -4.119  13.748  19.986  0.00  0.00    +0.000 NA
ATOM      3  C   UNL     1      -4.186  14.040  21.302  0.00  0.00    +0.000 A 
ATOM      4  C   UNL     1      -3.313  13.215  22.037  0.00  0.00    +0.000 A 
ATOM      5  C   UNL     1      -2.728  12.348  21.133  0.00  0.00    +0.000 A 
ATOM      6  C   UNL     1      -1.676  11.408  21.557  0.00  0.00    +0.000 A 
ATOM      7  C   UNL     1      -0.736  10.843  20.697  0.00  0.00    +0.000 A 
ATOM      8  C   UNL     1       0.207   9.913  21.150  0.00  0.00    +0.000 A 
ATOM      9  C   UNL     1       0.276   9.630  22.517  0.00  0.00    +0.000 A 
ATOM     10  C   UNL     1      -0.595  10.254  23.414  0.00  0.00    +0.000 A 
ATOM     11  C   UNL     1      -1.565  11.147  22.946  0.00  0.00    +0.000 A 
ATOM     12  C   UNL     1      -2.520  11.807  23.928  0.00  0.00    +0.000 C 
ATOM     13  C   UNL     1      -2.955  13.214  23.483  0.00  0.00    +0.000 C 
ENDROOT
BRANCH   1  17
ATOM     14  C   UNL     1      -3.073  10.739  16.103  0.00  0.00    +0.000 A 
ATOM     15  C   UNL     1      -4.276  10.759  16.814  0.00  0.00    +0.000 A 
ATOM     16  C   UNL     1      -4.342  11.349  18.087  0.00  0.00    +0.000 A 
ATOM     17  C   UNL     1      -3.205  11.953  18.647  0.00  0.00    +0.000 A 
ATOM     18  C   UNL     1      -1.989  11.876  17.955  0.00  0.00    +0.000 A 
ATOM     19  C   UNL     1      -1.929  11.285  16.686  0.00  0.00    +0.000 A 
BRANCH  14  21
ATOM     20  C   UNL     1      -2.942   9.714  13.679  0.00  0.00    +0.000 C 
ATOM     21  C   UNL     1      -3.008  10.171  14.787  0.00  0.00    +0.000 C 
ENDBRANCH  14  21
ENDBRANCH   1  17
BRANCH   3  22
ATOM     22  C   UNL     1      -5.048  15.098  21.856  0.00  0.00    +0.000 C 
ATOM     23  N   UNL     1      -6.194  14.673  22.459  0.00  0.00    +0.000 N 
ATOM     24  O   UNL     1      -4.775  16.296  21.818  0.00  0.00    +0.000 OA
ATOM     25  H   UNL     1      -6.386  13.682  22.527  0.00  0.00    +0.000 HD
ATOM     26  H   UNL     1      -6.785  15.358  22.908  0.00  0.00    +0.000 HD
ENDBRANCH   3  22
BRANCH   8  27
ATOM     27  N   UNL     1       1.105   9.239  20.289  0.00  0.00    +0.000 N 
ATOM     28  C   UNL     1       1.465   7.906  20.367  0.00  0.00    +0.000 C 
ATOM     29  O   UNL     1       1.074   7.101  21.205  0.00  0.00    +0.000 OA
ATOM     30  H   UNL     1       1.561   9.816  19.591  0.00  0.00    +0.000 HD
BRANCH  28  31
ATOM     31  C   UNL     1       2.365   7.366  19.326  0.00  0.00    +0.000 A 
ATOM     32  C   UNL     1       2.997   6.146  19.612  0.00  0.00    +0.000 A 
ATOM     33  C   UNL     1       3.872   5.577  18.694  0.00  0.00    +0.000 A 
ATOM     34  C   UNL     1       4.097   6.253  17.510  0.00  0.00    +0.000 A 
ATOM     35  N   UNL     1       3.517   7.433  17.198  0.00  0.00    +0.000 NA
ATOM     36  C   UNL     1       2.672   7.967  18.116  0.00  0.00    +0.000 A 
ATOM     37 CL   UNL     1       2.058   9.493  17.608  0.00  0.00    +0.000 Cl
ENDBRANCH  28  31
ENDBRANCH   8  27
TORSDOF 5
ENDMDL
MODEL 8
REMARK VINA RESULT:      -7.2      6.394     10.223
REMARK  Name = 
REMARK  5 active torsions:
REMARK  status: ('A' for Active; 'I' for Inactive)
REMARK    1  A    between atoms: C_2  and  C_3
REMARK    2  A    between atoms: C_6  and  N_7
REMARK    3  A    between atoms: C_9  and  C_10
REMARK    4  A    between atoms: C_17  and  N_18
REMARK    5  A    between atoms: C_19  and  C_21
REMARK                            x       y       z     vdW  Elec       q    Type
REMARK                         _______ _______ _______ _____ _____    ______ ____
ROOT
ATOM      1  N   UNL     1      -2.506  12.718  22.250  0.00  0.00    +0.000 N 
ATOM      2  N   UNL     1      -3.802  12.261  22.333  0.00  0.00    +0.000 NA
ATOM      3  C   UNL     1      -4.385  13.011  23.292  0.00  0.00    +0.000 A 
ATOM      4  C   UNL     1      -3.516  14.034  23.717  0.00  0.00    +0.000 A 
ATOM      5  C   UNL     1      -2.333  13.867  23.022  0.00  0.00    +0.000 A 
ATOM      6  C   UNL     1      -1.233  14.837  23.154  0.00  0.00    +0.000 A 
ATOM      7  C   UNL     1      -0.229  15.019  22.204  0.00  0.00    +0.000 A 
ATOM      8  C   UNL     1       0.821  15.920  22.409  0.00  0.00    +0.000 A 
ATOM      9  C   UNL     1       0.801  16.735  23.545  0.00  0.00    +0.000 A 
ATOM     10  C   UNL     1      -0.244  16.638  24.467  0.00  0.00    +0.000 A 
ATOM     11  C   UNL     1      -1.265  15.701  24.277  0.00  0.00    +0.000 A 
ATOM     12  C   UNL     1      -2.389  15.592  25.296  0.00  0.00    +0.000 C 
ATOM     13  C   UNL     1      -3.726  15.163  24.666  0.00  0.00    +0.000 C 
ENDROOT
BRANCH   1  17
ATOM     14  C   UNL     1       0.200  10.398  19.933  0.00  0.00    +0.000 A 
ATOM     15  C   UNL     1       0.224  10.334  21.329  0.00  0.00    +0.000 A 
ATOM     16  C   UNL     1      -0.642  11.133  22.094  0.00  0.00    +0.000 A 
ATOM     17  C   UNL     1      -1.563  11.985  21.463  0.00  0.00    +0.000 A 
ATOM     18  C   UNL     1      -1.540  12.088  20.066  0.00  0.00    +0.000 A 
ATOM     19  C   UNL     1      -0.674  11.288  19.308  0.00  0.00    +0.000 A 
BRANCH  14  21
ATOM     20  C   UNL     1       1.759   8.860  18.468  0.00  0.00    +0.000 C 
ATOM     21  C   UNL     1       1.054   9.557  19.146  0.00  0.00    +0.000 C 
ENDBRANCH  14  21
ENDBRANCH   1  17
BRANCH   3  22
ATOM     22  C   UNL     1      -5.753  12.777  23.788  0.00  0.00    +0.000 C 
ATOM     23  N   UNL     1      -6.712  13.611  23.297  0.00  0.00    +0.000 N 
ATOM     24  O   UNL     1      -6.053  11.881  24.575  0.00  0.00    +0.000 OA
ATOM     25  H   UNL     1      -6.462  14.313  22.614  0.00  0.00    +0.000 HD
ATOM     26  H   UNL     1      -7.673  13.447  23.560  0.00  0.00    +0.000 HD
ENDBRANCH   3  22
BRANCH   8  27
ATOM     27  N   UNL     1       1.913  16.053  21.519  0.00  0.00    +0.000 N 
ATOM     28  C   UNL     1       3.072  15.298  21.530  0.00  0.00    +0.000 C 
ATOM     29  O   UNL     1       3.343  14.404  22.324  0.00  0.00    +0.000 OA
ATOM     30  H   UNL     1       1.847  16.815  20.854  0.00  0.00    +0.000 HD
BRANCH  28  31
ATOM     31  C   UNL     1       4.070  15.540  20.467  0.00  0.00    +0.000 A 
ATOM     32  C   UNL     1       5.042  16.519  20.727  0.00  0.00    +0.000 A 
ATOM     33  C   UNL     1       6.006  16.820  19.773  0.00  0.00    +0.000 A 
ATOM     34  C   UNL     1       5.970  16.133  18.575  0.00  0.00    +0.000 A 
ATOM     35  N   UNL     1       5.047  15.189  18.281  0.00  0.00    +0.000 NA
ATOM     36  C   UNL     1       4.114  14.921  19.228  0.00  0.00    +0.000 A 
ATOM     37 CL   UNL     1       2.976  13.746  18.690  0.00  0.00    +0.000 Cl
ENDBRANCH  28  31
ENDBRANCH   8  27
TORSDOF 5
ENDMDL
MODEL 9
REMARK VINA RESULT:      -7.0      6.633     10.460
REMARK  Name = 
REMARK  5 active torsions:
REMARK  status: ('A' for Active; 'I' for Inactive)
REMARK    1  A    between atoms: C_2  and  C_3
REMARK    2  A    between atoms: C_6  and  N_7
REMARK    3  A    between atoms: C_9  and  C_10
REMARK    4  A    between atoms: C_17  and  N_18
REMARK    5  A    between atoms: C_19  and  C_21
REMARK                            x       y       z     vdW  Elec       q    Type
REMARK                         _______ _______ _______ _____ _____    ______ ____
ROOT
ATOM      1  N   UNL     1      -2.854  12.903  22.024  0.00  0.00    +0.000 N 
ATOM      2  N   UNL     1      -4.155  12.454  22.069  0.00  0.00    +0.000 NA
ATOM      3  C   UNL     1      -4.726  13.111  23.100  0.00  0.00    +0.000 A 
ATOM      4  C   UNL     1      -3.844  14.078  23.620  0.00  0.00    +0.000 A 
ATOM      5  C   UNL     1      -2.665  13.967  22.906  0.00  0.00    +0.000 A 
ATOM      6  C   UNL     1      -1.554  14.908  23.127  0.00  0.00    +0.000 A 
ATOM      7  C   UNL     1      -0.552  15.172  22.195  0.00  0.00    +0.000 A 
ATOM      8  C   UNL     1       0.509  16.037  22.484  0.00  0.00    +0.000 A 
ATOM      9  C   UNL     1       0.503  16.736  23.695  0.00  0.00    +0.000 A 
ATOM     10  C   UNL     1      -0.540  16.559  24.608  0.00  0.00    +0.000 A 
ATOM     11  C   UNL     1      -1.573  15.657  24.331  0.00  0.00    +0.000 A 
ATOM     12  C   UNL     1      -2.693  15.459  25.339  0.00  0.00    +0.000 C 
ATOM     13  C   UNL     1      -4.037  15.109  24.677  0.00  0.00    +0.000 C 
ENDROOT
BRANCH   1  17
ATOM     14  C   UNL     1      -0.172  10.790  19.492  0.00  0.00    +0.000 A 
ATOM     15  C   UNL     1      -0.056  10.700  20.882  0.00  0.00    +0.000 A 
ATOM     16  C   UNL     1      -0.916  11.433  21.717  0.00  0.00    +0.000 A 
ATOM     17  C   UNL     1      -1.922  12.241  21.164  0.00  0.00    +0.000 A 
ATOM     18  C   UNL     1      -1.994  12.372  19.771  0.00  0.00    +0.000 A 
ATOM     19  C   UNL     1      -1.133  11.639  18.942  0.00  0.00    +0.000 A 
BRANCH  14  21
ATOM     20  C   UNL     1       1.389   9.351  17.930  0.00  0.00    +0.000 C 
ATOM     21  C   UNL     1       0.677  10.016  18.634  0.00  0.00    +0.000 C 
ENDBRANCH  14  21
ENDBRANCH   1  17
BRANCH   3  22
ATOM     22  C   UNL     1      -6.094  12.844  23.576  0.00  0.00    +0.000 C 
ATOM     23  N   UNL     1      -7.044  13.737  23.183  0.00  0.00    +0.000 N 
ATOM     24  O   UNL     1      -6.403  11.873  24.266  0.00  0.00    +0.000 OA
ATOM     25  H   UNL     1      -6.788  14.505  22.576  0.00  0.00    +0.000 HD
ATOM     26  H   UNL     1      -8.006  13.559  23.433  0.00  0.00    +0.000 HD
ENDBRANCH   3  22
BRANCH   8  27
ATOM     27  N   UNL     1       1.599  16.246  21.606  0.00  0.00    +0.000 N 
ATOM     28  C   UNL     1       2.837  15.633  21.681  0.00  0.00    +0.000 C 
ATOM     29  O   UNL     1       3.190  14.824  22.531  0.00  0.00    +0.000 OA
ATOM     30  H   UNL     1       1.461  16.956  20.896  0.00  0.00    +0.000 HD
BRANCH  28  31
ATOM     31  C   UNL     1       3.825  15.929  20.622  0.00  0.00    +0.000 A 
ATOM     32  C   UNL     1       4.254  14.845  19.841  0.00  0.00    +0.000 A 
ATOM     33  C   UNL     1       5.195  15.034  18.836  0.00  0.00    +0.000 A 
ATOM     34  C   UNL     1       5.689  16.310  18.643  0.00  0.00    +0.000 A 
ATOM     35  N   UNL     1       5.311  17.380  19.378  0.00  0.00    +0.000 NA
ATOM     36  C   UNL     1       4.395  17.164  20.356  0.00  0.00    +0.000 A 
ATOM     37 CL   UNL     1       4.057  18.600  21.242  0.00  0.00    +0.000 Cl
ENDBRANCH  28  31
ENDBRANCH   8  27
TORSDOF 5
ENDMDL
