MODEL 1
REMARK VINA RESULT:      -7.4      0.000      0.000
REMARK  Name = 
REMARK  11 active torsions:
REMARK  status: ('A' for Active; 'I' for Inactive)
REMARK    1  A    between atoms: C_1  and  C_2
REMARK    2  A    between atoms: C_2  and  C_3
REMARK    3  A    between atoms: C_2  and  N_18
REMARK    4  A    between atoms: N_5  and  N_6
REMARK    5  A    between atoms: C_7  and  C_8
REMARK    6  A    between atoms: C_11  and  N_12
REMARK    7  A    between atoms: N_12  and  C_13
REMARK    8  A    between atoms: N_12  and  C_14
REMARK    9  A    between atoms: N_18  and  C_19
REMARK   10  A    between atoms: N_18  and  S_25
REMARK   11  A    between atoms: S_25  and  C_26
REMARK                            x       y       z     vdW  Elec       q    Type
REMARK                         _______ _______ _______ _____ _____    ______ ____
ROOT
ATOM      1  C   UNL     1      -0.044   9.788  21.991  0.00  0.00    +0.000 C 
ATOM      2  O   UNL     1      -0.744   8.940  22.545  0.00  0.00    +0.000 OA
ATOM      3  N   UNL     1       1.116   9.496  21.286  0.00  0.00    +0.000 N 
ATOM      4  H   UNL     1       1.634  10.225  20.809  0.00  0.00    +0.000 HD
ENDROOT
BRANCH   1   6
ATOM      5  C   UNL     1      -1.614  11.521  22.945  0.00  0.00    +0.000 C 
ATOM      6  C   UNL     1      -0.366  11.277  22.096  0.00  0.00    +0.000 C 
BRANCH   6   7
ATOM      7  N   UNL     1      -0.412  11.956  20.767  0.00  0.00    +0.000 N 
BRANCH   7   8
ATOM      8  C   UNL     1      -1.364  11.626  19.754  0.00  0.00    +0.000 A 
ATOM      9  C   UNL     1      -2.639  12.197  19.748  0.00  0.00    +0.000 A 
ATOM     10  C   UNL     1      -3.544  11.880  18.735  0.00  0.00    +0.000 A 
ATOM     11  C   UNL     1      -3.188  10.967  17.745  0.00  0.00    +0.000 A 
ATOM     12  C   UNL     1      -1.930  10.365  17.771  0.00  0.00    +0.000 A 
ATOM     13  C   UNL     1      -1.017  10.697  18.773  0.00  0.00    +0.000 A 
ENDBRANCH   7   8
BRANCH   7  14
ATOM     14  S   UNL     1       0.835  13.028  20.353  0.00  0.00    +0.000 S 
ATOM     15  C   UNL     1       0.001  14.243  19.353  0.00  0.00    +0.000 C 
ATOM     16  O   UNL     1       1.292  13.701  21.552  0.00  0.00    +0.000 OA
ATOM     17  O   UNL     1       1.779  12.326  19.508  0.00  0.00    +0.000 OA
ENDBRANCH   7  14
ENDBRANCH   6   7
ENDBRANCH   1   6
BRANCH   3  18
ATOM     18  N   UNL     1       1.550   8.209  21.217  0.00  0.00    +0.000 NA
ATOM     19  C   UNL     1       1.881   7.783  20.041  0.00  0.00    +0.000 C 
BRANCH  19  20
ATOM     20  C   UNL     1       2.331   6.394  19.822  0.00  0.00    +0.000 A 
ATOM     21  C   UNL     1       3.351   6.108  18.918  0.00  0.00    +0.000 A 
ATOM     22  C   UNL     1       3.778   4.784  18.752  0.00  0.00    +0.000 A 
ATOM     23  C   UNL     1       3.237   3.697  19.478  0.00  0.00    +0.000 A 
ATOM     24  C   UNL     1       2.196   4.031  20.381  0.00  0.00    +0.000 A 
ATOM     25 BR   UNL     1       1.378   2.796  21.588  0.00  0.00    +0.000 Br
ATOM     26  C   UNL     1       1.746   5.357  20.540  0.00  0.00    +0.000 A 
BRANCH  23  27
ATOM     27  N   UNL     1       3.768   2.425  19.289  0.00  0.00    +0.000 N 
ATOM     28  C   UNL     1       4.759   1.865  20.208  0.00  0.00    +0.000 C 
ATOM     29  C   UNL     1       3.558   1.641  18.077  0.00  0.00    +0.000 C 
ENDBRANCH  23  27
ENDBRANCH  19  20
ENDBRANCH   3  18
TORSDOF 7
ENDMDL
MODEL 2
REMARK VINA RESULT:      -7.4      1.359      1.807
REMARK  Name = 
REMARK  11 active torsions:
REMARK  status: ('A' for Active; 'I' for Inactive)
REMARK    1  A    between atoms: C_1  and  C_2
REMARK    2  A    between atoms: C_2  and  C_3
REMARK    3  A    between atoms: C_2  and  N_18
REMARK    4  A    between atoms: N_5  and  N_6
REMARK    5  A    between atoms: C_7  and  C_8
REMARK    6  A    between atoms: C_11  and  N_12
REMARK    7  A    between atoms: N_12  and  C_13
REMARK    8  A    between atoms: N_12  and  C_14
REMARK    9  A    between atoms: N_18  and  C_19
REMARK   10  A    between atoms: N_18  and  S_25
REMARK   11  A    between atoms: S_25  and  C_26
REMARK                            x       y       z     vdW  Elec       q    Type
REMARK                         _______ _______ _______ _____ _____    ______ ____
ROOT
ATOM      1  C   UNL     1      -0.134  10.084  21.675  0.00  0.00    +0.000 C 
ATOM      2  O   UNL     1      -0.710   9.282  22.410  0.00  0.00    +0.000 OA
ATOM      3  N   UNL     1       0.954   9.758  20.875  0.00  0.00    +0.000 N 
ATOM      4  H   UNL     1       1.367  10.442  20.252  0.00  0.00    +0.000 HD
ENDROOT
BRANCH   1   6
ATOM      5  C   UNL     1      -1.710  11.842  22.568  0.00  0.00    +0.000 C 
ATOM      6  C   UNL     1      -0.534  11.556  21.633  0.00  0.00    +0.000 C 
BRANCH   6   7
ATOM      7  N   UNL     1      -0.746  12.062  20.245  0.00  0.00    +0.000 N 
BRANCH   7   8
ATOM      8  C   UNL     1      -1.766  11.560  19.378  0.00  0.00    +0.000 A 
ATOM      9  C   UNL     1      -3.044  12.123  19.366  0.00  0.00    +0.000 A 
ATOM     10  C   UNL     1      -4.018  11.635  18.494  0.00  0.00    +0.000 A 
ATOM     11  C   UNL     1      -3.725  10.562  17.656  0.00  0.00    +0.000 A 
ATOM     12  C   UNL     1      -2.461   9.972  17.694  0.00  0.00    +0.000 A 
ATOM     13  C   UNL     1      -1.481  10.473  18.552  0.00  0.00    +0.000 A 
ENDBRANCH   7   8
BRANCH   7  14
ATOM     14  S   UNL     1       0.388  13.135  19.583  0.00  0.00    +0.000 S 
ATOM     15  C   UNL     1       0.397  14.477  20.755  0.00  0.00    +0.000 C 
ATOM     16  O   UNL     1       1.699  12.520  19.628  0.00  0.00    +0.000 OA
ATOM     17  O   UNL     1      -0.137  13.639  18.331  0.00  0.00    +0.000 OA
ENDBRANCH   7  14
ENDBRANCH   6   7
ENDBRANCH   1   6
BRANCH   3  18
ATOM     18  N   UNL     1       1.457   8.495  20.913  0.00  0.00    +0.000 NA
ATOM     19  C   UNL     1       1.821   7.994  19.777  0.00  0.00    +0.000 C 
BRANCH  19  20
ATOM     20  C   UNL     1       2.347   6.618  19.675  0.00  0.00    +0.000 A 
ATOM     21  C   UNL     1       1.927   5.625  20.556  0.00  0.00    +0.000 A 
ATOM     22  C   UNL     1       2.420   4.321  20.418  0.00  0.00    +0.000 A 
ATOM     23  C   UNL     1       3.325   3.938  19.401  0.00  0.00    +0.000 A 
ATOM     24  C   UNL     1       3.733   4.980  18.531  0.00  0.00    +0.000 A 
ATOM     25 BR   UNL     1       4.836   4.729  16.990  0.00  0.00    +0.000 Br
ATOM     26  C   UNL     1       3.259   6.300  18.675  0.00  0.00    +0.000 A 
BRANCH  23  27
ATOM     27  N   UNL     1       3.712   2.606  19.305  0.00  0.00    +0.000 N 
ATOM     28  C   UNL     1       3.040   1.676  18.398  0.00  0.00    +0.000 C 
ATOM     29  C   UNL     1       4.649   1.975  20.229  0.00  0.00    +0.000 C 
ENDBRANCH  23  27
ENDBRANCH  19  20
ENDBRANCH   3  18
TORSDOF 7
ENDMDL
MODEL 3
REMARK VINA RESULT:      -7.3      0.863      1.522
REMARK  Name = 
REMARK  11 active torsions:
REMARK  status: ('A' for Active; 'I' for Inactive)
REMARK    1  A    between atoms: C_1  and  C_2
REMARK    2  A    between atoms: C_2  and  C_3
REMARK    3  A    between atoms: C_2  and  N_18
REMARK    4  A    between atoms: N_5  and  N_6
REMARK    5  A    between atoms: C_7  and  C_8
REMARK    6  A    between atoms: C_11  and  N_12
REMARK    7  A    between atoms: N_12  and  C_13
REMARK    8  A    between atoms: N_12  and  C_14
REMARK    9  A    between atoms: N_18  and  C_19
REMARK   10  A    between atoms: N_18  and  S_25
REMARK   11  A    between atoms: S_25  and  C_26
REMARK                            x       y       z     vdW  Elec       q    Type
REMARK                         _______ _______ _______ _____ _____    ______ ____
ROOT
ATOM      1  C   UNL     1      -0.039   9.924  21.506  0.00  0.00    +0.000 C 
ATOM      2  O   UNL     1      -0.776   9.092  22.035  0.00  0.00    +0.000 OA
ATOM      3  N   UNL     1       1.171   9.614  20.901  0.00  0.00    +0.000 N 
ATOM      4  H   UNL     1       1.722  10.329  20.438  0.00  0.00    +0.000 HD
ENDROOT
BRANCH   1   6
ATOM      5  C   UNL     1      -1.514  11.713  22.507  0.00  0.00    +0.000 C 
ATOM      6  C   UNL     1      -0.372  11.414  21.536  0.00  0.00    +0.000 C 
BRANCH   6   7
ATOM      7  N   UNL     1      -0.587  11.987  20.174  0.00  0.00    +0.000 N 
BRANCH   7   8
ATOM      8  C   UNL     1      -1.472  11.407  19.214  0.00  0.00    +0.000 A 
ATOM      9  C   UNL     1      -1.024  10.439  18.312  0.00  0.00    +0.000 A 
ATOM     10  C   UNL     1      -1.910   9.866  17.399  0.00  0.00    +0.000 A 
ATOM     11  C   UNL     1      -3.239  10.283  17.365  0.00  0.00    +0.000 A 
ATOM     12  C   UNL     1      -3.680  11.278  18.238  0.00  0.00    +0.000 A 
ATOM     13  C   UNL     1      -2.798  11.837  19.165  0.00  0.00    +0.000 A 
ENDBRANCH   7   8
BRANCH   7  14
ATOM     14  S   UNL     1       0.400  13.267  19.660  0.00  0.00    +0.000 S 
ATOM     15  C   UNL     1       1.847  12.431  19.042  0.00  0.00    +0.000 C 
ATOM     16  O   UNL     1      -0.230  13.921  18.531  0.00  0.00    +0.000 OA
ATOM     17  O   UNL     1       0.792  14.037  20.822  0.00  0.00    +0.000 OA
ENDBRANCH   7  14
ENDBRANCH   6   7
ENDBRANCH   1   6
BRANCH   3  18
ATOM     18  N   UNL     1       1.613   8.328  20.908  0.00  0.00    +0.000 NA
ATOM     19  C   UNL     1       1.968   7.841  19.763  0.00  0.00    +0.000 C 
BRANCH  19  20
ATOM     20  C   UNL     1       2.428   6.445  19.628  0.00  0.00    +0.000 A 
ATOM     21  C   UNL     1       3.475   6.118  18.771  0.00  0.00    +0.000 A 
ATOM     22  C   UNL     1       3.912   4.790  18.683  0.00  0.00    +0.000 A 
ATOM     23  C   UNL     1       3.352   3.738  19.446  0.00  0.00    +0.000 A 
ATOM     24  C   UNL     1       2.284   4.112  20.300  0.00  0.00    +0.000 A 
ATOM     25 BR   UNL     1       1.434   2.935  21.542  0.00  0.00    +0.000 Br
ATOM     26  C   UNL     1       1.825   5.443  20.379  0.00  0.00    +0.000 A 
BRANCH  23  27
ATOM     27  N   UNL     1       3.892   2.461  19.337  0.00  0.00    +0.000 N 
ATOM     28  C   UNL     1       3.465   1.535  18.289  0.00  0.00    +0.000 C 
ATOM     29  C   UNL     1       4.748   1.863  20.357  0.00  0.00    +0.000 C 
ENDBRANCH  23  27
ENDBRANCH  19  20
ENDBRANCH   3  18
TORSDOF 7
ENDMDL
MODEL 4
REMARK VINA RESULT:      -7.1      4.169      9.378
REMARK  Name = 
REMARK  11 active torsions:
REMARK  status: ('A' for Active; 'I' for Inactive)
REMARK    1  A    between atoms: C_1  and  C_2
REMARK    2  A    between atoms: C_2  and  C_3
REMARK    3  A    between atoms: C_2  and  N_18
REMARK    4  A    between atoms: N_5  and  N_6
REMARK    5  A    between atoms: C_7  and  C_8
REMARK    6  A    between atoms: C_11  and  N_12
REMARK    7  A    between atoms: N_12  and  C_13
REMARK    8  A    between atoms: N_12  and  C_14
REMARK    9  A    between atoms: N_18  and  C_19
REMARK   10  A    between atoms: N_18  and  S_25
REMARK   11  A    between atoms: S_25  and  C_26
REMARK                            x       y       z     vdW  Elec       q    Type
REMARK                         _______ _______ _______ _____ _____    ______ ____
ROOT
ATOM      1  C   UNL     1       3.229   6.555  19.088  0.00  0.00    +0.000 C 
ATOM      2  O   UNL     1       3.272   7.344  18.145  0.00  0.00    +0.000 OA
ATOM      3  N   UNL     1       2.445   6.741  20.219  0.00  0.00    +0.000 N 
ATOM      4  H   UNL     1       2.408   6.041  20.950  0.00  0.00    +0.000 HD
ENDROOT
BRANCH   1   6
ATOM      5  C   UNL     1       5.574   5.669  19.388  0.00  0.00    +0.000 C 
ATOM      6  C   UNL     1       4.111   5.310  19.125  0.00  0.00    +0.000 C 
BRANCH   6   7
ATOM      7  N   UNL     1       3.922   4.429  17.935  0.00  0.00    +0.000 N 
BRANCH   7   8
ATOM      8  C   UNL     1       4.738   4.513  16.764  0.00  0.00    +0.000 A 
ATOM      9  C   UNL     1       5.520   3.432  16.351  0.00  0.00    +0.000 A 
ATOM     10  C   UNL     1       6.289   3.526  15.190  0.00  0.00    +0.000 A 
ATOM     11  C   UNL     1       6.304   4.712  14.460  0.00  0.00    +0.000 A 
ATOM     12  C   UNL     1       5.555   5.807  14.892  0.00  0.00    +0.000 A 
ATOM     13  C   UNL     1       4.769   5.706  16.042  0.00  0.00    +0.000 A 
ENDBRANCH   7   8
BRANCH   7  14
ATOM     14  S   UNL     1       2.563   3.417  17.874  0.00  0.00    +0.000 S 
ATOM     15  C   UNL     1       3.206   1.851  18.428  0.00  0.00    +0.000 C 
ATOM     16  O   UNL     1       1.603   3.860  18.864  0.00  0.00    +0.000 OA
ATOM     17  O   UNL     1       2.164   3.271  16.489  0.00  0.00    +0.000 OA
ENDBRANCH   7  14
ENDBRANCH   6   7
ENDBRANCH   1   6
BRANCH   3  18
ATOM     18  N   UNL     1       1.696   7.871  20.334  0.00  0.00    +0.000 NA
ATOM     19  C   UNL     1       1.169   8.087  21.496  0.00  0.00    +0.000 C 
BRANCH  19  20
ATOM     20  C   UNL     1       0.302   9.257  21.744  0.00  0.00    +0.000 A 
ATOM     21  C   UNL     1      -0.283   9.461  22.991  0.00  0.00    +0.000 A 
ATOM     22  C   UNL     1      -1.077  10.594  23.207  0.00  0.00    +0.000 A 
ATOM     23  C   UNL     1      -1.312  11.578  22.218  0.00  0.00    +0.000 A 
ATOM     24  C   UNL     1      -0.705  11.327  20.961  0.00  0.00    +0.000 A 
ATOM     25 BR   UNL     1      -0.734  12.545  19.488  0.00  0.00    +0.000 Br
ATOM     26  C   UNL     1       0.079  10.179  20.728  0.00  0.00    +0.000 A 
BRANCH  23  27
ATOM     27  N   UNL     1      -2.064  12.701  22.544  0.00  0.00    +0.000 N 
ATOM     28  C   UNL     1      -1.469  13.852  23.220  0.00  0.00    +0.000 C 
ATOM     29  C   UNL     1      -3.519  12.747  22.443  0.00  0.00    +0.000 C 
ENDBRANCH  23  27
ENDBRANCH  19  20
ENDBRANCH   3  18
TORSDOF 7
ENDMDL
MODEL 5
REMARK VINA RESULT:      -7.1      6.971      9.832
REMARK  Name = 
REMARK  11 active torsions:
REMARK  status: ('A' for Active; 'I' for Inactive)
REMARK    1  A    between atoms: C_1  and  C_2
REMARK    2  A    between atoms: C_2  and  C_3
REMARK    3  A    between atoms: C_2  and  N_18
REMARK    4  A    between atoms: N_5  and  N_6
REMARK    5  A    between atoms: C_7  and  C_8
REMARK    6  A    between atoms: C_11  and  N_12
REMARK    7  A    between atoms: N_12  and  C_13
REMARK    8  A    between atoms: N_12  and  C_14
REMARK    9  A    between atoms: N_18  and  C_19
REMARK   10  A    between atoms: N_18  and  S_25
REMARK   11  A    between atoms: S_25  and  C_26
REMARK                            x       y       z     vdW  Elec       q    Type
REMARK                         _______ _______ _______ _____ _____    ______ ____
ROOT
ATOM      1  C   UNL     1       6.846   5.520  18.677  0.00  0.00    +0.000 C 
ATOM      2  O   UNL     1       7.007   5.545  19.897  0.00  0.00    +0.000 OA
ATOM      3  N   UNL     1       7.376   6.461  17.805  0.00  0.00    +0.000 N 
ATOM      4  H   UNL     1       7.253   6.372  16.803  0.00  0.00    +0.000 HD
ENDROOT
BRANCH   1   6
ATOM      5  C   UNL     1       6.058   4.537  16.489  0.00  0.00    +0.000 C 
ATOM      6  C   UNL     1       5.967   4.462  18.013  0.00  0.00    +0.000 C 
BRANCH   6   7
ATOM      7  N   UNL     1       4.564   4.469  18.523  0.00  0.00    +0.000 N 
BRANCH   7   8
ATOM      8  C   UNL     1       3.771   5.654  18.610  0.00  0.00    +0.000 A 
ATOM      9  C   UNL     1       3.049   5.958  19.767  0.00  0.00    +0.000 A 
ATOM     10  C   UNL     1       2.302   7.133  19.840  0.00  0.00    +0.000 A 
ATOM     11  C   UNL     1       2.248   7.991  18.743  0.00  0.00    +0.000 A 
ATOM     12  C   UNL     1       2.936   7.672  17.573  0.00  0.00    +0.000 A 
ATOM     13  C   UNL     1       3.700   6.506  17.507  0.00  0.00    +0.000 A 
ENDBRANCH   7   8
BRANCH   7  14
ATOM     14  S   UNL     1       3.940   3.054  19.218  0.00  0.00    +0.000 S 
ATOM     15  C   UNL     1       3.692   1.993  17.809  0.00  0.00    +0.000 C 
ATOM     16  O   UNL     1       4.966   2.442  20.038  0.00  0.00    +0.000 OA
ATOM     17  O   UNL     1       2.641   3.357  19.783  0.00  0.00    +0.000 OA
ENDBRANCH   7  14
ENDBRANCH   6   7
ENDBRANCH   1   6
BRANCH   3  18
ATOM     18  N   UNL     1       8.091   7.505  18.303  0.00  0.00    +0.000 NA
ATOM     19  C   UNL     1       7.738   8.682  17.896  0.00  0.00    +0.000 C 
BRANCH  19  20
ATOM     20  C   UNL     1       8.458   9.896  18.330  0.00  0.00    +0.000 A 
ATOM     21  C   UNL     1       9.537   9.812  19.205  0.00  0.00    +0.000 A 
ATOM     22  C   UNL     1      10.221  10.977  19.577  0.00  0.00    +0.000 A 
ATOM     23  C   UNL     1       9.885  12.262  19.091  0.00  0.00    +0.000 A 
ATOM     24  C   UNL     1       8.775  12.304  18.209  0.00  0.00    +0.000 A 
ATOM     25 BR   UNL     1       8.184  13.874  17.294  0.00  0.00    +0.000 Br
ATOM     26  C   UNL     1       8.069  11.140  17.845  0.00  0.00    +0.000 A 
BRANCH  23  27
ATOM     27  N   UNL     1      10.660  13.353  19.469  0.00  0.00    +0.000 N 
ATOM     28  C   UNL     1      11.896  13.695  18.767  0.00  0.00    +0.000 C 
ATOM     29  C   UNL     1      10.437  14.106  20.699  0.00  0.00    +0.000 C 
ENDBRANCH  23  27
ENDBRANCH  19  20
ENDBRANCH   3  18
TORSDOF 7
ENDMDL
MODEL 6
REMARK VINA RESULT:      -7.1      0.759      1.104
REMARK  Name = 
REMARK  11 active torsions:
REMARK  status: ('A' for Active; 'I' for Inactive)
REMARK    1  A    between atoms: C_1  and  C_2
REMARK    2  A    between atoms: C_2  and  C_3
REMARK    3  A    between atoms: C_2  and  N_18
REMARK    4  A    between atoms: N_5  and  N_6
REMARK    5  A    between atoms: C_7  and  C_8
REMARK    6  A    between atoms: C_11  and  N_12
REMARK    7  A    between atoms: N_12  and  C_13
REMARK    8  A    between atoms: N_12  and  C_14
REMARK    9  A    between atoms: N_18  and  C_19
REMARK   10  A    between atoms: N_18  and  S_25
REMARK   11  A    between atoms: S_25  and  C_26
REMARK                            x       y       z     vdW  Elec       q    Type
REMARK                         _______ _______ _______ _____ _____    ______ ____
ROOT
ATOM      1  C   UNL     1       0.053   9.748  21.858  0.00  0.00    +0.000 C 
ATOM      2  O   UNL     1      -0.768   8.843  22.009  0.00  0.00    +0.000 OA
ATOM      3  N   UNL     1       1.388   9.537  21.537  0.00  0.00    +0.000 N 
ATOM      4  H   UNL     1       2.015  10.317  21.378  0.00  0.00    +0.000 HD
ENDROOT
BRANCH   1   6
ATOM      5  C   UNL     1      -1.545  11.338  22.994  0.00  0.00    +0.000 C 
ATOM      6  C   UNL     1      -0.323  11.210  22.085  0.00  0.00    +0.000 C 
BRANCH   6   7
ATOM      7  N   UNL     1      -0.447  11.982  20.814  0.00  0.00    +0.000 N 
BRANCH   7   8
ATOM      8  C   UNL     1      -1.235  11.539  19.706  0.00  0.00    +0.000 A 
ATOM      9  C   UNL     1      -2.562  11.947  19.555  0.00  0.00    +0.000 A 
ATOM     10  C   UNL     1      -3.305  11.524  18.453  0.00  0.00    +0.000 A 
ATOM     11  C   UNL     1      -2.732  10.666  17.516  0.00  0.00    +0.000 A 
ATOM     12  C   UNL     1      -1.419  10.226  17.684  0.00  0.00    +0.000 A 
ATOM     13  C   UNL     1      -0.669  10.665  18.777  0.00  0.00    +0.000 A 
ENDBRANCH   7   8
BRANCH   7  14
ATOM     14  S   UNL     1       0.537  13.343  20.583  0.00  0.00    +0.000 S 
ATOM     15  C   UNL     1       1.892  12.698  19.623  0.00  0.00    +0.000 C 
ATOM     16  O   UNL     1      -0.166  14.294  19.747  0.00  0.00    +0.000 OA
ATOM     17  O   UNL     1       1.058  13.753  21.871  0.00  0.00    +0.000 OA
ENDBRANCH   7  14
ENDBRANCH   6   7
ENDBRANCH   1   6
BRANCH   3  18
ATOM     18  N   UNL     1       1.853   8.265  21.411  0.00  0.00    +0.000 NA
ATOM     19  C   UNL     1       1.892   7.790  20.209  0.00  0.00    +0.000 C 
BRANCH  19  20
ATOM     20  C   UNL     1       2.339   6.409  19.939  0.00  0.00    +0.000 A 
ATOM     21  C   UNL     1       3.328   6.150  18.994  0.00  0.00    +0.000 A 
ATOM     22  C   UNL     1       3.754   4.833  18.779  0.00  0.00    +0.000 A 
ATOM     23  C   UNL     1       3.242   3.725  19.495  0.00  0.00    +0.000 A 
ATOM     24  C   UNL     1       2.231   4.032  20.441  0.00  0.00    +0.000 A 
ATOM     25 BR   UNL     1       1.459   2.763  21.644  0.00  0.00    +0.000 Br
ATOM     26  C   UNL     1       1.782   5.352  20.650  0.00  0.00    +0.000 A 
BRANCH  23  27
ATOM     27  N   UNL     1       3.770   2.461  19.256  0.00  0.00    +0.000 N 
ATOM     28  C   UNL     1       3.287   1.624  18.159  0.00  0.00    +0.000 C 
ATOM     29  C   UNL     1       4.673   1.783  20.180  0.00  0.00    +0.000 C 
ENDBRANCH  23  27
ENDBRANCH  19  20
ENDBRANCH   3  18
TORSDOF 7
ENDMDL
MODEL 7
REMARK VINA RESULT:      -7.1      7.994     10.829
REMARK  Name = 
REMARK  11 active torsions:
REMARK  status: ('A' for Active; 'I' for Inactive)
REMARK    1  A    between atoms: C_1  and  C_2
REMARK    2  A    between atoms: C_2  and  C_3
REMARK    3  A    between atoms: C_2  and  N_18
REMARK    4  A    between atoms: N_5  and  N_6
REMARK    5  A    between atoms: C_7  and  C_8
REMARK    6  A    between atoms: C_11  and  N_12
REMARK    7  A    between atoms: N_12  and  C_13
REMARK    8  A    between atoms: N_12  and  C_14
REMARK    9  A    between atoms: N_18  and  C_19
REMARK   10  A    between atoms: N_18  and  S_25
REMARK   11  A    between atoms: S_25  and  C_26
REMARK                            x       y       z     vdW  Elec       q    Type
REMARK                         _______ _______ _______ _____ _____    ______ ____
ROOT
ATOM      1  C   UNL     1       7.050   7.463  17.704  0.00  0.00    +0.000 C 
ATOM      2  O   UNL     1       6.402   8.086  16.863  0.00  0.00    +0.000 OA
ATOM      3  N   UNL     1       8.170   7.969  18.351  0.00  0.00    +0.000 N 
ATOM      4  H   UNL     1       8.643   7.434  19.070  0.00  0.00    +0.000 HD
ENDROOT
BRANCH   1   6
ATOM      5  C   UNL     1       7.966   5.205  18.366  0.00  0.00    +0.000 C 
ATOM      6  C   UNL     1       6.708   6.019  18.062  0.00  0.00    +0.000 C 
BRANCH   6   7
ATOM      7  N   UNL     1       5.810   5.370  17.061  0.00  0.00    +0.000 N 
BRANCH   7   8
ATOM      8  C   UNL     1       4.444   5.050  17.330  0.00  0.00    +0.000 A 
ATOM      9  C   UNL     1       3.962   3.748  17.170  0.00  0.00    +0.000 A 
ATOM     10  C   UNL     1       2.631   3.452  17.462  0.00  0.00    +0.000 A 
ATOM     11  C   UNL     1       1.770   4.463  17.884  0.00  0.00    +0.000 A 
ATOM     12  C   UNL     1       2.238   5.772  18.008  0.00  0.00    +0.000 A 
ATOM     13  C   UNL     1       3.575   6.064  17.734  0.00  0.00    +0.000 A 
ENDBRANCH   7   8
BRANCH   7  14
ATOM     14  S   UNL     1       6.479   4.804  15.609  0.00  0.00    +0.000 S 
ATOM     15  C   UNL     1       5.249   5.253  14.401  0.00  0.00    +0.000 C 
ATOM     16  O   UNL     1       7.671   5.570  15.311  0.00  0.00    +0.000 OA
ATOM     17  O   UNL     1       6.539   3.358  15.668  0.00  0.00    +0.000 OA
ENDBRANCH   7  14
ENDBRANCH   6   7
ENDBRANCH   1   6
BRANCH   3  18
ATOM     18  N   UNL     1       8.623   9.211  18.031  0.00  0.00    +0.000 NA
ATOM     19  C   UNL     1       9.183   9.876  18.989  0.00  0.00    +0.000 C 
BRANCH  19  20
ATOM     20  C   UNL     1       9.682  11.251  18.784  0.00  0.00    +0.000 A 
ATOM     21  C   UNL     1      10.720  11.508  17.894  0.00  0.00    +0.000 A 
ATOM     22  C   UNL     1      11.155  12.826  17.696  0.00  0.00    +0.000 A 
ATOM     23  C   UNL     1      10.575  13.939  18.348  0.00  0.00    +0.000 A 
ATOM     24  C   UNL     1       9.526  13.632  19.252  0.00  0.00    +0.000 A 
ATOM     25 BR   UNL     1       8.472  14.939  20.165  0.00  0.00    +0.000 Br
ATOM     26  C   UNL     1       9.097  12.308  19.472  0.00  0.00    +0.000 A 
BRANCH  23  27
ATOM     27  N   UNL     1      11.032  15.217  18.043  0.00  0.00    +0.000 N 
ATOM     28  C   UNL     1      12.068  15.871  18.842  0.00  0.00    +0.000 C 
ATOM     29  C   UNL     1      10.388  16.085  17.063  0.00  0.00    +0.000 C 
ENDBRANCH  23  27
ENDBRANCH  19  20
ENDBRANCH   3  18
TORSDOF 7
ENDMDL
MODEL 8
REMARK VINA RESULT:      -7.1      4.250      9.325
REMARK  Name = 
REMARK  11 active torsions:
REMARK  status: ('A' for Active; 'I' for Inactive)
REMARK    1  A    between atoms: C_1  and  C_2
REMARK    2  A    between atoms: C_2  and  C_3
REMARK    3  A    between atoms: C_2  and  N_18
REMARK    4  A    between atoms: N_5  and  N_6
REMARK    5  A    between atoms: C_7  and  C_8
REMARK    6  A    between atoms: C_11  and  N_12
REMARK    7  A    between atoms: N_12  and  C_13
REMARK    8  A    between atoms: N_12  and  C_14
REMARK    9  A    between atoms: N_18  and  C_19
REMARK   10  A    between atoms: N_18  and  S_25
REMARK   11  A    between atoms: S_25  and  C_26
REMARK                            x       y       z     vdW  Elec       q    Type
REMARK                         _______ _______ _______ _____ _____    ______ ____
ROOT
ATOM      1  C   UNL     1       3.106   6.477  19.132  0.00  0.00    +0.000 C 
ATOM      2  O   UNL     1       3.235   7.295  18.221  0.00  0.00    +0.000 OA
ATOM      3  N   UNL     1       2.273   6.663  20.227  0.00  0.00    +0.000 N 
ATOM      4  H   UNL     1       2.166   5.941  20.930  0.00  0.00    +0.000 HD
ENDROOT
BRANCH   1   6
ATOM      5  C   UNL     1       5.391   5.471  19.508  0.00  0.00    +0.000 C 
ATOM      6  C   UNL     1       3.927   5.191  19.169  0.00  0.00    +0.000 C 
BRANCH   6   7
ATOM      7  N   UNL     1       3.752   4.356  17.944  0.00  0.00    +0.000 N 
BRANCH   7   8
ATOM      8  C   UNL     1       4.593   4.472  16.794  0.00  0.00    +0.000 A 
ATOM      9  C   UNL     1       4.689   5.674  16.088  0.00  0.00    +0.000 A 
ATOM     10  C   UNL     1       5.535   5.774  14.984  0.00  0.00    +0.000 A 
ATOM     11  C   UNL     1       6.262   4.662  14.563  0.00  0.00    +0.000 A 
ATOM     12  C   UNL     1       6.139   3.449  15.242  0.00  0.00    +0.000 A 
ATOM     13  C   UNL     1       5.307   3.355  16.359  0.00  0.00    +0.000 A 
ENDBRANCH   7   8
BRANCH   7  14
ATOM     14  S   UNL     1       2.384   3.363  17.819  0.00  0.00    +0.000 S 
ATOM     15  C   UNL     1       1.920   3.107  19.520  0.00  0.00    +0.000 C 
ATOM     16  O   UNL     1       1.315   4.114  17.193  0.00  0.00    +0.000 OA
ATOM     17  O   UNL     1       2.794   2.086  17.272  0.00  0.00    +0.000 OA
ENDBRANCH   7  14
ENDBRANCH   6   7
ENDBRANCH   1   6
BRANCH   3  18
ATOM     18  N   UNL     1       1.572   7.822  20.345  0.00  0.00    +0.000 NA
ATOM     19  C   UNL     1       1.092   8.080  21.519  0.00  0.00    +0.000 C 
BRANCH  19  20
ATOM     20  C   UNL     1       0.278   9.286  21.772  0.00  0.00    +0.000 A 
ATOM     21  C   UNL     1      -0.343   9.483  23.002  0.00  0.00    +0.000 A 
ATOM     22  C   UNL     1      -1.085  10.650  23.225  0.00  0.00    +0.000 A 
ATOM     23  C   UNL     1      -1.228  11.675  22.260  0.00  0.00    +0.000 A 
ATOM     24  C   UNL     1      -0.586  11.431  21.020  0.00  0.00    +0.000 A 
ATOM     25 BR   UNL     1      -0.493  12.693  19.587  0.00  0.00    +0.000 Br
ATOM     26  C   UNL     1       0.145  10.250  20.779  0.00  0.00    +0.000 A 
BRANCH  23  27
ATOM     27  N   UNL     1      -1.933  12.826  22.594  0.00  0.00    +0.000 N 
ATOM     28  C   UNL     1      -1.333  13.883  23.408  0.00  0.00    +0.000 C 
ATOM     29  C   UNL     1      -3.364  12.987  22.358  0.00  0.00    +0.000 C 
ENDBRANCH  23  27
ENDBRANCH  19  20
ENDBRANCH   3  18
TORSDOF 7
ENDMDL
MODEL 9
REMARK VINA RESULT:      -7.0      2.762      4.010
REMARK  Name = 
REMARK  11 active torsions:
REMARK  status: ('A' for Active; 'I' for Inactive)
REMARK    1  A    between atoms: C_1  and  C_2
REMARK    2  A    between atoms: C_2  and  C_3
REMARK    3  A    between atoms: C_2  and  N_18
REMARK    4  A    between atoms: N_5  and  N_6
REMARK    5  A    between atoms: C_7  and  C_8
REMARK    6  A    between atoms: C_11  and  N_12
REMARK    7  A    between atoms: N_12  and  C_13
REMARK    8  A    between atoms: N_12  and  C_14
REMARK    9  A    between atoms: N_18  and  C_19
REMARK   10  A    between atoms: N_18  and  S_25
REMARK   11  A    between atoms: S_25  and  C_26
REMARK                            x       y       z     vdW  Elec       q    Type
REMARK                         _______ _______ _______ _____ _____    ______ ____
ROOT
ATOM      1  C   UNL     1       1.330  11.409  18.335  0.00  0.00    +0.000 C 
ATOM      2  O   UNL     1       2.482  11.838  18.272  0.00  0.00    +0.000 OA
ATOM      3  N   UNL     1       0.960  10.125  17.960  0.00  0.00    +0.000 N 
ATOM      4  H   UNL     1       0.005   9.803  18.072  0.00  0.00    +0.000 HD
ENDROOT
BRANCH   1   6
ATOM      5  C   UNL     1       0.665  13.487  19.605  0.00  0.00    +0.000 C 
ATOM      6  C   UNL     1       0.172  12.301  18.776  0.00  0.00    +0.000 C 
BRANCH   6   7
ATOM      7  N   UNL     1      -0.931  11.538  19.430  0.00  0.00    +0.000 N 
BRANCH   7   8
ATOM      8  C   UNL     1      -0.831  10.996  20.749  0.00  0.00    +0.000 A 
ATOM      9  C   UNL     1      -1.314  11.698  21.856  0.00  0.00    +0.000 A 
ATOM     10  C   UNL     1      -1.230  11.139  23.132  0.00  0.00    +0.000 A 
ATOM     11  C   UNL     1      -0.631   9.894  23.307  0.00  0.00    +0.000 A 
ATOM     12  C   UNL     1      -0.112   9.208  22.208  0.00  0.00    +0.000 A 
ATOM     13  C   UNL     1      -0.215   9.757  20.929  0.00  0.00    +0.000 A 
ENDBRANCH   7   8
BRANCH   7  14
ATOM     14  S   UNL     1      -2.293  11.118  18.510  0.00  0.00    +0.000 S 
ATOM     15  C   UNL     1      -1.962  11.882  16.935  0.00  0.00    +0.000 C 
ATOM     16  O   UNL     1      -2.292   9.685  18.299  0.00  0.00    +0.000 OA
ATOM     17  O   UNL     1      -3.451  11.768  19.087  0.00  0.00    +0.000 OA
ENDBRANCH   7  14
ENDBRANCH   6   7
ENDBRANCH   1   6
BRANCH   3  18
ATOM     18  N   UNL     1       1.897   9.278  17.455  0.00  0.00    +0.000 NA
ATOM     19  C   UNL     1       2.145   8.220  18.157  0.00  0.00    +0.000 C 
BRANCH  19  20
ATOM     20  C   UNL     1       3.170   7.241  17.741  0.00  0.00    +0.000 A 
ATOM     21  C   UNL     1       4.346   7.657  17.123  0.00  0.00    +0.000 A 
ATOM     22  C   UNL     1       5.314   6.710  16.765  0.00  0.00    +0.000 A 
ATOM     23  C   UNL     1       5.174   5.325  17.017  0.00  0.00    +0.000 A 
ATOM     24  C   UNL     1       3.959   4.943  17.640  0.00  0.00    +0.000 A 
ATOM     25 BR   UNL     1       3.557   3.168  18.223  0.00  0.00    +0.000 Br
ATOM     26  C   UNL     1       2.970   5.887  17.985  0.00  0.00    +0.000 A 
BRANCH  23  27
ATOM     27  N   UNL     1       6.215   4.467  16.681  0.00  0.00    +0.000 N 
ATOM     28  C   UNL     1       7.475   4.463  17.424  0.00  0.00    +0.000 C 
ATOM     29  C   UNL     1       6.234   3.669  15.460  0.00  0.00    +0.000 C 
ENDBRANCH  23  27
ENDBRANCH  19  20
ENDBRANCH   3  18
TORSDOF 7
ENDMDL
