MODEL 1
REMARK VINA RESULT:      -9.0      0.000      0.000
REMARK  Name = 
REMARK  5 active torsions:
REMARK  status: ('A' for Active; 'I' for Inactive)
REMARK    1  A    between atoms: C_1  and  C_2
REMARK    2  A    between atoms: C_6  and  N_7
REMARK    3  A    between atoms: C_8  and  C_10
REMARK    4  A    between atoms: C_10  and  N_11
REMARK    5  A    between atoms: C_21  and  C_22
REMARK                            x       y       z     vdW  Elec       q    Type
REMARK                         _______ _______ _______ _____ _____    ______ ____
ROOT
ATOM      1  N   UNL     1       5.151   3.828  18.461  0.00  0.00    +0.000 N 
ATOM      2  C   UNL     1       6.192   4.712  18.689  0.00  0.00    +0.000 C 
ATOM      3  O   UNL     1       6.147   5.568  19.570  0.00  0.00    +0.000 OA
ATOM      4  H   UNL     1       5.273   3.064  17.807  0.00  0.00    +0.000 HD
ENDROOT
BRANCH   1  10
ATOM      5  C   UNL     1       2.360   2.679  21.713  0.00  0.00    +0.000 C 
ATOM      6  C   UNL     1       1.968   2.567  20.233  0.00  0.00    +0.000 C 
ATOM      7  C   UNL     1       1.036   3.720  19.821  0.00  0.00    +0.000 C 
ATOM      8  C   UNL     1       1.752   5.064  19.693  0.00  0.00    +0.000 C 
ATOM      9  C   UNL     1       3.000   4.987  18.814  0.00  0.00    +0.000 C 
ATOM     10  C   UNL     1       3.939   3.864  19.269  0.00  0.00    +0.000 C 
ATOM     11  C   UNL     1       3.218   2.493  19.319  0.00  0.00    +0.000 C 
ATOM     12  C   UNL     1       2.834   1.973  17.923  0.00  0.00    +0.000 C 
ENDBRANCH   1  10
BRANCH   2  13
ATOM     13  C   UNL     1       7.396   4.530  17.796  0.00  0.00    +0.000 C 
BRANCH  13  14
ATOM     14  N   UNL     1       7.041   4.371  16.397  0.00  0.00    +0.000 N 
ATOM     15  C   UNL     1       5.871   3.886  15.888  0.00  0.00    +0.000 A 
ATOM     16  C   UNL     1       5.895   4.133  14.533  0.00  0.00    +0.000 A 
ATOM     17  C   UNL     1       7.133   4.789  14.320  0.00  0.00    +0.000 A 
ATOM     18  N   UNL     1       7.833   4.922  15.454  0.00  0.00    +0.000 NA
ATOM     19  C   UNL     1       7.645   5.381  13.054  0.00  0.00    +0.000 C 
ATOM     20  C   UNL     1       7.476   4.548  11.779  0.00  0.00    +0.000 C 
ATOM     21  C   UNL     1       6.758   3.205  11.888  0.00  0.00    +0.000 C 
ATOM     22  C   UNL     1       5.261   3.311  12.179  0.00  0.00    +0.000 C 
ATOM     23  C   UNL     1       4.823   3.857  13.542  0.00  0.00    +0.000 C 
ENDBRANCH  13  14
ENDBRANCH   2  13
TORSDOF 3
ENDMDL
MODEL 2
REMARK VINA RESULT:      -8.9      0.974      1.023
REMARK  Name = 
REMARK  5 active torsions:
REMARK  status: ('A' for Active; 'I' for Inactive)
REMARK    1  A    between atoms: C_1  and  C_2
REMARK    2  A    between atoms: C_6  and  N_7
REMARK    3  A    between atoms: C_8  and  C_10
REMARK    4  A    between atoms: C_10  and  N_11
REMARK    5  A    between atoms: C_21  and  C_22
REMARK                            x       y       z     vdW  Elec       q    Type
REMARK                         _______ _______ _______ _____ _____    ______ ____
ROOT
ATOM      1  N   UNL     1       4.684   5.553  18.599  0.00  0.00    +0.000 N 
ATOM      2  C   UNL     1       5.860   4.842  18.425  0.00  0.00    +0.000 C 
ATOM      3  O   UNL     1       6.079   3.781  19.005  0.00  0.00    +0.000 OA
ATOM      4  H   UNL     1       4.491   6.359  18.016  0.00  0.00    +0.000 HD
ENDROOT
BRANCH   1  10
ATOM      5  C   UNL     1       2.570   2.722  21.282  0.00  0.00    +0.000 C 
ATOM      6  C   UNL     1       1.930   3.239  19.986  0.00  0.00    +0.000 C 
ATOM      7  C   UNL     1       0.883   4.326  20.283  0.00  0.00    +0.000 C 
ATOM      8  C   UNL     1       1.495   5.662  20.700  0.00  0.00    +0.000 C 
ATOM      9  C   UNL     1       2.572   6.147  19.730  0.00  0.00    +0.000 C 
ATOM     10  C   UNL     1       3.632   5.068  19.484  0.00  0.00    +0.000 C 
ATOM     11  C   UNL     1       3.003   3.743  18.985  0.00  0.00    +0.000 C 
ATOM     12  C   UNL     1       2.407   3.863  17.572  0.00  0.00    +0.000 C 
ENDBRANCH   1  10
BRANCH   2  13
ATOM     13  C   UNL     1       6.840   5.451  17.450  0.00  0.00    +0.000 C 
BRANCH  13  14
ATOM     14  N   UNL     1       6.642   4.988  16.089  0.00  0.00    +0.000 N 
ATOM     15  C   UNL     1       5.543   4.361  15.577  0.00  0.00    +0.000 A 
ATOM     16  C   UNL     1       5.711   4.318  14.211  0.00  0.00    +0.000 A 
ATOM     17  C   UNL     1       6.954   4.962  13.991  0.00  0.00    +0.000 A 
ATOM     18  N   UNL     1       7.524   5.357  15.137  0.00  0.00    +0.000 NA
ATOM     19  C   UNL     1       7.593   5.293  12.688  0.00  0.00    +0.000 C 
ATOM     20  C   UNL     1       7.578   4.205  11.610  0.00  0.00    +0.000 C 
ATOM     21  C   UNL     1       6.874   2.888  11.928  0.00  0.00    +0.000 C 
ATOM     22  C   UNL     1       5.351   2.995  12.034  0.00  0.00    +0.000 C 
ATOM     23  C   UNL     1       4.759   3.799  13.195  0.00  0.00    +0.000 C 
ENDBRANCH  13  14
ENDBRANCH   2  13
TORSDOF 3
ENDMDL
MODEL 3
REMARK VINA RESULT:      -8.0      4.689      7.949
REMARK  Name = 
REMARK  5 active torsions:
REMARK  status: ('A' for Active; 'I' for Inactive)
REMARK    1  A    between atoms: C_1  and  C_2
REMARK    2  A    between atoms: C_6  and  N_7
REMARK    3  A    between atoms: C_8  and  C_10
REMARK    4  A    between atoms: C_10  and  N_11
REMARK    5  A    between atoms: C_21  and  C_22
REMARK                            x       y       z     vdW  Elec       q    Type
REMARK                         _______ _______ _______ _____ _____    ______ ____
ROOT
ATOM      1  N   UNL     1       2.168   6.197  19.040  0.00  0.00    +0.000 N 
ATOM      2  C   UNL     1       3.127   6.961  18.396  0.00  0.00    +0.000 C 
ATOM      3  O   UNL     1       4.304   6.614  18.324  0.00  0.00    +0.000 OA
ATOM      4  H   UNL     1       1.191   6.456  18.976  0.00  0.00    +0.000 HD
ENDROOT
BRANCH   1  10
ATOM      5  C   UNL     1       4.472   2.475  19.762  0.00  0.00    +0.000 C 
ATOM      6  C   UNL     1       2.994   2.444  19.348  0.00  0.00    +0.000 C 
ATOM      7  C   UNL     1       2.090   2.136  20.555  0.00  0.00    +0.000 C 
ATOM      8  C   UNL     1       1.956   3.306  21.529  0.00  0.00    +0.000 C 
ATOM      9  C   UNL     1       1.569   4.611  20.835  0.00  0.00    +0.000 C 
ATOM     10  C   UNL     1       2.509   4.926  19.666  0.00  0.00    +0.000 C 
ATOM     11  C   UNL     1       2.574   3.761  18.646  0.00  0.00    +0.000 C 
ATOM     12  C   UNL     1       1.252   3.567  17.883  0.00  0.00    +0.000 C 
ENDBRANCH   1  10
BRANCH   2  13
ATOM     13  C   UNL     1       2.616   8.234  17.765  0.00  0.00    +0.000 C 
BRANCH  13  14
ATOM     14  N   UNL     1       1.704   8.963  18.627  0.00  0.00    +0.000 N 
ATOM     15  C   UNL     1       0.753   9.868  18.253  0.00  0.00    +0.000 A 
ATOM     16  C   UNL     1      -0.013  10.123  19.369  0.00  0.00    +0.000 A 
ATOM     17  C   UNL     1       0.555   9.305  20.377  0.00  0.00    +0.000 A 
ATOM     18  N   UNL     1       1.607   8.610  19.926  0.00  0.00    +0.000 NA
ATOM     19  C   UNL     1       0.065   9.098  21.767  0.00  0.00    +0.000 C 
ATOM     20  C   UNL     1      -0.370  10.344  22.544  0.00  0.00    +0.000 C 
ATOM     21  C   UNL     1      -0.316  11.692  21.829  0.00  0.00    +0.000 C 
ATOM     22  C   UNL     1      -1.351  11.859  20.716  0.00  0.00    +0.000 C 
ATOM     23  C   UNL     1      -1.218  10.987  19.463  0.00  0.00    +0.000 C 
ENDBRANCH  13  14
ENDBRANCH   2  13
TORSDOF 3
ENDMDL
MODEL 4
REMARK VINA RESULT:      -8.0      5.309      8.174
REMARK  Name = 
REMARK  5 active torsions:
REMARK  status: ('A' for Active; 'I' for Inactive)
REMARK    1  A    between atoms: C_1  and  C_2
REMARK    2  A    between atoms: C_6  and  N_7
REMARK    3  A    between atoms: C_8  and  C_10
REMARK    4  A    between atoms: C_10  and  N_11
REMARK    5  A    between atoms: C_21  and  C_22
REMARK                            x       y       z     vdW  Elec       q    Type
REMARK                         _______ _______ _______ _____ _____    ______ ____
ROOT
ATOM      1  N   UNL     1       1.197   9.596  20.107  0.00  0.00    +0.000 N 
ATOM      2  C   UNL     1       1.201   9.330  18.748  0.00  0.00    +0.000 C 
ATOM      3  O   UNL     1       0.311   9.724  17.999  0.00  0.00    +0.000 OA
ATOM      4  H   UNL     1       2.005   9.357  20.670  0.00  0.00    +0.000 HD
ENDROOT
BRANCH   1  10
ATOM      5  C   UNL     1      -2.320  12.295  20.293  0.00  0.00    +0.000 C 
ATOM      6  C   UNL     1      -0.991  12.649  20.976  0.00  0.00    +0.000 C 
ATOM      7  C   UNL     1      -1.073  12.414  22.495  0.00  0.00    +0.000 C 
ATOM      8  C   UNL     1      -1.061  10.936  22.883  0.00  0.00    +0.000 C 
ATOM      9  C   UNL     1       0.092  10.166  22.240  0.00  0.00    +0.000 C 
ATOM     10  C   UNL     1       0.128  10.374  20.722  0.00  0.00    +0.000 C 
ATOM     11  C   UNL     1       0.195  11.875  20.345  0.00  0.00    +0.000 C 
ATOM     12  C   UNL     1       1.533  12.526  20.738  0.00  0.00    +0.000 C 
ENDBRANCH   1  10
BRANCH   2  13
ATOM     13  C   UNL     1       2.391   8.544  18.252  0.00  0.00    +0.000 C 
BRANCH  13  14
ATOM     14  N   UNL     1       2.304   7.130  18.566  0.00  0.00    +0.000 N 
ATOM     15  C   UNL     1       2.666   6.079  17.773  0.00  0.00    +0.000 A 
ATOM     16  C   UNL     1       2.622   4.952  18.563  0.00  0.00    +0.000 A 
ATOM     17  C   UNL     1       2.229   5.433  19.837  0.00  0.00    +0.000 A 
ATOM     18  N   UNL     1       2.025   6.757  19.832  0.00  0.00    +0.000 NA
ATOM     19  C   UNL     1       2.120   4.666  21.107  0.00  0.00    +0.000 C 
ATOM     20  C   UNL     1       1.439   3.296  21.036  0.00  0.00    +0.000 C 
ATOM     21  C   UNL     1       0.969   2.797  19.671  0.00  0.00    +0.000 C 
ATOM     22  C   UNL     1       2.100   2.437  18.706  0.00  0.00    +0.000 C 
ATOM     23  C   UNL     1       2.997   3.564  18.185  0.00  0.00    +0.000 C 
ENDBRANCH  13  14
ENDBRANCH   2  13
TORSDOF 3
ENDMDL
MODEL 5
REMARK VINA RESULT:      -7.9      0.953      1.279
REMARK  Name = 
REMARK  5 active torsions:
REMARK  status: ('A' for Active; 'I' for Inactive)
REMARK    1  A    between atoms: C_1  and  C_2
REMARK    2  A    between atoms: C_6  and  N_7
REMARK    3  A    between atoms: C_8  and  C_10
REMARK    4  A    between atoms: C_10  and  N_11
REMARK    5  A    between atoms: C_21  and  C_22
REMARK                            x       y       z     vdW  Elec       q    Type
REMARK                         _______ _______ _______ _____ _____    ______ ____
ROOT
ATOM      1  N   UNL     1       4.904   3.970  17.973  0.00  0.00    +0.000 N 
ATOM      2  C   UNL     1       5.725   5.085  17.924  0.00  0.00    +0.000 C 
ATOM      3  O   UNL     1       5.419   6.151  18.452  0.00  0.00    +0.000 OA
ATOM      4  H   UNL     1       5.242   3.079  17.631  0.00  0.00    +0.000 HD
ENDROOT
BRANCH   1  10
ATOM      5  C   UNL     1       1.982   5.077  21.124  0.00  0.00    +0.000 C 
ATOM      6  C   UNL     1       2.356   3.615  20.844  0.00  0.00    +0.000 C 
ATOM      7  C   UNL     1       1.248   2.906  20.046  0.00  0.00    +0.000 C 
ATOM      8  C   UNL     1       1.186   3.335  18.580  0.00  0.00    +0.000 C 
ATOM      9  C   UNL     1       2.543   3.254  17.883  0.00  0.00    +0.000 C 
ATOM     10  C   UNL     1       3.623   4.006  18.669  0.00  0.00    +0.000 C 
ATOM     11  C   UNL     1       3.728   3.506  20.131  0.00  0.00    +0.000 C 
ATOM     12  C   UNL     1       4.274   2.071  20.230  0.00  0.00    +0.000 C 
ENDBRANCH   1  10
BRANCH   2  13
ATOM     13  C   UNL     1       7.035   4.885  17.200  0.00  0.00    +0.000 C 
BRANCH  13  14
ATOM     14  N   UNL     1       6.858   4.538  15.801  0.00  0.00    +0.000 N 
ATOM     15  C   UNL     1       5.827   3.838  15.243  0.00  0.00    +0.000 A 
ATOM     16  C   UNL     1       5.964   3.952  13.877  0.00  0.00    +0.000 A 
ATOM     17  C   UNL     1       7.116   4.759  13.707  0.00  0.00    +0.000 A 
ATOM     18  N   UNL     1       7.665   5.104  14.879  0.00  0.00    +0.000 NA
ATOM     19  C   UNL     1       7.676   5.293  12.436  0.00  0.00    +0.000 C 
ATOM     20  C   UNL     1       7.761   4.324  11.253  0.00  0.00    +0.000 C 
ATOM     21  C   UNL     1       7.226   2.907  11.445  0.00  0.00    +0.000 C 
ATOM     22  C   UNL     1       5.706   2.819  11.582  0.00  0.00    +0.000 C 
ATOM     23  C   UNL     1       5.053   3.426  12.828  0.00  0.00    +0.000 C 
ENDBRANCH  13  14
ENDBRANCH   2  13
TORSDOF 3
ENDMDL
MODEL 6
REMARK VINA RESULT:      -7.6      5.311      8.169
REMARK  Name = 
REMARK  5 active torsions:
REMARK  status: ('A' for Active; 'I' for Inactive)
REMARK    1  A    between atoms: C_1  and  C_2
REMARK    2  A    between atoms: C_6  and  N_7
REMARK    3  A    between atoms: C_8  and  C_10
REMARK    4  A    between atoms: C_10  and  N_11
REMARK    5  A    between atoms: C_21  and  C_22
REMARK                            x       y       z     vdW  Elec       q    Type
REMARK                         _______ _______ _______ _____ _____    ______ ____
ROOT
ATOM      1  N   UNL     1       2.294   6.244  18.157  0.00  0.00    +0.000 N 
ATOM      2  C   UNL     1       2.258   7.428  18.875  0.00  0.00    +0.000 C 
ATOM      3  O   UNL     1       2.069   7.454  20.089  0.00  0.00    +0.000 OA
ATOM      4  H   UNL     1       2.570   6.255  17.182  0.00  0.00    +0.000 HD
ENDROOT
BRANCH   1  10
ATOM      5  C   UNL     1       2.406   3.276  21.453  0.00  0.00    +0.000 C 
ATOM      6  C   UNL     1       3.185   3.064  20.147  0.00  0.00    +0.000 C 
ATOM      7  C   UNL     1       2.470   2.049  19.237  0.00  0.00    +0.000 C 
ATOM      8  C   UNL     1       1.208   2.606  18.580  0.00  0.00    +0.000 C 
ATOM      9  C   UNL     1       1.447   3.942  17.879  0.00  0.00    +0.000 C 
ATOM     10  C   UNL     1       2.116   4.956  18.814  0.00  0.00    +0.000 C 
ATOM     11  C   UNL     1       3.436   4.406  19.412  0.00  0.00    +0.000 C 
ATOM     12  C   UNL     1       4.543   4.244  18.356  0.00  0.00    +0.000 C 
ENDBRANCH   1  10
BRANCH   2  13
ATOM     13  C   UNL     1       2.495   8.679  18.064  0.00  0.00    +0.000 C 
BRANCH  13  14
ATOM     14  N   UNL     1       1.515   9.716  18.328  0.00  0.00    +0.000 N 
ATOM     15  C   UNL     1       1.753  11.017  18.666  0.00  0.00    +0.000 A 
ATOM     16  C   UNL     1       0.545  11.674  18.591  0.00  0.00    +0.000 A 
ATOM     17  C   UNL     1      -0.372  10.674  18.184  0.00  0.00    +0.000 A 
ATOM     18  N   UNL     1       0.218   9.481  18.037  0.00  0.00    +0.000 NA
ATOM     19  C   UNL     1      -1.812  10.840  17.845  0.00  0.00    +0.000 C 
ATOM     20  C   UNL     1      -2.652  11.711  18.784  0.00  0.00    +0.000 C 
ATOM     21  C   UNL     1      -1.950  12.380  19.963  0.00  0.00    +0.000 C 
ATOM     22  C   UNL     1      -0.982  13.498  19.571  0.00  0.00    +0.000 C 
ATOM     23  C   UNL     1       0.286  13.123  18.799  0.00  0.00    +0.000 C 
ENDBRANCH  13  14
ENDBRANCH   2  13
TORSDOF 3
ENDMDL
MODEL 7
REMARK VINA RESULT:      -7.6      4.883      8.246
REMARK  Name = 
REMARK  5 active torsions:
REMARK  status: ('A' for Active; 'I' for Inactive)
REMARK    1  A    between atoms: C_1  and  C_2
REMARK    2  A    between atoms: C_6  and  N_7
REMARK    3  A    between atoms: C_8  and  C_10
REMARK    4  A    between atoms: C_10  and  N_11
REMARK    5  A    between atoms: C_21  and  C_22
REMARK                            x       y       z     vdW  Elec       q    Type
REMARK                         _______ _______ _______ _____ _____    ______ ____
ROOT
ATOM      1  N   UNL     1       2.530   6.063  17.883  0.00  0.00    +0.000 N 
ATOM      2  C   UNL     1       2.460   7.139  18.753  0.00  0.00    +0.000 C 
ATOM      3  O   UNL     1       2.470   6.999  19.973  0.00  0.00    +0.000 OA
ATOM      4  H   UNL     1       2.639   6.225  16.889  0.00  0.00    +0.000 HD
ENDROOT
BRANCH   1  10
ATOM      5  C   UNL     1       4.143   2.664  20.235  0.00  0.00    +0.000 C 
ATOM      6  C   UNL     1       4.091   2.634  18.701  0.00  0.00    +0.000 C 
ATOM      7  C   UNL     1       2.926   1.758  18.206  0.00  0.00    +0.000 C 
ATOM      8  C   UNL     1       1.555   2.405  18.397  0.00  0.00    +0.000 C 
ATOM      9  C   UNL     1       1.489   3.825  17.838  0.00  0.00    +0.000 C 
ATOM     10  C   UNL     1       2.628   4.696  18.379  0.00  0.00    +0.000 C 
ATOM     11  C   UNL     1       4.017   4.065  18.107  0.00  0.00    +0.000 C 
ATOM     12  C   UNL     1       4.379   4.047  16.612  0.00  0.00    +0.000 C 
ENDBRANCH   1  10
BRANCH   2  13
ATOM     13  C   UNL     1       2.399   8.495  18.092  0.00  0.00    +0.000 C 
BRANCH  13  14
ATOM     14  N   UNL     1       1.331   9.329  18.614  0.00  0.00    +0.000 N 
ATOM     15  C   UNL     1       0.231   9.785  17.946  0.00  0.00    +0.000 A 
ATOM     16  C   UNL     1      -0.606  10.335  18.891  0.00  0.00    +0.000 A 
ATOM     17  C   UNL     1       0.080  10.152  20.117  0.00  0.00    +0.000 A 
ATOM     18  N   UNL     1       1.264   9.550  19.944  0.00  0.00    +0.000 NA
ATOM     19  C   UNL     1      -0.404  10.465  21.489  0.00  0.00    +0.000 C 
ATOM     20  C   UNL     1      -1.104  11.812  21.689  0.00  0.00    +0.000 C 
ATOM     21  C   UNL     1      -1.297  12.710  20.469  0.00  0.00    +0.000 C 
ATOM     22  C   UNL     1      -2.308  12.182  19.450  0.00  0.00    +0.000 C 
ATOM     23  C   UNL     1      -1.963  10.905  18.678  0.00  0.00    +0.000 C 
ENDBRANCH  13  14
ENDBRANCH   2  13
TORSDOF 3
ENDMDL
MODEL 8
REMARK VINA RESULT:      -7.6      4.887      7.999
REMARK  Name = 
REMARK  5 active torsions:
REMARK  status: ('A' for Active; 'I' for Inactive)
REMARK    1  A    between atoms: C_1  and  C_2
REMARK    2  A    between atoms: C_6  and  N_7
REMARK    3  A    between atoms: C_8  and  C_10
REMARK    4  A    between atoms: C_10  and  N_11
REMARK    5  A    between atoms: C_21  and  C_22
REMARK                            x       y       z     vdW  Elec       q    Type
REMARK                         _______ _______ _______ _____ _____    ______ ____
ROOT
ATOM      1  N   UNL     1       8.789   8.667  18.944  0.00  0.00    +0.000 N 
ATOM      2  C   UNL     1       8.182   7.677  18.189  0.00  0.00    +0.000 C 
ATOM      3  O   UNL     1       7.829   7.860  17.027  0.00  0.00    +0.000 OA
ATOM      4  H   UNL     1       9.172   8.444  19.855  0.00  0.00    +0.000 HD
ENDROOT
BRANCH   1  10
ATOM      5  C   UNL     1      11.193  12.087  17.455  0.00  0.00    +0.000 C 
ATOM      6  C   UNL     1      10.236  12.228  18.648  0.00  0.00    +0.000 C 
ATOM      7  C   UNL     1       8.937  12.941  18.231  0.00  0.00    +0.000 C 
ATOM      8  C   UNL     1       8.009  12.068  17.388  0.00  0.00    +0.000 C 
ATOM      9  C   UNL     1       7.742  10.704  18.023  0.00  0.00    +0.000 C 
ATOM     10  C   UNL     1       9.048   9.989  18.387  0.00  0.00    +0.000 C 
ATOM     11  C   UNL     1       9.944  10.856  19.307  0.00  0.00    +0.000 C 
ATOM     12  C   UNL     1       9.343  11.049  20.710  0.00  0.00    +0.000 C 
ENDBRANCH   1  10
BRANCH   2  13
ATOM     13  C   UNL     1       8.013   6.350  18.890  0.00  0.00    +0.000 C 
BRANCH  13  14
ATOM     14  N   UNL     1       6.652   5.850  18.829  0.00  0.00    +0.000 N 
ATOM     15  C   UNL     1       5.679   6.199  17.937  0.00  0.00    +0.000 A 
ATOM     16  C   UNL     1       4.639   5.314  18.117  0.00  0.00    +0.000 A 
ATOM     17  C   UNL     1       5.090   4.450  19.146  0.00  0.00    +0.000 A 
ATOM     18  N   UNL     1       6.310   4.786  19.585  0.00  0.00    +0.000 NA
ATOM     19  C   UNL     1       4.414   3.236  19.679  0.00  0.00    +0.000 C 
ATOM     20  C   UNL     1       2.912   3.343  19.958  0.00  0.00    +0.000 C 
ATOM     21  C   UNL     1       2.211   4.658  19.627  0.00  0.00    +0.000 C 
ATOM     22  C   UNL     1       2.092   4.951  18.130  0.00  0.00    +0.000 C 
ATOM     23  C   UNL     1       3.375   5.229  17.341  0.00  0.00    +0.000 C 
ENDBRANCH  13  14
ENDBRANCH   2  13
TORSDOF 3
ENDMDL
MODEL 9
REMARK VINA RESULT:      -7.5      5.256      7.811
REMARK  Name = 
REMARK  5 active torsions:
REMARK  status: ('A' for Active; 'I' for Inactive)
REMARK    1  A    between atoms: C_1  and  C_2
REMARK    2  A    between atoms: C_6  and  N_7
REMARK    3  A    between atoms: C_8  and  C_10
REMARK    4  A    between atoms: C_10  and  N_11
REMARK    5  A    between atoms: C_21  and  C_22
REMARK                            x       y       z     vdW  Elec       q    Type
REMARK                         _______ _______ _______ _____ _____    ______ ____
ROOT
ATOM      1  N   UNL     1       2.278   6.025  18.082  0.00  0.00    +0.000 N 
ATOM      2  C   UNL     1       2.391   7.237  18.743  0.00  0.00    +0.000 C 
ATOM      3  O   UNL     1       2.293   7.332  19.964  0.00  0.00    +0.000 OA
ATOM      4  H   UNL     1       2.483   5.970  17.091  0.00  0.00    +0.000 HD
ENDROOT
BRANCH   1  10
ATOM      5  C   UNL     1       2.341   3.218  21.518  0.00  0.00    +0.000 C 
ATOM      6  C   UNL     1       3.037   2.888  20.190  0.00  0.00    +0.000 C 
ATOM      7  C   UNL     1       2.209   1.885  19.367  0.00  0.00    +0.000 C 
ATOM      8  C   UNL     1       0.958   2.500  18.740  0.00  0.00    +0.000 C 
ATOM      9  C   UNL     1       1.257   3.780  17.961  0.00  0.00    +0.000 C 
ATOM     10  C   UNL     1       2.041   4.786  18.812  0.00  0.00    +0.000 C 
ATOM     11  C   UNL     1       3.347   4.171  19.376  0.00  0.00    +0.000 C 
ATOM     12  C   UNL     1       4.386   3.877  18.281  0.00  0.00    +0.000 C 
ENDBRANCH   1  10
BRANCH   2  13
ATOM     13  C   UNL     1       2.672   8.427  17.856  0.00  0.00    +0.000 C 
BRANCH  13  14
ATOM     14  N   UNL     1       1.884   9.593  18.211  0.00  0.00    +0.000 N 
ATOM     15  C   UNL     1       0.656   9.614  18.808  0.00  0.00    +0.000 A 
ATOM     16  C   UNL     1       0.405  10.923  19.155  0.00  0.00    +0.000 A 
ATOM     17  C   UNL     1       1.561  11.624  18.730  0.00  0.00    +0.000 A 
ATOM     18  N   UNL     1       2.453  10.814  18.146  0.00  0.00    +0.000 NA
ATOM     19  C   UNL     1       1.886  13.061  18.942  0.00  0.00    +0.000 C 
ATOM     20  C   UNL     1       0.763  14.072  18.691  0.00  0.00    +0.000 C 
ATOM     21  C   UNL     1      -0.610  13.536  18.292  0.00  0.00    +0.000 C 
ATOM     22  C   UNL     1      -1.346  12.790  19.406  0.00  0.00    +0.000 C 
ATOM     23  C   UNL     1      -0.769  11.457  19.892  0.00  0.00    +0.000 C 
ENDBRANCH  13  14
ENDBRANCH   2  13
TORSDOF 3
ENDMDL
