MODEL 1
REMARK VINA RESULT:      -7.9      0.000      0.000
REMARK  Name = 
REMARK  9 active torsions:
REMARK  status: ('A' for Active; 'I' for Inactive)
REMARK    1  A    between atoms: C_1  and  O_2
REMARK    2  A    between atoms: O_2  and  C_3
REMARK    3  A    between atoms: C_6  and  O_7
REMARK    4  A    between atoms: O_7  and  C_8
REMARK    5  A    between atoms: C_9  and  S_10
REMARK    6  A    between atoms: S_10  and  N_13
REMARK    7  A    between atoms: N_13  and  N_14
REMARK    8  A    between atoms: C_15  and  C_16
REMARK    9  A    between atoms: C_15  and  C_17
REMARK                            x       y       z     vdW  Elec       q    Type
REMARK                         _______ _______ _______ _____ _____    ______ ____
ROOT
ATOM      1  N   UNL     1       3.890   5.876  16.911  0.00  0.00    +0.000 N 
ATOM      2  H   UNL     1       3.847   5.041  17.483  0.00  0.00    +0.000 HD
ENDROOT
BRANCH   1   3
ATOM      3  S   UNL     1       5.330   5.944  16.020  0.00  0.00    +0.000 S 
ATOM      4  O   UNL     1       5.187   7.026  15.067  0.00  0.00    +0.000 OA
ATOM      5  O   UNL     1       5.617   4.603  15.546  0.00  0.00    +0.000 OA
BRANCH   3  10
ATOM      6  C   UNL     1       8.061   8.191  17.944  0.00  0.00    +0.000 A 
ATOM      7  C   UNL     1       8.490   7.371  18.977  0.00  0.00    +0.000 A 
ATOM      8  C   UNL     1       7.982   6.076  19.132  0.00  0.00    +0.000 A 
ATOM      9  C   UNL     1       7.031   5.563  18.238  0.00  0.00    +0.000 A 
ATOM     10  C   UNL     1       6.593   6.384  17.188  0.00  0.00    +0.000 A 
ATOM     11  C   UNL     1       7.126   7.685  17.046  0.00  0.00    +0.000 A 
BRANCH   6  13
ATOM     12  C   UNL     1       9.083   9.961  19.151  0.00  0.00    +0.000 C 
ATOM     13  O   UNL     1       8.587   9.446  17.919  0.00  0.00    +0.000 OA
ENDBRANCH   6  13
BRANCH   9  14
ATOM     14  O   UNL     1       6.500   4.366  18.620  0.00  0.00    +0.000 OA
ATOM     15  C   UNL     1       5.368   4.431  19.477  0.00  0.00    +0.000 C 
ENDBRANCH   9  14
ENDBRANCH   3  10
ENDBRANCH   1   3
BRANCH   1  16
ATOM     16  N   UNL     1       3.232   7.094  17.284  0.00  0.00    +0.000 NA
ATOM     17  C   UNL     1       2.497   7.242  18.357  0.00  0.00    +0.000 C 
ATOM     18  C   UNL     1       1.913   8.631  18.473  0.00  0.00    +0.000 C 
BRANCH  17  19
ATOM     19  C   UNL     1       2.208   6.190  19.350  0.00  0.00    +0.000 A 
ATOM     20  C   UNL     1       1.919   6.434  20.687  0.00  0.00    +0.000 A 
ATOM     21  N   UNL     1       2.302   5.311  21.352  0.00  0.00    +0.000 N 
ATOM     22  C   UNL     1       1.823   4.276  20.592  0.00  0.00    +0.000 A 
ATOM     23  C   UNL     1       1.417   3.022  20.995  0.00  0.00    +0.000 A 
ATOM     24  C   UNL     1       0.935   2.179  19.983  0.00  0.00    +0.000 A 
ATOM     25  C   UNL     1       0.990   2.580  18.653  0.00  0.00    +0.000 A 
ATOM     26  C   UNL     1       1.480   3.848  18.275  0.00  0.00    +0.000 A 
ATOM     27  C   UNL     1       1.847   4.770  19.273  0.00  0.00    +0.000 A 
ATOM     28  H   UNL     1       3.102   5.227  21.959  0.00  0.00    +0.000 HD
ENDBRANCH  17  19
ENDBRANCH   1  16
TORSDOF 6
ENDMDL
MODEL 2
REMARK VINA RESULT:      -7.8      4.485      7.315
REMARK  Name = 
REMARK  9 active torsions:
REMARK  status: ('A' for Active; 'I' for Inactive)
REMARK    1  A    between atoms: C_1  and  O_2
REMARK    2  A    between atoms: O_2  and  C_3
REMARK    3  A    between atoms: C_6  and  O_7
REMARK    4  A    between atoms: O_7  and  C_8
REMARK    5  A    between atoms: C_9  and  S_10
REMARK    6  A    between atoms: S_10  and  N_13
REMARK    7  A    between atoms: N_13  and  N_14
REMARK    8  A    between atoms: C_15  and  C_16
REMARK    9  A    between atoms: C_15  and  C_17
REMARK                            x       y       z     vdW  Elec       q    Type
REMARK                         _______ _______ _______ _____ _____    ______ ____
ROOT
ATOM      1  N   UNL     1       1.290   8.698  17.835  0.00  0.00    +0.000 N 
ATOM      2  H   UNL     1       0.484   8.515  17.249  0.00  0.00    +0.000 HD
ENDROOT
BRANCH   1   3
ATOM      3  S   UNL     1       1.083  10.104  18.757  0.00  0.00    +0.000 S 
ATOM      4  O   UNL     1       2.012  11.090  18.242  0.00  0.00    +0.000 OA
ATOM      5  O   UNL     1       1.141   9.725  20.157  0.00  0.00    +0.000 OA
BRANCH   3  10
ATOM      6  C   UNL     1      -2.553  10.272  17.033  0.00  0.00    +0.000 A 
ATOM      7  C   UNL     1      -3.219  11.239  17.769  0.00  0.00    +0.000 A 
ATOM      8  C   UNL     1      -2.588  11.911  18.823  0.00  0.00    +0.000 A 
ATOM      9  C   UNL     1      -1.255  11.632  19.159  0.00  0.00    +0.000 A 
ATOM     10  C   UNL     1      -0.571  10.656  18.418  0.00  0.00    +0.000 A 
ATOM     11  C   UNL     1      -1.226   9.998  17.353  0.00  0.00    +0.000 A 
BRANCH   6  13
ATOM     12  C   UNL     1      -3.322  10.286  14.788  0.00  0.00    +0.000 C 
ATOM     13  O   UNL     1      -3.278   9.652  16.063  0.00  0.00    +0.000 OA
ENDBRANCH   6  13
BRANCH   9  14
ATOM     14  O   UNL     1      -0.838  12.228  20.314  0.00  0.00    +0.000 OA
ATOM     15  C   UNL     1      -1.548  11.869  21.492  0.00  0.00    +0.000 C 
ENDBRANCH   9  14
ENDBRANCH   3  10
ENDBRANCH   1   3
BRANCH   1  16
ATOM     16  N   UNL     1       2.612   8.284  17.466  0.00  0.00    +0.000 NA
ATOM     17  C   UNL     1       3.222   7.230  17.947  0.00  0.00    +0.000 C 
ATOM     18  C   UNL     1       4.617   7.062  17.389  0.00  0.00    +0.000 C 
BRANCH  17  19
ATOM     19  C   UNL     1       2.669   6.304  18.952  0.00  0.00    +0.000 A 
ATOM     20  C   UNL     1       2.251   6.685  20.222  0.00  0.00    +0.000 A 
ATOM     21  N   UNL     1       2.391   5.577  20.997  0.00  0.00    +0.000 N 
ATOM     22  C   UNL     1       1.874   4.555  20.243  0.00  0.00    +0.000 A 
ATOM     23  C   UNL     1       1.254   3.398  20.663  0.00  0.00    +0.000 A 
ATOM     24  C   UNL     1       0.792   2.549  19.647  0.00  0.00    +0.000 A 
ATOM     25  C   UNL     1       1.066   2.835  18.315  0.00  0.00    +0.000 A 
ATOM     26  C   UNL     1       1.769   3.998  17.931  0.00  0.00    +0.000 A 
ATOM     27  C   UNL     1       2.131   4.940  18.912  0.00  0.00    +0.000 A 
ATOM     28  H   UNL     1       3.089   5.438  21.710  0.00  0.00    +0.000 HD
ENDBRANCH  17  19
ENDBRANCH   1  16
TORSDOF 6
ENDMDL
MODEL 3
REMARK VINA RESULT:      -7.7      2.651      6.183
REMARK  Name = 
REMARK  9 active torsions:
REMARK  status: ('A' for Active; 'I' for Inactive)
REMARK    1  A    between atoms: C_1  and  O_2
REMARK    2  A    between atoms: O_2  and  C_3
REMARK    3  A    between atoms: C_6  and  O_7
REMARK    4  A    between atoms: O_7  and  C_8
REMARK    5  A    between atoms: C_9  and  S_10
REMARK    6  A    between atoms: S_10  and  N_13
REMARK    7  A    between atoms: N_13  and  N_14
REMARK    8  A    between atoms: C_15  and  C_16
REMARK    9  A    between atoms: C_15  and  C_17
REMARK                            x       y       z     vdW  Elec       q    Type
REMARK                         _______ _______ _______ _____ _____    ______ ____
ROOT
ATOM      1  N   UNL     1       4.579   3.165  17.541  0.00  0.00    +0.000 N 
ATOM      2  H   UNL     1       5.099   2.471  18.065  0.00  0.00    +0.000 HD
ENDROOT
BRANCH   1   3
ATOM      3  S   UNL     1       2.931   3.131  17.932  0.00  0.00    +0.000 S 
ATOM      4  O   UNL     1       2.742   2.053  18.882  0.00  0.00    +0.000 OA
ATOM      5  O   UNL     1       2.184   3.129  16.687  0.00  0.00    +0.000 OA
BRANCH   3  10
ATOM      6  C   UNL     1       2.664   7.107  18.513  0.00  0.00    +0.000 A 
ATOM      7  C   UNL     1       2.067   7.215  19.760  0.00  0.00    +0.000 A 
ATOM      8  C   UNL     1       1.730   6.078  20.503  0.00  0.00    +0.000 A 
ATOM      9  C   UNL     1       1.997   4.791  20.012  0.00  0.00    +0.000 A 
ATOM     10  C   UNL     1       2.604   4.671  18.753  0.00  0.00    +0.000 A 
ATOM     11  C   UNL     1       2.943   5.833  18.025  0.00  0.00    +0.000 A 
BRANCH   6  13
ATOM     12  C   UNL     1       2.029   9.364  18.146  0.00  0.00    +0.000 C 
ATOM     13  O   UNL     1       2.904   8.276  17.860  0.00  0.00    +0.000 OA
ENDBRANCH   6  13
BRANCH   9  14
ATOM     14  O   UNL     1       1.451   3.789  20.760  0.00  0.00    +0.000 OA
ATOM     15  C   UNL     1       2.146   3.452  21.953  0.00  0.00    +0.000 C 
ENDBRANCH   9  14
ENDBRANCH   3  10
ENDBRANCH   1   3
BRANCH   1  16
ATOM     16  N   UNL     1       4.988   3.604  16.239  0.00  0.00    +0.000 NA
ATOM     17  C   UNL     1       5.981   4.426  16.011  0.00  0.00    +0.000 C 
ATOM     18  C   UNL     1       6.159   4.726  14.540  0.00  0.00    +0.000 C 
BRANCH  17  19
ATOM     19  C   UNL     1       6.832   5.049  17.041  0.00  0.00    +0.000 A 
ATOM     20  C   UNL     1       7.812   4.374  17.760  0.00  0.00    +0.000 A 
ATOM     21  N   UNL     1       7.927   5.048  18.936  0.00  0.00    +0.000 N 
ATOM     22  C   UNL     1       7.946   6.372  18.579  0.00  0.00    +0.000 A 
ATOM     23  C   UNL     1       8.571   7.428  19.206  0.00  0.00    +0.000 A 
ATOM     24  C   UNL     1       8.440   8.676  18.579  0.00  0.00    +0.000 A 
ATOM     25  C   UNL     1       7.625   8.817  17.463  0.00  0.00    +0.000 A 
ATOM     26  C   UNL     1       6.944   7.720  16.892  0.00  0.00    +0.000 A 
ATOM     27  C   UNL     1       7.157   6.430  17.413  0.00  0.00    +0.000 A 
ATOM     28  H   UNL     1       7.614   4.723  19.837  0.00  0.00    +0.000 HD
ENDBRANCH  17  19
ENDBRANCH   1  16
TORSDOF 6
ENDMDL
MODEL 4
REMARK VINA RESULT:      -7.3      3.627      5.434
REMARK  Name = 
REMARK  9 active torsions:
REMARK  status: ('A' for Active; 'I' for Inactive)
REMARK    1  A    between atoms: C_1  and  O_2
REMARK    2  A    between atoms: O_2  and  C_3
REMARK    3  A    between atoms: C_6  and  O_7
REMARK    4  A    between atoms: O_7  and  C_8
REMARK    5  A    between atoms: C_9  and  S_10
REMARK    6  A    between atoms: S_10  and  N_13
REMARK    7  A    between atoms: N_13  and  N_14
REMARK    8  A    between atoms: C_15  and  C_16
REMARK    9  A    between atoms: C_15  and  C_17
REMARK                            x       y       z     vdW  Elec       q    Type
REMARK                         _______ _______ _______ _____ _____    ______ ____
ROOT
ATOM      1  N   UNL     1       6.543   3.915  16.744  0.00  0.00    +0.000 N 
ATOM      2  H   UNL     1       6.926   3.110  16.262  0.00  0.00    +0.000 HD
ENDROOT
BRANCH   1   3
ATOM      3  S   UNL     1       5.549   4.835  15.727  0.00  0.00    +0.000 S 
ATOM      4  O   UNL     1       5.918   6.223  15.916  0.00  0.00    +0.000 OA
ATOM      5  O   UNL     1       4.178   4.418  15.958  0.00  0.00    +0.000 OA
BRANCH   3  10
ATOM      6  C   UNL     1       5.171   3.267  12.037  0.00  0.00    +0.000 A 
ATOM      7  C   UNL     1       6.364   3.604  11.415  0.00  0.00    +0.000 A 
ATOM      8  C   UNL     1       7.361   4.313  12.096  0.00  0.00    +0.000 A 
ATOM      9  C   UNL     1       7.187   4.695  13.434  0.00  0.00    +0.000 A 
ATOM     10  C   UNL     1       5.985   4.356  14.073  0.00  0.00    +0.000 A 
ATOM     11  C   UNL     1       4.997   3.632  13.369  0.00  0.00    +0.000 A 
BRANCH   6  13
ATOM     12  C   UNL     1       3.406   3.429  10.460  0.00  0.00    +0.000 C 
ATOM     13  O   UNL     1       4.257   2.619  11.266  0.00  0.00    +0.000 OA
ENDBRANCH   6  13
BRANCH   9  14
ATOM     14  O   UNL     1       8.158   5.531  13.903  0.00  0.00    +0.000 OA
ATOM     15  C   UNL     1       9.063   6.042  12.932  0.00  0.00    +0.000 C 
ENDBRANCH   9  14
ENDBRANCH   3  10
ENDBRANCH   1   3
BRANCH   1  16
ATOM     16  N   UNL     1       7.232   4.554  17.827  0.00  0.00    +0.000 NA
ATOM     17  C   UNL     1       6.653   5.007  18.910  0.00  0.00    +0.000 C 
ATOM     18  C   UNL     1       7.632   5.655  19.863  0.00  0.00    +0.000 C 
BRANCH  17  19
ATOM     19  C   UNL     1       5.208   4.954  19.197  0.00  0.00    +0.000 A 
ATOM     20  C   UNL     1       4.358   6.052  19.142  0.00  0.00    +0.000 A 
ATOM     21  N   UNL     1       3.343   5.768  20.002  0.00  0.00    +0.000 N 
ATOM     22  C   UNL     1       3.009   4.467  19.730  0.00  0.00    +0.000 A 
ATOM     23  C   UNL     1       1.785   3.844  19.848  0.00  0.00    +0.000 A 
ATOM     24  C   UNL     1       1.743   2.498  19.456  0.00  0.00    +0.000 A 
ATOM     25  C   UNL     1       2.909   1.838  19.089  0.00  0.00    +0.000 A 
ATOM     26  C   UNL     1       4.158   2.495  19.050  0.00  0.00    +0.000 A 
ATOM     27  C   UNL     1       4.218   3.878  19.307  0.00  0.00    +0.000 A 
ATOM     28  H   UNL     1       3.187   6.203  20.897  0.00  0.00    +0.000 HD
ENDBRANCH  17  19
ENDBRANCH   1  16
TORSDOF 6
ENDMDL
MODEL 5
REMARK VINA RESULT:      -7.3      3.714      5.942
REMARK  Name = 
REMARK  9 active torsions:
REMARK  status: ('A' for Active; 'I' for Inactive)
REMARK    1  A    between atoms: C_1  and  O_2
REMARK    2  A    between atoms: O_2  and  C_3
REMARK    3  A    between atoms: C_6  and  O_7
REMARK    4  A    between atoms: O_7  and  C_8
REMARK    5  A    between atoms: C_9  and  S_10
REMARK    6  A    between atoms: S_10  and  N_13
REMARK    7  A    between atoms: N_13  and  N_14
REMARK    8  A    between atoms: C_15  and  C_16
REMARK    9  A    between atoms: C_15  and  C_17
REMARK                            x       y       z     vdW  Elec       q    Type
REMARK                         _______ _______ _______ _____ _____    ______ ____
ROOT
ATOM      1  N   UNL     1       1.903   6.432  20.931  0.00  0.00    +0.000 N 
ATOM      2  H   UNL     1       2.318   6.681  21.821  0.00  0.00    +0.000 HD
ENDROOT
BRANCH   1   3
ATOM      3  S   UNL     1       1.899   4.755  20.694  0.00  0.00    +0.000 S 
ATOM      4  O   UNL     1       0.556   4.387  20.293  0.00  0.00    +0.000 OA
ATOM      5  O   UNL     1       2.492   4.143  21.869  0.00  0.00    +0.000 OA
BRANCH   3  10
ATOM      6  C   UNL     1       5.328   4.560  18.591  0.00  0.00    +0.000 A 
ATOM      7  C   UNL     1       4.942   3.983  17.390  0.00  0.00    +0.000 A 
ATOM      8  C   UNL     1       3.607   3.640  17.147  0.00  0.00    +0.000 A 
ATOM      9  C   UNL     1       2.615   3.879  18.109  0.00  0.00    +0.000 A 
ATOM     10  C   UNL     1       2.995   4.465  19.326  0.00  0.00    +0.000 A 
ATOM     11  C   UNL     1       4.346   4.811  19.546  0.00  0.00    +0.000 A 
BRANCH   6  13
ATOM     12  C   UNL     1       7.480   4.595  17.592  0.00  0.00    +0.000 C 
ATOM     13  O   UNL     1       6.657   4.809  18.735  0.00  0.00    +0.000 OA
ENDBRANCH   6  13
BRANCH   9  14
ATOM     14  O   UNL     1       1.404   3.328  17.805  0.00  0.00    +0.000 OA
ATOM     15  C   UNL     1       1.127   2.066  18.398  0.00  0.00    +0.000 C 
ENDBRANCH   9  14
ENDBRANCH   3  10
ENDBRANCH   1   3
BRANCH   1  16
ATOM     16  N   UNL     1       1.949   7.307  19.796  0.00  0.00    +0.000 NA
ATOM     17  C   UNL     1       1.500   8.537  19.788  0.00  0.00    +0.000 C 
ATOM     18  C   UNL     1       1.662   9.204  18.441  0.00  0.00    +0.000 C 
BRANCH  17  19
ATOM     19  C   UNL     1       0.862   9.225  20.925  0.00  0.00    +0.000 A 
ATOM     20  C   UNL     1       1.384   9.259  22.213  0.00  0.00    +0.000 A 
ATOM     21  N   UNL     1       0.312   9.419  23.034  0.00  0.00    +0.000 N 
ATOM     22  C   UNL     1      -0.443  10.394  22.436  0.00  0.00    +0.000 A 
ATOM     23  C   UNL     1      -1.275  11.325  23.021  0.00  0.00    +0.000 A 
ATOM     24  C   UNL     1      -1.894  12.228  22.145  0.00  0.00    +0.000 A 
ATOM     25  C   UNL     1      -1.745  12.086  20.771  0.00  0.00    +0.000 A 
ATOM     26  C   UNL     1      -0.939  11.072  20.209  0.00  0.00    +0.000 A 
ATOM     27  C   UNL     1      -0.196  10.232  21.059  0.00  0.00    +0.000 A 
ATOM     28  H   UNL     1      -0.075   8.717  23.645  0.00  0.00    +0.000 HD
ENDBRANCH  17  19
ENDBRANCH   1  16
TORSDOF 6
ENDMDL
MODEL 6
REMARK VINA RESULT:      -7.3      2.664      6.063
REMARK  Name = 
REMARK  9 active torsions:
REMARK  status: ('A' for Active; 'I' for Inactive)
REMARK    1  A    between atoms: C_1  and  O_2
REMARK    2  A    between atoms: O_2  and  C_3
REMARK    3  A    between atoms: C_6  and  O_7
REMARK    4  A    between atoms: O_7  and  C_8
REMARK    5  A    between atoms: C_9  and  S_10
REMARK    6  A    between atoms: S_10  and  N_13
REMARK    7  A    between atoms: N_13  and  N_14
REMARK    8  A    between atoms: C_15  and  C_16
REMARK    9  A    between atoms: C_15  and  C_17
REMARK                            x       y       z     vdW  Elec       q    Type
REMARK                         _______ _______ _______ _____ _____    ______ ____
ROOT
ATOM      1  N   UNL     1       4.503   3.076  17.476  0.00  0.00    +0.000 N 
ATOM      2  H   UNL     1       5.138   2.671  18.155  0.00  0.00    +0.000 HD
ENDROOT
BRANCH   1   3
ATOM      3  S   UNL     1       2.893   2.982  17.996  0.00  0.00    +0.000 S 
ATOM      4  O   UNL     1       2.820   1.895  18.952  0.00  0.00    +0.000 OA
ATOM      5  O   UNL     1       2.050   2.959  16.815  0.00  0.00    +0.000 OA
BRANCH   3  10
ATOM      6  C   UNL     1       2.707   6.946  18.683  0.00  0.00    +0.000 A 
ATOM      7  C   UNL     1       2.075   7.035  19.914  0.00  0.00    +0.000 A 
ATOM      8  C   UNL     1       1.689   5.886  20.615  0.00  0.00    +0.000 A 
ATOM      9  C   UNL     1       1.938   4.607  20.095  0.00  0.00    +0.000 A 
ATOM     10  C   UNL     1       2.580   4.507  18.852  0.00  0.00    +0.000 A 
ATOM     11  C   UNL     1       2.969   5.679  18.167  0.00  0.00    +0.000 A 
BRANCH   6  13
ATOM     12  C   UNL     1       1.950   9.093  18.015  0.00  0.00    +0.000 C 
ATOM     13  O   UNL     1       2.995   8.126  18.072  0.00  0.00    +0.000 OA
ENDBRANCH   6  13
BRANCH   9  14
ATOM     14  O   UNL     1       1.346   3.598  20.798  0.00  0.00    +0.000 OA
ATOM     15  C   UNL     1       2.078   3.099  21.909  0.00  0.00    +0.000 C 
ENDBRANCH   9  14
ENDBRANCH   3  10
ENDBRANCH   1   3
BRANCH   1  16
ATOM     16  N   UNL     1       4.792   3.085  16.072  0.00  0.00    +0.000 NA
ATOM     17  C   UNL     1       5.430   4.046  15.452  0.00  0.00    +0.000 C 
ATOM     18  C   UNL     1       5.564   3.790  13.968  0.00  0.00    +0.000 C 
BRANCH  17  19
ATOM     19  C   UNL     1       5.943   5.278  16.078  0.00  0.00    +0.000 A 
ATOM     20  C   UNL     1       5.355   6.530  15.939  0.00  0.00    +0.000 A 
ATOM     21  N   UNL     1       6.364   7.426  16.111  0.00  0.00    +0.000 N 
ATOM     22  C   UNL     1       7.055   6.968  17.204  0.00  0.00    +0.000 A 
ATOM     23  C   UNL     1       7.765   7.685  18.142  0.00  0.00    +0.000 A 
ATOM     24  C   UNL     1       8.341   6.936  19.178  0.00  0.00    +0.000 A 
ATOM     25  C   UNL     1       8.275   5.549  19.159  0.00  0.00    +0.000 A 
ATOM     26  C   UNL     1       7.597   4.847  18.139  0.00  0.00    +0.000 A 
ATOM     27  C   UNL     1       6.894   5.569  17.156  0.00  0.00    +0.000 A 
ATOM     28  H   UNL     1       6.783   7.990  15.389  0.00  0.00    +0.000 HD
ENDBRANCH  17  19
ENDBRANCH   1  16
TORSDOF 6
ENDMDL
MODEL 7
REMARK VINA RESULT:      -7.3      4.607      7.108
REMARK  Name = 
REMARK  9 active torsions:
REMARK  status: ('A' for Active; 'I' for Inactive)
REMARK    1  A    between atoms: C_1  and  O_2
REMARK    2  A    between atoms: O_2  and  C_3
REMARK    3  A    between atoms: C_6  and  O_7
REMARK    4  A    between atoms: O_7  and  C_8
REMARK    5  A    between atoms: C_9  and  S_10
REMARK    6  A    between atoms: S_10  and  N_13
REMARK    7  A    between atoms: N_13  and  N_14
REMARK    8  A    between atoms: C_15  and  C_16
REMARK    9  A    between atoms: C_15  and  C_17
REMARK                            x       y       z     vdW  Elec       q    Type
REMARK                         _______ _______ _______ _____ _____    ______ ____
ROOT
ATOM      1  N   UNL     1       1.619   8.055  20.939  0.00  0.00    +0.000 N 
ATOM      2  H   UNL     1       1.656   7.136  21.364  0.00  0.00    +0.000 HD
ENDROOT
BRANCH   1   3
ATOM      3  S   UNL     1       0.486   9.051  21.709  0.00  0.00    +0.000 S 
ATOM      4  O   UNL     1       1.158   9.667  22.835  0.00  0.00    +0.000 OA
ATOM      5  O   UNL     1      -0.713   8.263  21.931  0.00  0.00    +0.000 OA
BRANCH   3  10
ATOM      6  C   UNL     1      -1.563  11.045  18.872  0.00  0.00    +0.000 A 
ATOM      7  C   UNL     1      -0.838  12.216  18.708  0.00  0.00    +0.000 A 
ATOM      8  C   UNL     1       0.331  12.453  19.440  0.00  0.00    +0.000 A 
ATOM      9  C   UNL     1       0.811  11.507  20.358  0.00  0.00    +0.000 A 
ATOM     10  C   UNL     1       0.086  10.318  20.529  0.00  0.00    +0.000 A 
ATOM     11  C   UNL     1      -1.086  10.096  19.773  0.00  0.00    +0.000 A 
BRANCH   6  13
ATOM     12  C   UNL     1      -2.924   9.711  17.458  0.00  0.00    +0.000 C 
ATOM     13  O   UNL     1      -2.707  10.942  18.143  0.00  0.00    +0.000 OA
ENDBRANCH   6  13
BRANCH   9  14
ATOM     14  O   UNL     1       1.849  11.953  21.123  0.00  0.00    +0.000 OA
ATOM     15  C   UNL     1       2.292  13.278  20.859  0.00  0.00    +0.000 C 
ENDBRANCH   9  14
ENDBRANCH   3  10
ENDBRANCH   1   3
BRANCH   1  16
ATOM     16  N   UNL     1       1.924   8.269  19.555  0.00  0.00    +0.000 NA
ATOM     17  C   UNL     1       2.544   7.407  18.789  0.00  0.00    +0.000 C 
ATOM     18  C   UNL     1       2.746   7.921  17.382  0.00  0.00    +0.000 C 
BRANCH  17  19
ATOM     19  C   UNL     1       3.047   6.088  19.215  0.00  0.00    +0.000 A 
ATOM     20  C   UNL     1       4.391   5.784  19.398  0.00  0.00    +0.000 A 
ATOM     21  N   UNL     1       4.492   4.444  19.189  0.00  0.00    +0.000 N 
ATOM     22  C   UNL     1       3.435   3.904  19.875  0.00  0.00    +0.000 A 
ATOM     23  C   UNL     1       3.335   2.668  20.476  0.00  0.00    +0.000 A 
ATOM     24  C   UNL     1       2.129   2.407  21.143  0.00  0.00    +0.000 A 
ATOM     25  C   UNL     1       1.082   3.318  21.078  0.00  0.00    +0.000 A 
ATOM     26  C   UNL     1       1.201   4.545  20.389  0.00  0.00    +0.000 A 
ATOM     27  C   UNL     1       2.439   4.899  19.822  0.00  0.00    +0.000 A 
ATOM     28  H   UNL     1       4.917   4.000  18.390  0.00  0.00    +0.000 HD
ENDBRANCH  17  19
ENDBRANCH   1  16
TORSDOF 6
ENDMDL
MODEL 8
REMARK VINA RESULT:      -7.2      4.985      7.626
REMARK  Name = 
REMARK  9 active torsions:
REMARK  status: ('A' for Active; 'I' for Inactive)
REMARK    1  A    between atoms: C_1  and  O_2
REMARK    2  A    between atoms: O_2  and  C_3
REMARK    3  A    between atoms: C_6  and  O_7
REMARK    4  A    between atoms: O_7  and  C_8
REMARK    5  A    between atoms: C_9  and  S_10
REMARK    6  A    between atoms: S_10  and  N_13
REMARK    7  A    between atoms: N_13  and  N_14
REMARK    8  A    between atoms: C_15  and  C_16
REMARK    9  A    between atoms: C_15  and  C_17
REMARK                            x       y       z     vdW  Elec       q    Type
REMARK                         _______ _______ _______ _____ _____    ______ ____
ROOT
ATOM      1  N   UNL     1       0.900   9.128  18.313  0.00  0.00    +0.000 N 
ATOM      2  H   UNL     1       0.006   8.883  17.903  0.00  0.00    +0.000 HD
ENDROOT
BRANCH   1   3
ATOM      3  S   UNL     1       0.809  10.581  19.179  0.00  0.00    +0.000 S 
ATOM      4  O   UNL     1       1.595  11.558  18.452  0.00  0.00    +0.000 OA
ATOM      5  O   UNL     1       1.129  10.288  20.564  0.00  0.00    +0.000 OA
BRANCH   3  10
ATOM      6  C   UNL     1      -2.583  12.548  20.095  0.00  0.00    +0.000 A 
ATOM      7  C   UNL     1      -3.487  12.104  19.141  0.00  0.00    +0.000 A 
ATOM      8  C   UNL     1      -3.115  11.161  18.175  0.00  0.00    +0.000 A 
ATOM      9  C   UNL     1      -1.817  10.629  18.150  0.00  0.00    +0.000 A 
ATOM     10  C   UNL     1      -0.897  11.070  19.113  0.00  0.00    +0.000 A 
ATOM     11  C   UNL     1      -1.297  12.015  20.084  0.00  0.00    +0.000 A 
BRANCH   6  13
ATOM     12  C   UNL     1      -4.447  13.724  20.976  0.00  0.00    +0.000 C 
ATOM     13  O   UNL     1      -3.040  13.499  20.955  0.00  0.00    +0.000 OA
ENDBRANCH   6  13
BRANCH   9  14
ATOM     14  O   UNL     1      -1.552   9.867  17.049  0.00  0.00    +0.000 OA
ATOM     15  C   UNL     1      -2.479   9.977  15.977  0.00  0.00    +0.000 C 
ENDBRANCH   9  14
ENDBRANCH   3  10
ENDBRANCH   1   3
BRANCH   1  16
ATOM     16  N   UNL     1       2.145   8.735  17.721  0.00  0.00    +0.000 NA
ATOM     17  C   UNL     1       2.798   7.641  18.023  0.00  0.00    +0.000 C 
ATOM     18  C   UNL     1       4.093   7.507  17.255  0.00  0.00    +0.000 C 
BRANCH  17  19
ATOM     19  C   UNL     1       2.380   6.642  19.024  0.00  0.00    +0.000 A 
ATOM     20  C   UNL     1       1.969   6.951  20.315  0.00  0.00    +0.000 A 
ATOM     21  N   UNL     1       2.251   5.848  21.059  0.00  0.00    +0.000 N 
ATOM     22  C   UNL     1       1.818   4.793  20.299  0.00  0.00    +0.000 A 
ATOM     23  C   UNL     1       1.337   3.569  20.710  0.00  0.00    +0.000 A 
ATOM     24  C   UNL     1       0.932   2.696  19.690  0.00  0.00    +0.000 A 
ATOM     25  C   UNL     1       1.129   3.037  18.358  0.00  0.00    +0.000 A 
ATOM     26  C   UNL     1       1.692   4.275  17.978  0.00  0.00    +0.000 A 
ATOM     27  C   UNL     1       1.987   5.230  18.969  0.00  0.00    +0.000 A 
ATOM     28  H   UNL     1       2.985   5.770  21.746  0.00  0.00    +0.000 HD
ENDBRANCH  17  19
ENDBRANCH   1  16
TORSDOF 6
ENDMDL
MODEL 9
REMARK VINA RESULT:      -7.2      2.641      5.000
REMARK  Name = 
REMARK  9 active torsions:
REMARK  status: ('A' for Active; 'I' for Inactive)
REMARK    1  A    between atoms: C_1  and  O_2
REMARK    2  A    between atoms: O_2  and  C_3
REMARK    3  A    between atoms: C_6  and  O_7
REMARK    4  A    between atoms: O_7  and  C_8
REMARK    5  A    between atoms: C_9  and  S_10
REMARK    6  A    between atoms: S_10  and  N_13
REMARK    7  A    between atoms: N_13  and  N_14
REMARK    8  A    between atoms: C_15  and  C_16
REMARK    9  A    between atoms: C_15  and  C_17
REMARK                            x       y       z     vdW  Elec       q    Type
REMARK                         _______ _______ _______ _____ _____    ______ ____
ROOT
ATOM      1  N   UNL     1       4.692   6.206  18.906  0.00  0.00    +0.000 N 
ATOM      2  H   UNL     1       4.551   6.870  18.153  0.00  0.00    +0.000 HD
ENDROOT
BRANCH   1   3
ATOM      3  S   UNL     1       6.079   5.266  18.655  0.00  0.00    +0.000 S 
ATOM      4  O   UNL     1       5.932   4.071  19.461  0.00  0.00    +0.000 OA
ATOM      5  O   UNL     1       7.233   6.125  18.847  0.00  0.00    +0.000 OA
BRANCH   3  10
ATOM      6  C   UNL     1       7.160   5.048  14.782  0.00  0.00    +0.000 A 
ATOM      7  C   UNL     1       6.271   4.129  14.246  0.00  0.00    +0.000 A 
ATOM      8  C   UNL     1       5.276   3.539  15.034  0.00  0.00    +0.000 A 
ATOM      9  C   UNL     1       5.142   3.868  16.391  0.00  0.00    +0.000 A 
ATOM     10  C   UNL     1       6.035   4.799  16.942  0.00  0.00    +0.000 A 
ATOM     11  C   UNL     1       7.025   5.389  16.125  0.00  0.00    +0.000 A 
BRANCH   6  13
ATOM     12  C   UNL     1       7.870   5.368  12.541  0.00  0.00    +0.000 C 
ATOM     13  O   UNL     1       8.114   5.522  13.936  0.00  0.00    +0.000 OA
ENDBRANCH   6  13
BRANCH   9  14
ATOM     14  O   UNL     1       4.253   3.083  17.066  0.00  0.00    +0.000 OA
ATOM     15  C   UNL     1       2.909   3.542  17.091  0.00  0.00    +0.000 C 
ENDBRANCH   9  14
ENDBRANCH   3  10
ENDBRANCH   1   3
BRANCH   1  16
ATOM     16  N   UNL     1       3.600   5.667  19.663  0.00  0.00    +0.000 NA
ATOM     17  C   UNL     1       2.443   6.259  19.821  0.00  0.00    +0.000 C 
ATOM     18  C   UNL     1       1.499   5.462  20.691  0.00  0.00    +0.000 C 
BRANCH  17  19
ATOM     19  C   UNL     1       2.070   7.574  19.270  0.00  0.00    +0.000 A 
ATOM     20  C   UNL     1       2.114   7.898  17.919  0.00  0.00    +0.000 A 
ATOM     21  N   UNL     1       2.296   9.245  17.875  0.00  0.00    +0.000 N 
ATOM     22  C   UNL     1       1.421   9.747  18.803  0.00  0.00    +0.000 A 
ATOM     23  C   UNL     1       0.773  10.963  18.815  0.00  0.00    +0.000 A 
ATOM     24  C   UNL     1      -0.099  11.182  19.891  0.00  0.00    +0.000 A 
ATOM     25  C   UNL     1      -0.188  10.255  20.921  0.00  0.00    +0.000 A 
ATOM     26  C   UNL     1       0.548   9.050  20.906  0.00  0.00    +0.000 A 
ATOM     27  C   UNL     1       1.331   8.734  19.780  0.00  0.00    +0.000 A 
ATOM     28  H   UNL     1       3.142   9.719  17.601  0.00  0.00    +0.000 HD
ENDBRANCH  17  19
ENDBRANCH   1  16
TORSDOF 6
ENDMDL
