MODEL 1
REMARK VINA RESULT:      -8.0      0.000      0.000
REMARK  Name = 
REMARK  9 active torsions:
REMARK  status: ('A' for Active; 'I' for Inactive)
REMARK    1  A    between atoms: C_2  and  C_3
REMARK    2  A    between atoms: C_3  and  N_4
REMARK    3  A    between atoms: C_5  and  C_7
REMARK    4  A    between atoms: C_12  and  N_13
REMARK    5  A    between atoms: C_14  and  C_16
REMARK    6  A    between atoms: C_16  and  O_17
REMARK    7  A    between atoms: O_17  and  C_18
REMARK    8  A    between atoms: C_21  and  O_22
REMARK    9  A    between atoms: O_22  and  C_23
REMARK                            x       y       z     vdW  Elec       q    Type
REMARK                         _______ _______ _______ _____ _____    ______ ____
ROOT
ATOM      1  N   UNL     1       6.474   7.314  17.133  0.00  0.00    +0.000 N 
ATOM      2  C   UNL     1       7.548   7.538  17.988  0.00  0.00    +0.000 C 
ATOM      3  O   UNL     1       7.959   6.761  18.850  0.00  0.00    +0.000 OA
ATOM      4  H   UNL     1       6.339   7.956  16.350  0.00  0.00    +0.000 HD
ENDROOT
BRANCH   1  10
ATOM      5  C   UNL     1       5.845   4.955  16.734  0.00  0.00    +0.000 A 
ATOM      6  C   UNL     1       4.834   3.976  16.684  0.00  0.00    +0.000 A 
ATOM      7  C   UNL     1       3.607   4.176  17.300  0.00  0.00    +0.000 A 
ATOM      8  C   UNL     1       3.322   5.414  17.847  0.00  0.00    +0.000 A 
ATOM      9  C   UNL     1       4.257   6.447  17.756  0.00  0.00    +0.000 A 
ATOM     10  C   UNL     1       5.542   6.244  17.219  0.00  0.00    +0.000 A 
BRANCH   5  12
ATOM     11  N   UNL     1       7.558   4.607  14.951  0.00  0.00    +0.000 N 
ATOM     12  C   UNL     1       7.223   4.575  16.301  0.00  0.00    +0.000 C 
ATOM     13  O   UNL     1       8.039   4.208  17.142  0.00  0.00    +0.000 OA
ATOM     14  H   UNL     1       8.543   4.469  14.757  0.00  0.00    +0.000 HD
BRANCH  11  15
ATOM     15  C   UNL     1       6.671   4.897  13.840  0.00  0.00    +0.000 C 
BRANCH  15  17
ATOM     16  C   UNL     1       6.108   3.301  12.022  0.00  0.00    +0.000 C 
ATOM     17  C   UNL     1       6.000   3.678  13.305  0.00  0.00    +0.000 C 
ENDBRANCH  15  17
ENDBRANCH  11  15
ENDBRANCH   5  12
ENDBRANCH   1  10
BRANCH   2  18
ATOM     18  C   UNL     1       8.247   8.878  17.793  0.00  0.00    +0.000 C 
BRANCH  18  19
ATOM     19  O   UNL     1       8.931   9.165  19.004  0.00  0.00    +0.000 OA
BRANCH  19  20
ATOM     20  C   UNL     1       9.377  10.446  19.157  0.00  0.00    +0.000 A 
ATOM     21  C   UNL     1       9.596  11.139  17.966  0.00  0.00    +0.000 A 
ATOM     22  C   UNL     1       9.968  12.485  17.991  0.00  0.00    +0.000 A 
ATOM     23  C   UNL     1      10.096  13.155  19.203  0.00  0.00    +0.000 A 
ATOM     24  C   UNL     1       9.916  12.455  20.399  0.00  0.00    +0.000 A 
ATOM     25  C   UNL     1       9.555  11.099  20.374  0.00  0.00    +0.000 A 
BRANCH  23  26
ATOM     26  O   UNL     1      10.434  14.477  19.118  0.00  0.00    +0.000 OA
ATOM     27  C   UNL     1      11.070  15.015  20.266  0.00  0.00    +0.000 C 
ENDBRANCH  23  26
ENDBRANCH  19  20
ENDBRANCH  18  19
ENDBRANCH   2  18
TORSDOF 8
ENDMDL
MODEL 2
REMARK VINA RESULT:      -8.0      0.668      1.118
REMARK  Name = 
REMARK  9 active torsions:
REMARK  status: ('A' for Active; 'I' for Inactive)
REMARK    1  A    between atoms: C_2  and  C_3
REMARK    2  A    between atoms: C_3  and  N_4
REMARK    3  A    between atoms: C_5  and  C_7
REMARK    4  A    between atoms: C_12  and  N_13
REMARK    5  A    between atoms: C_14  and  C_16
REMARK    6  A    between atoms: C_16  and  O_17
REMARK    7  A    between atoms: O_17  and  C_18
REMARK    8  A    between atoms: C_21  and  O_22
REMARK    9  A    between atoms: O_22  and  C_23
REMARK                            x       y       z     vdW  Elec       q    Type
REMARK                         _______ _______ _______ _____ _____    ______ ____
ROOT
ATOM      1  N   UNL     1       6.393   7.161  17.079  0.00  0.00    +0.000 N 
ATOM      2  C   UNL     1       7.481   7.448  17.896  0.00  0.00    +0.000 C 
ATOM      3  O   UNL     1       7.911   6.736  18.803  0.00  0.00    +0.000 OA
ATOM      4  H   UNL     1       6.240   7.745  16.254  0.00  0.00    +0.000 HD
ENDROOT
BRANCH   1  10
ATOM      5  C   UNL     1       5.636   4.849  16.626  0.00  0.00    +0.000 A 
ATOM      6  C   UNL     1       4.609   3.889  16.696  0.00  0.00    +0.000 A 
ATOM      7  C   UNL     1       3.528   4.051  17.550  0.00  0.00    +0.000 A 
ATOM      8  C   UNL     1       3.385   5.244  18.237  0.00  0.00    +0.000 A 
ATOM      9  C   UNL     1       4.313   6.270  18.048  0.00  0.00    +0.000 A 
ATOM     10  C   UNL     1       5.465   6.098  17.259  0.00  0.00    +0.000 A 
BRANCH   5  12
ATOM     11  N   UNL     1       6.861   4.223  14.543  0.00  0.00    +0.000 N 
ATOM     12  C   UNL     1       6.895   4.491  15.907  0.00  0.00    +0.000 C 
ATOM     13  O   UNL     1       7.946   4.407  16.537  0.00  0.00    +0.000 OA
ATOM     14  H   UNL     1       7.771   4.124  14.108  0.00  0.00    +0.000 HD
BRANCH  11  15
ATOM     15  C   UNL     1       5.684   4.161  13.696  0.00  0.00    +0.000 C 
BRANCH  15  17
ATOM     16  C   UNL     1       4.920   3.012  11.631  0.00  0.00    +0.000 C 
ATOM     17  C   UNL     1       5.921   3.404  12.434  0.00  0.00    +0.000 C 
ENDBRANCH  15  17
ENDBRANCH  11  15
ENDBRANCH   5  12
ENDBRANCH   1  10
BRANCH   2  18
ATOM     18  C   UNL     1       8.172   8.772  17.592  0.00  0.00    +0.000 C 
BRANCH  18  19
ATOM     19  O   UNL     1       8.726   9.236  18.813  0.00  0.00    +0.000 OA
BRANCH  19  20
ATOM     20  C   UNL     1       9.183  10.523  18.818  0.00  0.00    +0.000 A 
ATOM     21  C   UNL     1      10.117  10.812  19.813  0.00  0.00    +0.000 A 
ATOM     22  C   UNL     1      10.725  12.069  19.868  0.00  0.00    +0.000 A 
ATOM     23  C   UNL     1      10.423  13.035  18.914  0.00  0.00    +0.000 A 
ATOM     24  C   UNL     1       9.459  12.764  17.940  0.00  0.00    +0.000 A 
ATOM     25  C   UNL     1       8.839  11.506  17.893  0.00  0.00    +0.000 A 
BRANCH  23  26
ATOM     26  O   UNL     1      11.093  14.220  19.037  0.00  0.00    +0.000 OA
ATOM     27  C   UNL     1      10.317  15.383  18.797  0.00  0.00    +0.000 C 
ENDBRANCH  23  26
ENDBRANCH  19  20
ENDBRANCH  18  19
ENDBRANCH   2  18
TORSDOF 8
ENDMDL
MODEL 3
REMARK VINA RESULT:      -7.7      5.357      7.757
REMARK  Name = 
REMARK  9 active torsions:
REMARK  status: ('A' for Active; 'I' for Inactive)
REMARK    1  A    between atoms: C_2  and  C_3
REMARK    2  A    between atoms: C_3  and  N_4
REMARK    3  A    between atoms: C_5  and  C_7
REMARK    4  A    between atoms: C_12  and  N_13
REMARK    5  A    between atoms: C_14  and  C_16
REMARK    6  A    between atoms: C_16  and  O_17
REMARK    7  A    between atoms: O_17  and  C_18
REMARK    8  A    between atoms: C_21  and  O_22
REMARK    9  A    between atoms: O_22  and  C_23
REMARK                            x       y       z     vdW  Elec       q    Type
REMARK                         _______ _______ _______ _____ _____    ______ ____
ROOT
ATOM      1  N   UNL     1       4.998   3.467  18.988  0.00  0.00    +0.000 N 
ATOM      2  C   UNL     1       5.797   4.604  19.042  0.00  0.00    +0.000 C 
ATOM      3  O   UNL     1       5.640   5.562  19.799  0.00  0.00    +0.000 OA
ATOM      4  H   UNL     1       5.330   2.669  18.442  0.00  0.00    +0.000 HD
ENDROOT
BRANCH   1  10
ATOM      5  C   UNL     1       2.546   3.773  19.115  0.00  0.00    +0.000 A 
ATOM      6  C   UNL     1       1.369   3.718  19.885  0.00  0.00    +0.000 A 
ATOM      7  C   UNL     1       1.318   2.998  21.071  0.00  0.00    +0.000 A 
ATOM      8  C   UNL     1       2.483   2.445  21.574  0.00  0.00    +0.000 A 
ATOM      9  C   UNL     1       3.691   2.635  20.900  0.00  0.00    +0.000 A 
ATOM     10  C   UNL     1       3.754   3.283  19.652  0.00  0.00    +0.000 A 
BRANCH   5  12
ATOM     11  N   UNL     1       2.556   5.694  17.520  0.00  0.00    +0.000 N 
ATOM     12  C   UNL     1       2.461   4.323  17.728  0.00  0.00    +0.000 C 
ATOM     13  O   UNL     1       2.277   3.556  16.787  0.00  0.00    +0.000 OA
ATOM     14  H   UNL     1       2.626   5.971  16.548  0.00  0.00    +0.000 HD
BRANCH  11  15
ATOM     15  C   UNL     1       2.649   6.726  18.537  0.00  0.00    +0.000 C 
BRANCH  15  17
ATOM     16  C   UNL     1       1.682   8.926  17.910  0.00  0.00    +0.000 C 
ATOM     17  C   UNL     1       2.736   8.098  17.961  0.00  0.00    +0.000 C 
ENDBRANCH  15  17
ENDBRANCH  11  15
ENDBRANCH   5  12
ENDBRANCH   1  10
BRANCH   2  18
ATOM     18  C   UNL     1       6.962   4.609  18.061  0.00  0.00    +0.000 C 
BRANCH  18  19
ATOM     19  O   UNL     1       6.600   5.477  16.997  0.00  0.00    +0.000 OA
BRANCH  19  20
ATOM     20  C   UNL     1       6.553   4.918  15.751  0.00  0.00    +0.000 A 
ATOM     21  C   UNL     1       5.529   3.991  15.560  0.00  0.00    +0.000 A 
ATOM     22  C   UNL     1       5.322   3.417  14.303  0.00  0.00    +0.000 A 
ATOM     23  C   UNL     1       6.120   3.784  13.225  0.00  0.00    +0.000 A 
ATOM     24  C   UNL     1       7.172   4.682  13.421  0.00  0.00    +0.000 A 
ATOM     25  C   UNL     1       7.388   5.249  14.686  0.00  0.00    +0.000 A 
BRANCH  23  26
ATOM     26  O   UNL     1       5.817   3.188  12.033  0.00  0.00    +0.000 OA
ATOM     27  C   UNL     1       4.466   3.312  11.619  0.00  0.00    +0.000 C 
ENDBRANCH  23  26
ENDBRANCH  19  20
ENDBRANCH  18  19
ENDBRANCH   2  18
TORSDOF 8
ENDMDL
MODEL 4
REMARK VINA RESULT:      -7.4      5.381      7.208
REMARK  Name = 
REMARK  9 active torsions:
REMARK  status: ('A' for Active; 'I' for Inactive)
REMARK    1  A    between atoms: C_2  and  C_3
REMARK    2  A    between atoms: C_3  and  N_4
REMARK    3  A    between atoms: C_5  and  C_7
REMARK    4  A    between atoms: C_12  and  N_13
REMARK    5  A    between atoms: C_14  and  C_16
REMARK    6  A    between atoms: C_16  and  O_17
REMARK    7  A    between atoms: O_17  and  C_18
REMARK    8  A    between atoms: C_21  and  O_22
REMARK    9  A    between atoms: O_22  and  C_23
REMARK                            x       y       z     vdW  Elec       q    Type
REMARK                         _______ _______ _______ _____ _____    ______ ____
ROOT
ATOM      1  N   UNL     1       4.339   6.938  17.645  0.00  0.00    +0.000 N 
ATOM      2  C   UNL     1       3.007   6.817  18.028  0.00  0.00    +0.000 C 
ATOM      3  O   UNL     1       2.307   5.813  17.896  0.00  0.00    +0.000 OA
ATOM      4  H   UNL     1       4.860   7.757  17.963  0.00  0.00    +0.000 HD
ENDROOT
BRANCH   1  10
ATOM      5  C   UNL     1       5.836   4.976  17.463  0.00  0.00    +0.000 A 
ATOM      6  C   UNL     1       6.683   4.185  16.665  0.00  0.00    +0.000 A 
ATOM      7  C   UNL     1       6.629   4.243  15.279  0.00  0.00    +0.000 A 
ATOM      8  C   UNL     1       5.831   5.200  14.677  0.00  0.00    +0.000 A 
ATOM      9  C   UNL     1       5.110   6.100  15.463  0.00  0.00    +0.000 A 
ATOM     10  C   UNL     1       5.077   6.004  16.867  0.00  0.00    +0.000 A 
BRANCH   5  12
ATOM     11  N   UNL     1       4.891   3.664  19.367  0.00  0.00    +0.000 N 
ATOM     12  C   UNL     1       5.745   4.668  18.923  0.00  0.00    +0.000 C 
ATOM     13  O   UNL     1       6.406   5.328  19.719  0.00  0.00    +0.000 OA
ATOM     14  H   UNL     1       4.991   3.428  20.347  0.00  0.00    +0.000 HD
BRANCH  11  15
ATOM     15  C   UNL     1       3.963   2.890  18.563  0.00  0.00    +0.000 C 
BRANCH  15  17
ATOM     16  C   UNL     1       1.589   2.458  19.147  0.00  0.00    +0.000 C 
ATOM     17  C   UNL     1       2.893   2.247  19.377  0.00  0.00    +0.000 C 
ENDBRANCH  15  17
ENDBRANCH  11  15
ENDBRANCH   5  12
ENDBRANCH   1  10
BRANCH   2  18
ATOM     18  C   UNL     1       2.415   8.065  18.669  0.00  0.00    +0.000 C 
BRANCH  18  19
ATOM     19  O   UNL     1       1.807   7.654  19.885  0.00  0.00    +0.000 OA
BRANCH  19  20
ATOM     20  C   UNL     1       1.113   8.612  20.567  0.00  0.00    +0.000 A 
ATOM     21  C   UNL     1       1.090   8.448  21.952  0.00  0.00    +0.000 A 
ATOM     22  C   UNL     1       0.489   9.409  22.767  0.00  0.00    +0.000 A 
ATOM     23  C   UNL     1      -0.070  10.553  22.207  0.00  0.00    +0.000 A 
ATOM     24  C   UNL     1      -0.085  10.702  20.818  0.00  0.00    +0.000 A 
ATOM     25  C   UNL     1       0.508   9.731  19.998  0.00  0.00    +0.000 A 
BRANCH  23  26
ATOM     26  O   UNL     1      -0.606  11.446  23.092  0.00  0.00    +0.000 OA
ATOM     27  C   UNL     1      -1.288  12.544  22.507  0.00  0.00    +0.000 C 
ENDBRANCH  23  26
ENDBRANCH  19  20
ENDBRANCH  18  19
ENDBRANCH   2  18
TORSDOF 8
ENDMDL
MODEL 5
REMARK VINA RESULT:      -7.4      6.058      8.244
REMARK  Name = 
REMARK  9 active torsions:
REMARK  status: ('A' for Active; 'I' for Inactive)
REMARK    1  A    between atoms: C_2  and  C_3
REMARK    2  A    between atoms: C_3  and  N_4
REMARK    3  A    between atoms: C_5  and  C_7
REMARK    4  A    between atoms: C_12  and  N_13
REMARK    5  A    between atoms: C_14  and  C_16
REMARK    6  A    between atoms: C_16  and  O_17
REMARK    7  A    between atoms: O_17  and  C_18
REMARK    8  A    between atoms: C_21  and  O_22
REMARK    9  A    between atoms: O_22  and  C_23
REMARK                            x       y       z     vdW  Elec       q    Type
REMARK                         _______ _______ _______ _____ _____    ______ ____
ROOT
ATOM      1  N   UNL     1       2.919   6.537  19.047  0.00  0.00    +0.000 N 
ATOM      2  C   UNL     1       2.247   7.749  18.934  0.00  0.00    +0.000 C 
ATOM      3  O   UNL     1       2.072   8.384  17.894  0.00  0.00    +0.000 OA
ATOM      4  H   UNL     1       2.848   6.026  19.928  0.00  0.00    +0.000 HD
ENDROOT
BRANCH   1  10
ATOM      5  C   UNL     1       3.369   4.617  17.552  0.00  0.00    +0.000 A 
ATOM      6  C   UNL     1       4.254   3.964  16.673  0.00  0.00    +0.000 A 
ATOM      7  C   UNL     1       5.319   4.637  16.092  0.00  0.00    +0.000 A 
ATOM      8  C   UNL     1       5.600   5.930  16.496  0.00  0.00    +0.000 A 
ATOM      9  C   UNL     1       4.826   6.531  17.491  0.00  0.00    +0.000 A 
ATOM     10  C   UNL     1       3.687   5.905  18.030  0.00  0.00    +0.000 A 
BRANCH   5  12
ATOM     11  N   UNL     1       2.067   3.066  19.013  0.00  0.00    +0.000 N 
ATOM     12  C   UNL     1       2.097   3.926  17.921  0.00  0.00    +0.000 C 
ATOM     13  O   UNL     1       1.095   4.104  17.234  0.00  0.00    +0.000 OA
ATOM     14  H   UNL     1       1.142   2.747  19.276  0.00  0.00    +0.000 HD
BRANCH  11  15
ATOM     15  C   UNL     1       3.193   2.663  19.836  0.00  0.00    +0.000 C 
BRANCH  15  17
ATOM     16  C   UNL     1       1.676   3.019  21.770  0.00  0.00    +0.000 C 
ATOM     17  C   UNL     1       2.850   2.588  21.285  0.00  0.00    +0.000 C 
ENDBRANCH  15  17
ENDBRANCH  11  15
ENDBRANCH   5  12
ENDBRANCH   1  10
BRANCH   2  18
ATOM     18  C   UNL     1       1.690   8.291  20.244  0.00  0.00    +0.000 C 
BRANCH  18  19
ATOM     19  O   UNL     1       1.051   9.522  19.941  0.00  0.00    +0.000 OA
BRANCH  19  20
ATOM     20  C   UNL     1       0.310  10.081  20.943  0.00  0.00    +0.000 A 
ATOM     21  C   UNL     1      -0.317  11.282  20.613  0.00  0.00    +0.000 A 
ATOM     22  C   UNL     1      -1.174  11.905  21.523  0.00  0.00    +0.000 A 
ATOM     23  C   UNL     1      -1.430  11.320  22.758  0.00  0.00    +0.000 A 
ATOM     24  C   UNL     1      -0.773  10.138  23.110  0.00  0.00    +0.000 A 
ATOM     25  C   UNL     1       0.097   9.518  22.200  0.00  0.00    +0.000 A 
BRANCH  23  26
ATOM     26  O   UNL     1      -2.305  11.993  23.564  0.00  0.00    +0.000 OA
ATOM     27  C   UNL     1      -3.405  12.590  22.897  0.00  0.00    +0.000 C 
ENDBRANCH  23  26
ENDBRANCH  19  20
ENDBRANCH  18  19
ENDBRANCH   2  18
TORSDOF 8
ENDMDL
MODEL 6
REMARK VINA RESULT:      -7.4      5.541      6.982
REMARK  Name = 
REMARK  9 active torsions:
REMARK  status: ('A' for Active; 'I' for Inactive)
REMARK    1  A    between atoms: C_2  and  C_3
REMARK    2  A    between atoms: C_3  and  N_4
REMARK    3  A    between atoms: C_5  and  C_7
REMARK    4  A    between atoms: C_12  and  N_13
REMARK    5  A    between atoms: C_14  and  C_16
REMARK    6  A    between atoms: C_16  and  O_17
REMARK    7  A    between atoms: O_17  and  C_18
REMARK    8  A    between atoms: C_21  and  O_22
REMARK    9  A    between atoms: O_22  and  C_23
REMARK                            x       y       z     vdW  Elec       q    Type
REMARK                         _______ _______ _______ _____ _____    ______ ____
ROOT
ATOM      1  N   UNL     1       2.893   5.960  17.891  0.00  0.00    +0.000 N 
ATOM      2  C   UNL     1       2.571   7.028  18.721  0.00  0.00    +0.000 C 
ATOM      3  O   UNL     1       2.233   6.949  19.901  0.00  0.00    +0.000 OA
ATOM      4  H   UNL     1       3.325   6.163  16.987  0.00  0.00    +0.000 HD
ENDROOT
BRANCH   1  10
ATOM      5  C   UNL     1       3.799   3.693  18.295  0.00  0.00    +0.000 A 
ATOM      6  C   UNL     1       3.560   2.311  18.419  0.00  0.00    +0.000 A 
ATOM      7  C   UNL     1       2.284   1.819  18.659  0.00  0.00    +0.000 A 
ATOM      8  C   UNL     1       1.210   2.691  18.631  0.00  0.00    +0.000 A 
ATOM      9  C   UNL     1       1.418   4.042  18.344  0.00  0.00    +0.000 A 
ATOM     10  C   UNL     1       2.709   4.581  18.188  0.00  0.00    +0.000 A 
BRANCH   5  12
ATOM     11  N   UNL     1       5.917   4.312  17.126  0.00  0.00    +0.000 N 
ATOM     12  C   UNL     1       5.214   4.173  18.318  0.00  0.00    +0.000 C 
ATOM     13  O   UNL     1       5.751   4.410  19.396  0.00  0.00    +0.000 OA
ATOM     14  H   UNL     1       6.816   4.770  17.217  0.00  0.00    +0.000 HD
BRANCH  11  15
ATOM     15  C   UNL     1       5.458   3.954  15.797  0.00  0.00    +0.000 C 
BRANCH  15  17
ATOM     16  C   UNL     1       6.282   3.900  13.454  0.00  0.00    +0.000 C 
ATOM     17  C   UNL     1       6.501   4.161  14.752  0.00  0.00    +0.000 C 
ENDBRANCH  15  17
ENDBRANCH  11  15
ENDBRANCH   5  12
ENDBRANCH   1  10
BRANCH   2  18
ATOM     18  C   UNL     1       2.672   8.397  18.061  0.00  0.00    +0.000 C 
BRANCH  18  19
ATOM     19  O   UNL     1       1.385   8.699  17.542  0.00  0.00    +0.000 OA
BRANCH  19  20
ATOM     20  C   UNL     1       0.650   9.612  18.242  0.00  0.00    +0.000 A 
ATOM     21  C   UNL     1      -0.637   9.832  17.752  0.00  0.00    +0.000 A 
ATOM     22  C   UNL     1      -1.517  10.677  18.432  0.00  0.00    +0.000 A 
ATOM     23  C   UNL     1      -1.126  11.287  19.620  0.00  0.00    +0.000 A 
ATOM     24  C   UNL     1       0.175  11.101  20.093  0.00  0.00    +0.000 A 
ATOM     25  C   UNL     1       1.063  10.262  19.403  0.00  0.00    +0.000 A 
BRANCH  23  26
ATOM     26  O   UNL     1      -2.070  12.070  20.223  0.00  0.00    +0.000 OA
ATOM     27  C   UNL     1      -1.684  12.634  21.466  0.00  0.00    +0.000 C 
ENDBRANCH  23  26
ENDBRANCH  19  20
ENDBRANCH  18  19
ENDBRANCH   2  18
TORSDOF 8
ENDMDL
MODEL 7
REMARK VINA RESULT:      -7.4      5.378      6.173
REMARK  Name = 
REMARK  9 active torsions:
REMARK  status: ('A' for Active; 'I' for Inactive)
REMARK    1  A    between atoms: C_2  and  C_3
REMARK    2  A    between atoms: C_3  and  N_4
REMARK    3  A    between atoms: C_5  and  C_7
REMARK    4  A    between atoms: C_12  and  N_13
REMARK    5  A    between atoms: C_14  and  C_16
REMARK    6  A    between atoms: C_16  and  O_17
REMARK    7  A    between atoms: O_17  and  C_18
REMARK    8  A    between atoms: C_21  and  O_22
REMARK    9  A    between atoms: O_22  and  C_23
REMARK                            x       y       z     vdW  Elec       q    Type
REMARK                         _______ _______ _______ _____ _____    ______ ____
ROOT
ATOM      1  N   UNL     1       2.876   5.836  17.757  0.00  0.00    +0.000 N 
ATOM      2  C   UNL     1       2.688   6.928  18.597  0.00  0.00    +0.000 C 
ATOM      3  O   UNL     1       2.504   6.881  19.812  0.00  0.00    +0.000 OA
ATOM      4  H   UNL     1       3.190   6.010  16.800  0.00  0.00    +0.000 HD
ENDROOT
BRANCH   1  10
ATOM      5  C   UNL     1       3.800   3.595  18.253  0.00  0.00    +0.000 A 
ATOM      6  C   UNL     1       3.573   2.217  18.431  0.00  0.00    +0.000 A 
ATOM      7  C   UNL     1       2.301   1.723  18.684  0.00  0.00    +0.000 A 
ATOM      8  C   UNL     1       1.219   2.584  18.617  0.00  0.00    +0.000 A 
ATOM      9  C   UNL     1       1.416   3.924  18.278  0.00  0.00    +0.000 A 
ATOM     10  C   UNL     1       2.702   4.468  18.106  0.00  0.00    +0.000 A 
BRANCH   5  12
ATOM     11  N   UNL     1       5.887   4.274  17.063  0.00  0.00    +0.000 N 
ATOM     12  C   UNL     1       5.210   4.088  18.263  0.00  0.00    +0.000 C 
ATOM     13  O   UNL     1       5.767   4.297  19.338  0.00  0.00    +0.000 OA
ATOM     14  H   UNL     1       6.784   4.737  17.150  0.00  0.00    +0.000 HD
BRANCH  11  15
ATOM     15  C   UNL     1       5.405   3.953  15.732  0.00  0.00    +0.000 C 
BRANCH  15  17
ATOM     16  C   UNL     1       6.246   3.808  13.400  0.00  0.00    +0.000 C 
ATOM     17  C   UNL     1       6.437   4.168  14.678  0.00  0.00    +0.000 C 
ENDBRANCH  15  17
ENDBRANCH  11  15
ENDBRANCH   5  12
ENDBRANCH   1  10
BRANCH   2  18
ATOM     18  C   UNL     1       2.730   8.281  17.898  0.00  0.00    +0.000 C 
BRANCH  18  19
ATOM     19  O   UNL     1       1.416   8.815  17.955  0.00  0.00    +0.000 OA
BRANCH  19  20
ATOM     20  C   UNL     1       1.245   9.915  18.746  0.00  0.00    +0.000 A 
ATOM     21  C   UNL     1       0.569   9.679  19.943  0.00  0.00    +0.000 A 
ATOM     22  C   UNL     1       0.409  10.705  20.878  0.00  0.00    +0.000 A 
ATOM     23  C   UNL     1       0.946  11.965  20.634  0.00  0.00    +0.000 A 
ATOM     24  C   UNL     1       1.588  12.216  19.419  0.00  0.00    +0.000 A 
ATOM     25  C   UNL     1       1.738  11.190  18.475  0.00  0.00    +0.000 A 
BRANCH  23  26
ATOM     26  O   UNL     1       0.761  12.890  21.624  0.00  0.00    +0.000 OA
ATOM     27  C   UNL     1       0.625  14.231  21.182  0.00  0.00    +0.000 C 
ENDBRANCH  23  26
ENDBRANCH  19  20
ENDBRANCH  18  19
ENDBRANCH   2  18
TORSDOF 8
ENDMDL
MODEL 8
REMARK VINA RESULT:      -7.3      5.296      7.560
REMARK  Name = 
REMARK  9 active torsions:
REMARK  status: ('A' for Active; 'I' for Inactive)
REMARK    1  A    between atoms: C_2  and  C_3
REMARK    2  A    between atoms: C_3  and  N_4
REMARK    3  A    between atoms: C_5  and  C_7
REMARK    4  A    between atoms: C_12  and  N_13
REMARK    5  A    between atoms: C_14  and  C_16
REMARK    6  A    between atoms: C_16  and  O_17
REMARK    7  A    between atoms: O_17  and  C_18
REMARK    8  A    between atoms: C_21  and  O_22
REMARK    9  A    between atoms: O_22  and  C_23
REMARK                            x       y       z     vdW  Elec       q    Type
REMARK                         _______ _______ _______ _____ _____    ______ ____
ROOT
ATOM      1  N   UNL     1       2.765   6.716  17.681  0.00  0.00    +0.000 N 
ATOM      2  C   UNL     1       2.300   7.655  18.595  0.00  0.00    +0.000 C 
ATOM      3  O   UNL     1       2.018   7.437  19.773  0.00  0.00    +0.000 OA
ATOM      4  H   UNL     1       3.127   7.051  16.786  0.00  0.00    +0.000 HD
ENDROOT
BRANCH   1  10
ATOM      5  C   UNL     1       4.045   4.618  17.970  0.00  0.00    +0.000 A 
ATOM      6  C   UNL     1       4.051   3.210  17.992  0.00  0.00    +0.000 A 
ATOM      7  C   UNL     1       2.876   2.488  18.144  0.00  0.00    +0.000 A 
ATOM      8  C   UNL     1       1.666   3.159  18.130  0.00  0.00    +0.000 A 
ATOM      9  C   UNL     1       1.640   4.542  17.942  0.00  0.00    +0.000 A 
ATOM     10  C   UNL     1       2.819   5.308  17.877  0.00  0.00    +0.000 A 
BRANCH   5  12
ATOM     11  N   UNL     1       6.003   5.773  16.937  0.00  0.00    +0.000 N 
ATOM     12  C   UNL     1       5.351   5.334  18.084  0.00  0.00    +0.000 C 
ATOM     13  O   UNL     1       5.851   5.502  19.194  0.00  0.00    +0.000 OA
ATOM     14  H   UNL     1       6.807   6.365  17.107  0.00  0.00    +0.000 HD
BRANCH  11  15
ATOM     15  C   UNL     1       5.600   5.539  15.562  0.00  0.00    +0.000 C 
BRANCH  15  17
ATOM     16  C   UNL     1       6.111   3.915  13.754  0.00  0.00    +0.000 C 
ATOM     17  C   UNL     1       6.494   4.579  14.855  0.00  0.00    +0.000 C 
ENDBRANCH  15  17
ENDBRANCH  11  15
ENDBRANCH   5  12
ENDBRANCH   1  10
BRANCH   2  18
ATOM     18  C   UNL     1       2.153   9.065  18.038  0.00  0.00    +0.000 C 
BRANCH  18  19
ATOM     19  O   UNL     1       1.433   9.816  19.004  0.00  0.00    +0.000 OA
BRANCH  19  20
ATOM     20  C   UNL     1       0.278  10.404  18.574  0.00  0.00    +0.000 A 
ATOM     21  C   UNL     1      -0.537   9.593  17.785  0.00  0.00    +0.000 A 
ATOM     22  C   UNL     1      -1.786  10.050  17.357  0.00  0.00    +0.000 A 
ATOM     23  C   UNL     1      -2.239  11.309  17.736  0.00  0.00    +0.000 A 
ATOM     24  C   UNL     1      -1.409  12.140  18.492  0.00  0.00    +0.000 A 
ATOM     25  C   UNL     1      -0.150  11.686  18.912  0.00  0.00    +0.000 A 
BRANCH  23  26
ATOM     26  O   UNL     1      -3.485  11.650  17.291  0.00  0.00    +0.000 OA
ATOM     27  C   UNL     1      -3.852  11.099  16.036  0.00  0.00    +0.000 C 
ENDBRANCH  23  26
ENDBRANCH  19  20
ENDBRANCH  18  19
ENDBRANCH   2  18
TORSDOF 8
ENDMDL
MODEL 9
REMARK VINA RESULT:      -7.3      5.345      7.271
REMARK  Name = 
REMARK  9 active torsions:
REMARK  status: ('A' for Active; 'I' for Inactive)
REMARK    1  A    between atoms: C_2  and  C_3
REMARK    2  A    between atoms: C_3  and  N_4
REMARK    3  A    between atoms: C_5  and  C_7
REMARK    4  A    between atoms: C_12  and  N_13
REMARK    5  A    between atoms: C_14  and  C_16
REMARK    6  A    between atoms: C_16  and  O_17
REMARK    7  A    between atoms: O_17  and  C_18
REMARK    8  A    between atoms: C_21  and  O_22
REMARK    9  A    between atoms: O_22  and  C_23
REMARK                            x       y       z     vdW  Elec       q    Type
REMARK                         _______ _______ _______ _____ _____    ______ ____
ROOT
ATOM      1  N   UNL     1       4.291   6.922  17.584  0.00  0.00    +0.000 N 
ATOM      2  C   UNL     1       2.989   6.696  18.018  0.00  0.00    +0.000 C 
ATOM      3  O   UNL     1       2.399   5.617  18.000  0.00  0.00    +0.000 OA
ATOM      4  H   UNL     1       4.727   7.818  17.809  0.00  0.00    +0.000 HD
ENDROOT
BRANCH   1  10
ATOM      5  C   UNL     1       5.930   5.069  17.533  0.00  0.00    +0.000 A 
ATOM      6  C   UNL     1       6.847   4.300  16.791  0.00  0.00    +0.000 A 
ATOM      7  C   UNL     1       6.812   4.277  15.404  0.00  0.00    +0.000 A 
ATOM      8  C   UNL     1       5.955   5.136  14.738  0.00  0.00    +0.000 A 
ATOM      9  C   UNL     1       5.158   6.023  15.463  0.00  0.00    +0.000 A 
ATOM     10  C   UNL     1       5.108   6.004  16.869  0.00  0.00    +0.000 A 
BRANCH   5  12
ATOM     11  N   UNL     1       5.054   3.800  19.496  0.00  0.00    +0.000 N 
ATOM     12  C   UNL     1       5.838   4.838  19.006  0.00  0.00    +0.000 C 
ATOM     13  O   UNL     1       6.436   5.590  19.771  0.00  0.00    +0.000 OA
ATOM     14  H   UNL     1       5.154   3.627  20.489  0.00  0.00    +0.000 HD
BRANCH  11  15
ATOM     15  C   UNL     1       4.199   2.915  18.726  0.00  0.00    +0.000 C 
BRANCH  15  17
ATOM     16  C   UNL     1       2.740   2.812  20.733  0.00  0.00    +0.000 C 
ATOM     17  C   UNL     1       3.107   2.313  19.543  0.00  0.00    +0.000 C 
ENDBRANCH  15  17
ENDBRANCH  11  15
ENDBRANCH   5  12
ENDBRANCH   1  10
BRANCH   2  18
ATOM     18  C   UNL     1       2.279   7.929  18.563  0.00  0.00    +0.000 C 
BRANCH  18  19
ATOM     19  O   UNL     1       1.937   7.644  19.911  0.00  0.00    +0.000 OA
BRANCH  19  20
ATOM     20  C   UNL     1       1.271   8.627  20.586  0.00  0.00    +0.000 A 
ATOM     21  C   UNL     1       0.738   9.635  19.783  0.00  0.00    +0.000 A 
ATOM     22  C   UNL     1      -0.040  10.649  20.346  0.00  0.00    +0.000 A 
ATOM     23  C   UNL     1      -0.313  10.648  21.710  0.00  0.00    +0.000 A 
ATOM     24  C   UNL     1       0.251   9.663  22.524  0.00  0.00    +0.000 A 
ATOM     25  C   UNL     1       1.043   8.652  21.960  0.00  0.00    +0.000 A 
BRANCH  23  26
ATOM     26  O   UNL     1      -1.109  11.666  22.156  0.00  0.00    +0.000 OA
ATOM     27  C   UNL     1      -1.873  11.374  23.315  0.00  0.00    +0.000 C 
ENDBRANCH  23  26
ENDBRANCH  19  20
ENDBRANCH  18  19
ENDBRANCH   2  18
TORSDOF 8
ENDMDL
