MODEL 1
REMARK VINA RESULT:      -6.8      0.000      0.000
REMARK  Name = 
REMARK  5 active torsions:
REMARK  status: ('A' for Active; 'I' for Inactive)
REMARK    1  A    between atoms: C_1  and  O_2
REMARK    2  A    between atoms: O_2  and  C_3
REMARK    3  A    between atoms: C_6  and  N_7
REMARK    4  A    between atoms: C_8  and  C_10
REMARK    5  A    between atoms: C_15  and  C_16
REMARK                            x       y       z     vdW  Elec       q    Type
REMARK                         _______ _______ _______ _____ _____    ______ ____
ROOT
ATOM      1  N   UNL     1       4.426   4.211  17.847  0.00  0.00    +0.000 N 
ATOM      2  C   UNL     1       3.895   2.970  18.172  0.00  0.00    +0.000 C 
ATOM      3  O   UNL     1       4.129   1.911  17.602  0.00  0.00    +0.000 OA
ATOM      4  H   UNL     1       4.154   4.999  18.419  0.00  0.00    +0.000 HD
ENDROOT
BRANCH   2   5
ATOM      5  C   UNL     1       2.956   2.962  19.337  0.00  0.00    +0.000 A 
ATOM      6  C   UNL     1       3.416   2.510  20.586  0.00  0.00    +0.000 A 
ATOM      7  C   UNL     1       2.564   2.489  21.691  0.00  0.00    +0.000 A 
ATOM      8  C   UNL     1       1.254   2.937  21.566  0.00  0.00    +0.000 A 
ATOM      9  C   UNL     1       0.793   3.416  20.341  0.00  0.00    +0.000 A 
ATOM     10  C   UNL     1       1.630   3.433  19.211  0.00  0.00    +0.000 A 
ATOM     11  C   UNL     1       1.080   3.982  17.921  0.00  0.00    +0.000 C 
ENDBRANCH   2   5
BRANCH   1  15
ATOM     12  C   UNL     1       7.127   5.068  14.704  0.00  0.00    +0.000 A 
ATOM     13  C   UNL     1       7.548   5.181  16.026  0.00  0.00    +0.000 A 
ATOM     14  C   UNL     1       6.680   4.881  17.080  0.00  0.00    +0.000 A 
ATOM     15  C   UNL     1       5.368   4.488  16.829  0.00  0.00    +0.000 A 
ATOM     16  C   UNL     1       4.943   4.382  15.496  0.00  0.00    +0.000 A 
ATOM     17  C   UNL     1       5.820   4.668  14.438  0.00  0.00    +0.000 A 
BRANCH  12  19
ATOM     18  C   UNL     1       7.710   5.186  12.416  0.00  0.00    +0.000 C 
ATOM     19  O   UNL     1       8.065   5.415  13.772  0.00  0.00    +0.000 OA
ENDBRANCH  12  19
ENDBRANCH   1  15
TORSDOF 3
ENDMDL
MODEL 2
REMARK VINA RESULT:      -6.7      1.125      1.125
REMARK  Name = 
REMARK  5 active torsions:
REMARK  status: ('A' for Active; 'I' for Inactive)
REMARK    1  A    between atoms: C_1  and  O_2
REMARK    2  A    between atoms: O_2  and  C_3
REMARK    3  A    between atoms: C_6  and  N_7
REMARK    4  A    between atoms: C_8  and  C_10
REMARK    5  A    between atoms: C_15  and  C_16
REMARK                            x       y       z     vdW  Elec       q    Type
REMARK                         _______ _______ _______ _____ _____    ______ ____
ROOT
ATOM      1  N   UNL     1       4.508   3.783  17.715  0.00  0.00    +0.000 N 
ATOM      2  C   UNL     1       3.983   4.575  18.727  0.00  0.00    +0.000 C 
ATOM      3  O   UNL     1       4.273   5.743  18.955  0.00  0.00    +0.000 OA
ATOM      4  H   UNL     1       4.161   2.837  17.636  0.00  0.00    +0.000 HD
ENDROOT
BRANCH   2   5
ATOM      5  C   UNL     1       2.966   3.908  19.599  0.00  0.00    +0.000 A 
ATOM      6  C   UNL     1       3.334   3.504  20.894  0.00  0.00    +0.000 A 
ATOM      7  C   UNL     1       2.408   2.878  21.731  0.00  0.00    +0.000 A 
ATOM      8  C   UNL     1       1.106   2.669  21.293  0.00  0.00    +0.000 A 
ATOM      9  C   UNL     1       0.719   3.094  20.022  0.00  0.00    +0.000 A 
ATOM     10  C   UNL     1       1.639   3.713  19.157  0.00  0.00    +0.000 A 
ATOM     11  C   UNL     1       1.156   4.168  17.805  0.00  0.00    +0.000 C 
ENDBRANCH   2   5
BRANCH   1  15
ATOM     12  C   UNL     1       7.187   4.978  14.664  0.00  0.00    +0.000 A 
ATOM     13  C   UNL     1       7.551   5.124  16.000  0.00  0.00    +0.000 A 
ATOM     14  C   UNL     1       6.692   4.715  17.024  0.00  0.00    +0.000 A 
ATOM     15  C   UNL     1       5.442   4.177  16.729  0.00  0.00    +0.000 A 
ATOM     16  C   UNL     1       5.073   4.038  15.382  0.00  0.00    +0.000 A 
ATOM     17  C   UNL     1       5.942   4.434  14.354  0.00  0.00    +0.000 A 
BRANCH  12  19
ATOM     18  C   UNL     1       7.750   5.326  12.395  0.00  0.00    +0.000 C 
ATOM     19  O   UNL     1       8.106   5.440  13.765  0.00  0.00    +0.000 OA
ENDBRANCH  12  19
ENDBRANCH   1  15
TORSDOF 3
ENDMDL
MODEL 3
REMARK VINA RESULT:      -6.6      0.378      1.654
REMARK  Name = 
REMARK  5 active torsions:
REMARK  status: ('A' for Active; 'I' for Inactive)
REMARK    1  A    between atoms: C_1  and  O_2
REMARK    2  A    between atoms: O_2  and  C_3
REMARK    3  A    between atoms: C_6  and  N_7
REMARK    4  A    between atoms: C_8  and  C_10
REMARK    5  A    between atoms: C_15  and  C_16
REMARK                            x       y       z     vdW  Elec       q    Type
REMARK                         _______ _______ _______ _____ _____    ______ ____
ROOT
ATOM      1  N   UNL     1       4.446   4.218  17.887  0.00  0.00    +0.000 N 
ATOM      2  C   UNL     1       3.757   3.034  18.111  0.00  0.00    +0.000 C 
ATOM      3  O   UNL     1       3.813   2.022  17.422  0.00  0.00    +0.000 OA
ATOM      4  H   UNL     1       4.313   4.968  18.552  0.00  0.00    +0.000 HD
ENDROOT
BRANCH   2   5
ATOM      5  C   UNL     1       2.876   3.025  19.321  0.00  0.00    +0.000 A 
ATOM      6  C   UNL     1       1.560   3.509  19.214  0.00  0.00    +0.000 A 
ATOM      7  C   UNL     1       0.715   3.516  20.324  0.00  0.00    +0.000 A 
ATOM      8  C   UNL     1       1.165   3.022  21.543  0.00  0.00    +0.000 A 
ATOM      9  C   UNL     1       2.458   2.510  21.655  0.00  0.00    +0.000 A 
ATOM     10  C   UNL     1       3.331   2.507  20.554  0.00  0.00    +0.000 A 
ATOM     11  C   UNL     1       4.707   1.922  20.733  0.00  0.00    +0.000 C 
ENDBRANCH   2   5
BRANCH   1  15
ATOM     12  C   UNL     1       7.107   5.039  14.700  0.00  0.00    +0.000 A 
ATOM     13  C   UNL     1       7.593   4.954  16.002  0.00  0.00    +0.000 A 
ATOM     14  C   UNL     1       6.737   4.661  17.067  0.00  0.00    +0.000 A 
ATOM     15  C   UNL     1       5.374   4.475  16.851  0.00  0.00    +0.000 A 
ATOM     16  C   UNL     1       4.883   4.569  15.540  0.00  0.00    +0.000 A 
ATOM     17  C   UNL     1       5.747   4.846  14.468  0.00  0.00    +0.000 A 
BRANCH  12  19
ATOM     18  C   UNL     1       7.645   5.193  12.403  0.00  0.00    +0.000 C 
ATOM     19  O   UNL     1       8.044   5.355  13.757  0.00  0.00    +0.000 OA
ENDBRANCH  12  19
ENDBRANCH   1  15
TORSDOF 3
ENDMDL
MODEL 4
REMARK VINA RESULT:      -6.6      1.249      1.949
REMARK  Name = 
REMARK  5 active torsions:
REMARK  status: ('A' for Active; 'I' for Inactive)
REMARK    1  A    between atoms: C_1  and  O_2
REMARK    2  A    between atoms: O_2  and  C_3
REMARK    3  A    between atoms: C_6  and  N_7
REMARK    4  A    between atoms: C_8  and  C_10
REMARK    5  A    between atoms: C_15  and  C_16
REMARK                            x       y       z     vdW  Elec       q    Type
REMARK                         _______ _______ _______ _____ _____    ______ ____
ROOT
ATOM      1  N   UNL     1       4.484   3.862  17.706  0.00  0.00    +0.000 N 
ATOM      2  C   UNL     1       4.316   4.478  18.939  0.00  0.00    +0.000 C 
ATOM      3  O   UNL     1       4.972   5.416  19.375  0.00  0.00    +0.000 OA
ATOM      4  H   UNL     1       3.855   3.106  17.472  0.00  0.00    +0.000 HD
ENDROOT
BRANCH   2   5
ATOM      5  C   UNL     1       3.216   3.920  19.788  0.00  0.00    +0.000 A 
ATOM      6  C   UNL     1       1.965   4.561  19.797  0.00  0.00    +0.000 A 
ATOM      7  C   UNL     1       0.921   4.066  20.579  0.00  0.00    +0.000 A 
ATOM      8  C   UNL     1       1.107   2.918  21.340  0.00  0.00    +0.000 A 
ATOM      9  C   UNL     1       2.333   2.254  21.316  0.00  0.00    +0.000 A 
ATOM     10  C   UNL     1       3.404   2.743  20.547  0.00  0.00    +0.000 A 
ATOM     11  C   UNL     1       4.696   1.970  20.546  0.00  0.00    +0.000 C 
ENDBRANCH   2   5
BRANCH   1  15
ATOM     12  C   UNL     1       7.139   4.971  14.602  0.00  0.00    +0.000 A 
ATOM     13  C   UNL     1       7.577   4.986  15.924  0.00  0.00    +0.000 A 
ATOM     14  C   UNL     1       6.724   4.602  16.963  0.00  0.00    +0.000 A 
ATOM     15  C   UNL     1       5.411   4.222  16.700  0.00  0.00    +0.000 A 
ATOM     16  C   UNL     1       4.969   4.215  15.368  0.00  0.00    +0.000 A 
ATOM     17  C   UNL     1       5.830   4.585  14.324  0.00  0.00    +0.000 A 
BRANCH  12  19
ATOM     18  C   UNL     1       7.697   5.253  12.323  0.00  0.00    +0.000 C 
ATOM     19  O   UNL     1       8.062   5.394  13.688  0.00  0.00    +0.000 OA
ENDBRANCH  12  19
ENDBRANCH   1  15
TORSDOF 3
ENDMDL
MODEL 5
REMARK VINA RESULT:      -6.6      0.203      1.125
REMARK  Name = 
REMARK  5 active torsions:
REMARK  status: ('A' for Active; 'I' for Inactive)
REMARK    1  A    between atoms: C_1  and  O_2
REMARK    2  A    between atoms: O_2  and  C_3
REMARK    3  A    between atoms: C_6  and  N_7
REMARK    4  A    between atoms: C_8  and  C_10
REMARK    5  A    between atoms: C_15  and  C_16
REMARK                            x       y       z     vdW  Elec       q    Type
REMARK                         _______ _______ _______ _____ _____    ______ ____
ROOT
ATOM      1  N   UNL     1       4.334   4.286  17.768  0.00  0.00    +0.000 N 
ATOM      2  C   UNL     1       3.866   3.029  18.126  0.00  0.00    +0.000 C 
ATOM      3  O   UNL     1       4.154   1.969  17.583  0.00  0.00    +0.000 OA
ATOM      4  H   UNL     1       4.023   5.074  18.319  0.00  0.00    +0.000 HD
ENDROOT
BRANCH   2   5
ATOM      5  C   UNL     1       2.929   3.003  19.292  0.00  0.00    +0.000 A 
ATOM      6  C   UNL     1       3.403   2.571  20.543  0.00  0.00    +0.000 A 
ATOM      7  C   UNL     1       2.553   2.534  21.649  0.00  0.00    +0.000 A 
ATOM      8  C   UNL     1       1.233   2.948  21.524  0.00  0.00    +0.000 A 
ATOM      9  C   UNL     1       0.757   3.408  20.297  0.00  0.00    +0.000 A 
ATOM     10  C   UNL     1       1.592   3.440  19.165  0.00  0.00    +0.000 A 
ATOM     11  C   UNL     1       1.026   3.968  17.873  0.00  0.00    +0.000 C 
ENDBRANCH   2   5
BRANCH   1  15
ATOM     12  C   UNL     1       7.215   5.194  14.803  0.00  0.00    +0.000 A 
ATOM     13  C   UNL     1       6.067   4.486  14.457  0.00  0.00    +0.000 A 
ATOM     14  C   UNL     1       5.091   4.195  15.415  0.00  0.00    +0.000 A 
ATOM     15  C   UNL     1       5.260   4.584  16.741  0.00  0.00    +0.000 A 
ATOM     16  C   UNL     1       6.421   5.291  17.090  0.00  0.00    +0.000 A 
ATOM     17  C   UNL     1       7.393   5.597  16.125  0.00  0.00    +0.000 A 
BRANCH  12  19
ATOM     18  C   UNL     1       7.611   5.109  12.475  0.00  0.00    +0.000 C 
ATOM     19  O   UNL     1       8.098   5.390  13.779  0.00  0.00    +0.000 OA
ENDBRANCH  12  19
ENDBRANCH   1  15
TORSDOF 3
ENDMDL
MODEL 6
REMARK VINA RESULT:      -6.5      1.345      1.362
REMARK  Name = 
REMARK  5 active torsions:
REMARK  status: ('A' for Active; 'I' for Inactive)
REMARK    1  A    between atoms: C_1  and  O_2
REMARK    2  A    between atoms: O_2  and  C_3
REMARK    3  A    between atoms: C_6  and  N_7
REMARK    4  A    between atoms: C_8  and  C_10
REMARK    5  A    between atoms: C_15  and  C_16
REMARK                            x       y       z     vdW  Elec       q    Type
REMARK                         _______ _______ _______ _____ _____    ______ ____
ROOT
ATOM      1  N   UNL     1       4.447   4.258  17.613  0.00  0.00    +0.000 N 
ATOM      2  C   UNL     1       4.671   4.135  18.978  0.00  0.00    +0.000 C 
ATOM      3  O   UNL     1       5.749   4.250  19.548  0.00  0.00    +0.000 OA
ATOM      4  H   UNL     1       3.497   4.152  17.284  0.00  0.00    +0.000 HD
ENDROOT
BRANCH   2   5
ATOM      5  C   UNL     1       3.456   3.838  19.800  0.00  0.00    +0.000 A 
ATOM      6  C   UNL     1       3.328   2.574  20.402  0.00  0.00    +0.000 A 
ATOM      7  C   UNL     1       2.206   2.267  21.173  0.00  0.00    +0.000 A 
ATOM      8  C   UNL     1       1.215   3.222  21.370  0.00  0.00    +0.000 A 
ATOM      9  C   UNL     1       1.345   4.491  20.804  0.00  0.00    +0.000 A 
ATOM     10  C   UNL     1       2.459   4.817  20.012  0.00  0.00    +0.000 A 
ATOM     11  C   UNL     1       2.552   6.210  19.446  0.00  0.00    +0.000 C 
ENDBRANCH   2   5
BRANCH   1  15
ATOM     12  C   UNL     1       7.224   5.156  14.548  0.00  0.00    +0.000 A 
ATOM     13  C   UNL     1       7.236   5.893  15.728  0.00  0.00    +0.000 A 
ATOM     14  C   UNL     1       6.344   5.599  16.764  0.00  0.00    +0.000 A 
ATOM     15  C   UNL     1       5.405   4.580  16.624  0.00  0.00    +0.000 A 
ATOM     16  C   UNL     1       5.389   3.842  15.430  0.00  0.00    +0.000 A 
ATOM     17  C   UNL     1       6.296   4.127  14.397  0.00  0.00    +0.000 A 
BRANCH  12  19
ATOM     18  C   UNL     1       7.814   5.244  12.260  0.00  0.00    +0.000 C 
ATOM     19  O   UNL     1       8.129   5.562  13.609  0.00  0.00    +0.000 OA
ENDBRANCH  12  19
ENDBRANCH   1  15
TORSDOF 3
ENDMDL
MODEL 7
REMARK VINA RESULT:      -6.5      1.257      2.242
REMARK  Name = 
REMARK  5 active torsions:
REMARK  status: ('A' for Active; 'I' for Inactive)
REMARK    1  A    between atoms: C_1  and  O_2
REMARK    2  A    between atoms: O_2  and  C_3
REMARK    3  A    between atoms: C_6  and  N_7
REMARK    4  A    between atoms: C_8  and  C_10
REMARK    5  A    between atoms: C_15  and  C_16
REMARK                            x       y       z     vdW  Elec       q    Type
REMARK                         _______ _______ _______ _____ _____    ______ ____
ROOT
ATOM      1  N   UNL     1       4.390   3.960  17.616  0.00  0.00    +0.000 N 
ATOM      2  C   UNL     1       4.240   4.555  18.862  0.00  0.00    +0.000 C 
ATOM      3  O   UNL     1       4.896   5.492  19.300  0.00  0.00    +0.000 OA
ATOM      4  H   UNL     1       3.764   3.202  17.383  0.00  0.00    +0.000 HD
ENDROOT
BRANCH   2   5
ATOM      5  C   UNL     1       3.161   3.975  19.721  0.00  0.00    +0.000 A 
ATOM      6  C   UNL     1       1.905   4.604  19.763  0.00  0.00    +0.000 A 
ATOM      7  C   UNL     1       0.879   4.089  20.556  0.00  0.00    +0.000 A 
ATOM      8  C   UNL     1       1.089   2.932  21.297  0.00  0.00    +0.000 A 
ATOM      9  C   UNL     1       2.321   2.279  21.241  0.00  0.00    +0.000 A 
ATOM     10  C   UNL     1       3.373   2.789  20.460  0.00  0.00    +0.000 A 
ATOM     11  C   UNL     1       4.672   2.028  20.425  0.00  0.00    +0.000 C 
ENDBRANCH   2   5
BRANCH   1  15
ATOM     12  C   UNL     1       7.215   5.054  14.661  0.00  0.00    +0.000 A 
ATOM     13  C   UNL     1       5.890   4.824  14.299  0.00  0.00    +0.000 A 
ATOM     14  C   UNL     1       4.935   4.484  15.261  0.00  0.00    +0.000 A 
ATOM     15  C   UNL     1       5.295   4.342  16.599  0.00  0.00    +0.000 A 
ATOM     16  C   UNL     1       6.633   4.566  16.961  0.00  0.00    +0.000 A 
ATOM     17  C   UNL     1       7.587   4.924  15.996  0.00  0.00    +0.000 A 
BRANCH  12  19
ATOM     18  C   UNL     1       7.587   4.994  12.327  0.00  0.00    +0.000 C 
ATOM     19  O   UNL     1       8.049   5.354  13.621  0.00  0.00    +0.000 OA
ENDBRANCH  12  19
ENDBRANCH   1  15
TORSDOF 3
ENDMDL
MODEL 8
REMARK VINA RESULT:      -6.4      1.331      1.575
REMARK  Name = 
REMARK  5 active torsions:
REMARK  status: ('A' for Active; 'I' for Inactive)
REMARK    1  A    between atoms: C_1  and  O_2
REMARK    2  A    between atoms: O_2  and  C_3
REMARK    3  A    between atoms: C_6  and  N_7
REMARK    4  A    between atoms: C_8  and  C_10
REMARK    5  A    between atoms: C_15  and  C_16
REMARK                            x       y       z     vdW  Elec       q    Type
REMARK                         _______ _______ _______ _____ _____    ______ ____
ROOT
ATOM      1  N   UNL     1       4.422   4.293  17.350  0.00  0.00    +0.000 N 
ATOM      2  C   UNL     1       4.615   4.011  18.696  0.00  0.00    +0.000 C 
ATOM      3  O   UNL     1       5.692   3.968  19.279  0.00  0.00    +0.000 OA
ATOM      4  H   UNL     1       3.471   4.309  17.009  0.00  0.00    +0.000 HD
ENDROOT
BRANCH   2   5
ATOM      5  C   UNL     1       3.368   3.746  19.479  0.00  0.00    +0.000 A 
ATOM      6  C   UNL     1       2.809   4.780  20.250  0.00  0.00    +0.000 A 
ATOM      7  C   UNL     1       1.647   4.563  20.992  0.00  0.00    +0.000 A 
ATOM      8  C   UNL     1       1.022   3.322  20.956  0.00  0.00    +0.000 A 
ATOM      9  C   UNL     1       1.548   2.296  20.171  0.00  0.00    +0.000 A 
ATOM     10  C   UNL     1       2.725   2.488  19.427  0.00  0.00    +0.000 A 
ATOM     11  C   UNL     1       3.232   1.349  18.583  0.00  0.00    +0.000 C 
ENDBRANCH   2   5
BRANCH   1  15
ATOM     12  C   UNL     1       7.326   5.208  14.410  0.00  0.00    +0.000 A 
ATOM     13  C   UNL     1       7.212   6.011  15.542  0.00  0.00    +0.000 A 
ATOM     14  C   UNL     1       6.276   5.714  16.537  0.00  0.00    +0.000 A 
ATOM     15  C   UNL     1       5.419   4.625  16.403  0.00  0.00    +0.000 A 
ATOM     16  C   UNL     1       5.530   3.821  15.258  0.00  0.00    +0.000 A 
ATOM     17  C   UNL     1       6.481   4.109  14.267  0.00  0.00    +0.000 A 
BRANCH  12  19
ATOM     18  C   UNL     1       7.886   5.538  12.138  0.00  0.00    +0.000 C 
ATOM     19  O   UNL     1       8.261   5.623  13.505  0.00  0.00    +0.000 OA
ENDBRANCH  12  19
ENDBRANCH   1  15
TORSDOF 3
ENDMDL
MODEL 9
REMARK VINA RESULT:      -6.4      1.387      1.816
REMARK  Name = 
REMARK  5 active torsions:
REMARK  status: ('A' for Active; 'I' for Inactive)
REMARK    1  A    between atoms: C_1  and  O_2
REMARK    2  A    between atoms: O_2  and  C_3
REMARK    3  A    between atoms: C_6  and  N_7
REMARK    4  A    between atoms: C_8  and  C_10
REMARK    5  A    between atoms: C_15  and  C_16
REMARK                            x       y       z     vdW  Elec       q    Type
REMARK                         _______ _______ _______ _____ _____    ______ ____
ROOT
ATOM      1  N   UNL     1       4.585   3.964  17.639  0.00  0.00    +0.000 N 
ATOM      2  C   UNL     1       3.488   4.656  18.137  0.00  0.00    +0.000 C 
ATOM      3  O   UNL     1       3.057   5.724  17.720  0.00  0.00    +0.000 OA
ATOM      4  H   UNL     1       4.817   3.082  18.074  0.00  0.00    +0.000 HD
ENDROOT
BRANCH   2   5
ATOM      5  C   UNL     1       2.789   4.004  19.288  0.00  0.00    +0.000 A 
ATOM      6  C   UNL     1       2.742   4.667  20.526  0.00  0.00    +0.000 A 
ATOM      7  C   UNL     1       2.099   4.083  21.619  0.00  0.00    +0.000 A 
ATOM      8  C   UNL     1       1.481   2.846  21.481  0.00  0.00    +0.000 A 
ATOM      9  C   UNL     1       1.494   2.191  20.250  0.00  0.00    +0.000 A 
ATOM     10  C   UNL     1       2.148   2.753  19.140  0.00  0.00    +0.000 A 
ATOM     11  C   UNL     1       2.109   2.008  17.832  0.00  0.00    +0.000 C 
ENDBRANCH   2   5
BRANCH   1  15
ATOM     12  C   UNL     1       7.105   5.083  14.428  0.00  0.00    +0.000 A 
ATOM     13  C   UNL     1       5.957   4.336  14.177  0.00  0.00    +0.000 A 
ATOM     14  C   UNL     1       5.098   3.975  15.219  0.00  0.00    +0.000 A 
ATOM     15  C   UNL     1       5.387   4.332  16.534  0.00  0.00    +0.000 A 
ATOM     16  C   UNL     1       6.548   5.078  16.786  0.00  0.00    +0.000 A 
ATOM     17  C   UNL     1       7.402   5.455  15.737  0.00  0.00    +0.000 A 
BRANCH  12  19
ATOM     18  C   UNL     1       7.464   4.713  12.121  0.00  0.00    +0.000 C 
ATOM     19  O   UNL     1       7.869   5.346  13.327  0.00  0.00    +0.000 OA
ENDBRANCH  12  19
ENDBRANCH   1  15
TORSDOF 3
ENDMDL
