MODEL 1
REMARK VINA RESULT:      -7.6      0.000      0.000
REMARK  Name = 
REMARK  9 active torsions:
REMARK  status: ('A' for Active; 'I' for Inactive)
REMARK    1  A    between atoms: C_1  and  O_2
REMARK    2  A    between atoms: O_2  and  C_3
REMARK    3  A    between atoms: C_6  and  C_7
REMARK    4  A    between atoms: C_7  and  C_8
REMARK    5  A    between atoms: C_7  and  N_22
REMARK    6  A    between atoms: C_8  and  N_9
REMARK    7  A    between atoms: C_10  and  C_12
REMARK    8  A    between atoms: N_22  and  C_23
REMARK    9  A    between atoms: N_22  and  C_24
REMARK                            x       y       z     vdW  Elec       q    Type
REMARK                         _______ _______ _______ _____ _____    ______ ____
ROOT
ATOM      1  N   UNL     1       1.988   5.746  19.032  0.00  0.00    +0.000 N 
ATOM      2  C   UNL     1       2.297   7.051  18.705  0.00  0.00    +0.000 C 
ATOM      3  O   UNL     1       3.075   7.343  17.802  0.00  0.00    +0.000 OA
ATOM      4  H   UNL     1       1.546   5.524  19.915  0.00  0.00    +0.000 HD
ENDROOT
BRANCH   2   5
ATOM      5  C   UNL     1       1.707   8.124  19.551  0.00  0.00    +0.000 A 
ATOM      6  C   UNL     1       1.502   7.977  20.929  0.00  0.00    +0.000 A 
ATOM      7  C   UNL     1       1.048   9.065  21.686  0.00  0.00    +0.000 A 
ATOM      8  C   UNL     1       0.810  10.296  21.072  0.00  0.00    +0.000 A 
ATOM      9  C   UNL     1       0.935  10.411  19.688  0.00  0.00    +0.000 A 
ATOM     10  C   UNL     1       1.365   9.329  18.925  0.00  0.00    +0.000 A 
ATOM     11  O   UNL     1       0.674  11.579  19.022  0.00  0.00    +0.000 OA
ATOM     12  C   UNL     1       1.027  12.679  19.858  0.00  0.00    +0.000 C 
ATOM     13  C   UNL     1       0.339  12.597  21.214  0.00  0.00    +0.000 C 
ATOM     14  O   UNL     1       0.505  11.346  21.893  0.00  0.00    +0.000 OA
ENDBRANCH   2   5
BRANCH   1  15
ATOM     15  C   UNL     1       2.618   4.652  18.307  0.00  0.00    +0.000 C 
BRANCH  15  16
ATOM     16  C   UNL     1       4.007   4.200  18.856  0.00  0.00    +0.000 C 
BRANCH  16  20
ATOM     17  C   UNL     1       6.973   4.997  15.766  0.00  0.00    +0.000 A 
ATOM     18  C   UNL     1       5.630   4.818  15.436  0.00  0.00    +0.000 A 
ATOM     19  C   UNL     1       4.677   4.564  16.429  0.00  0.00    +0.000 A 
ATOM     20  C   UNL     1       5.064   4.465  17.774  0.00  0.00    +0.000 A 
ATOM     21  C   UNL     1       6.427   4.594  18.087  0.00  0.00    +0.000 A 
ATOM     22  C   UNL     1       7.374   4.871  17.096  0.00  0.00    +0.000 A 
BRANCH  17  24
ATOM     23  C   UNL     1       7.311   4.892  13.427  0.00  0.00    +0.000 C 
ATOM     24  O   UNL     1       7.810   5.246  14.713  0.00  0.00    +0.000 OA
ENDBRANCH  17  24
ENDBRANCH  16  20
BRANCH  16  25
ATOM     25  N   UNL     1       4.056   2.795  19.376  0.00  0.00    +0.000 NA
ATOM     26  C   UNL     1       3.264   2.670  20.616  0.00  0.00    +0.000 C 
ATOM     27  C   UNL     1       3.515   1.832  18.408  0.00  0.00    +0.000 C 
ENDBRANCH  16  25
ENDBRANCH  15  16
ENDBRANCH   1  15
TORSDOF 6
ENDMDL
MODEL 2
REMARK VINA RESULT:      -7.6      2.186      4.196
REMARK  Name = 
REMARK  9 active torsions:
REMARK  status: ('A' for Active; 'I' for Inactive)
REMARK    1  A    between atoms: C_1  and  O_2
REMARK    2  A    between atoms: O_2  and  C_3
REMARK    3  A    between atoms: C_6  and  C_7
REMARK    4  A    between atoms: C_7  and  C_8
REMARK    5  A    between atoms: C_7  and  N_22
REMARK    6  A    between atoms: C_8  and  N_9
REMARK    7  A    between atoms: C_10  and  C_12
REMARK    8  A    between atoms: N_22  and  C_23
REMARK    9  A    between atoms: N_22  and  C_24
REMARK                            x       y       z     vdW  Elec       q    Type
REMARK                         _______ _______ _______ _____ _____    ______ ____
ROOT
ATOM      1  N   UNL     1       3.184   7.297  18.193  0.00  0.00    +0.000 N 
ATOM      2  C   UNL     1       2.343   8.391  18.176  0.00  0.00    +0.000 C 
ATOM      3  O   UNL     1       2.279   9.164  17.226  0.00  0.00    +0.000 OA
ATOM      4  H   UNL     1       3.399   6.822  19.060  0.00  0.00    +0.000 HD
ENDROOT
BRANCH   2   5
ATOM      5  C   UNL     1       1.550   8.661  19.407  0.00  0.00    +0.000 A 
ATOM      6  C   UNL     1       1.659   7.880  20.566  0.00  0.00    +0.000 A 
ATOM      7  C   UNL     1       0.970   8.255  21.726  0.00  0.00    +0.000 A 
ATOM      8  C   UNL     1       0.185   9.410  21.733  0.00  0.00    +0.000 A 
ATOM      9  C   UNL     1       0.014  10.134  20.554  0.00  0.00    +0.000 A 
ATOM     10  C   UNL     1       0.678   9.756  19.390  0.00  0.00    +0.000 A 
ATOM     11  O   UNL     1      -0.777  11.249  20.486  0.00  0.00    +0.000 OA
ATOM     12  C   UNL     1      -0.722  11.935  21.735  0.00  0.00    +0.000 C 
ATOM     13  C   UNL     1      -1.082  11.017  22.895  0.00  0.00    +0.000 C 
ATOM     14  O   UNL     1      -0.343   9.789  22.935  0.00  0.00    +0.000 OA
ENDBRANCH   2   5
BRANCH   1  15
ATOM     15  C   UNL     1       4.060   7.043  17.059  0.00  0.00    +0.000 C 
BRANCH  15  16
ATOM     16  C   UNL     1       4.641   5.597  16.974  0.00  0.00    +0.000 C 
BRANCH  16  20
ATOM     17  C   UNL     1       2.194   3.021  19.495  0.00  0.00    +0.000 A 
ATOM     18  C   UNL     1       3.486   3.378  19.882  0.00  0.00    +0.000 A 
ATOM     19  C   UNL     1       4.270   4.207  19.073  0.00  0.00    +0.000 A 
ATOM     20  C   UNL     1       3.776   4.676  17.846  0.00  0.00    +0.000 A 
ATOM     21  C   UNL     1       2.494   4.266  17.444  0.00  0.00    +0.000 A 
ATOM     22  C   UNL     1       1.703   3.457  18.266  0.00  0.00    +0.000 A 
BRANCH  17  24
ATOM     23  C   UNL     1       1.518   2.636  21.730  0.00  0.00    +0.000 C 
ATOM     24  O   UNL     1       1.521   2.212  20.370  0.00  0.00    +0.000 OA
ENDBRANCH  17  24
ENDBRANCH  16  20
BRANCH  16  25
ATOM     25  N   UNL     1       6.102   5.482  17.291  0.00  0.00    +0.000 NA
ATOM     26  C   UNL     1       6.791   4.652  16.283  0.00  0.00    +0.000 C 
ATOM     27  C   UNL     1       6.764   6.794  17.310  0.00  0.00    +0.000 C 
ENDBRANCH  16  25
ENDBRANCH  15  16
ENDBRANCH   1  15
TORSDOF 6
ENDMDL
MODEL 3
REMARK VINA RESULT:      -7.6      1.092      1.688
REMARK  Name = 
REMARK  9 active torsions:
REMARK  status: ('A' for Active; 'I' for Inactive)
REMARK    1  A    between atoms: C_1  and  O_2
REMARK    2  A    between atoms: O_2  and  C_3
REMARK    3  A    between atoms: C_6  and  C_7
REMARK    4  A    between atoms: C_7  and  C_8
REMARK    5  A    between atoms: C_7  and  N_22
REMARK    6  A    between atoms: C_8  and  N_9
REMARK    7  A    between atoms: C_10  and  C_12
REMARK    8  A    between atoms: N_22  and  C_23
REMARK    9  A    between atoms: N_22  and  C_24
REMARK                            x       y       z     vdW  Elec       q    Type
REMARK                         _______ _______ _______ _____ _____    ______ ____
ROOT
ATOM      1  N   UNL     1       2.392   5.925  18.497  0.00  0.00    +0.000 N 
ATOM      2  C   UNL     1       2.005   6.355  19.750  0.00  0.00    +0.000 C 
ATOM      3  O   UNL     1       1.854   5.590  20.697  0.00  0.00    +0.000 OA
ATOM      4  H   UNL     1       2.277   6.520  17.687  0.00  0.00    +0.000 HD
ENDROOT
BRANCH   2   5
ATOM      5  C   UNL     1       1.691   7.801  19.908  0.00  0.00    +0.000 A 
ATOM      6  C   UNL     1       1.702   8.701  18.834  0.00  0.00    +0.000 A 
ATOM      7  C   UNL     1       1.287  10.025  19.030  0.00  0.00    +0.000 A 
ATOM      8  C   UNL     1       0.854  10.445  20.289  0.00  0.00    +0.000 A 
ATOM      9  C   UNL     1       0.928   9.569  21.370  0.00  0.00    +0.000 A 
ATOM     10  C   UNL     1       1.359   8.257  21.189  0.00  0.00    +0.000 A 
ATOM     11  O   UNL     1       0.559   9.934  22.638  0.00  0.00    +0.000 OA
ATOM     12  C   UNL     1      -0.513  10.870  22.558  0.00  0.00    +0.000 C 
ATOM     13  C   UNL     1      -0.156  12.057  21.673  0.00  0.00    +0.000 C 
ATOM     14  O   UNL     1       0.334  11.706  20.373  0.00  0.00    +0.000 OA
ENDBRANCH   2   5
BRANCH   1  15
ATOM     15  C   UNL     1       2.611   4.506  18.257  0.00  0.00    +0.000 C 
BRANCH  15  16
ATOM     16  C   UNL     1       4.001   3.959  18.710  0.00  0.00    +0.000 C 
BRANCH  16  20
ATOM     17  C   UNL     1       6.916   5.097  15.679  0.00  0.00    +0.000 A 
ATOM     18  C   UNL     1       5.728   4.457  15.322  0.00  0.00    +0.000 A 
ATOM     19  C   UNL     1       4.792   4.094  16.296  0.00  0.00    +0.000 A 
ATOM     20  C   UNL     1       5.044   4.349  17.653  0.00  0.00    +0.000 A 
ATOM     21  C   UNL     1       6.265   4.945  18.003  0.00  0.00    +0.000 A 
ATOM     22  C   UNL     1       7.190   5.329  17.026  0.00  0.00    +0.000 A 
BRANCH  17  24
ATOM     23  C   UNL     1       7.364   4.915  13.363  0.00  0.00    +0.000 C 
ATOM     24  O   UNL     1       7.751   5.409  14.641  0.00  0.00    +0.000 OA
ENDBRANCH  17  24
ENDBRANCH  16  20
BRANCH  16  25
ATOM     25  N   UNL     1       4.030   2.495  19.034  0.00  0.00    +0.000 NA
ATOM     26  C   UNL     1       4.374   2.282  20.453  0.00  0.00    +0.000 C 
ATOM     27  C   UNL     1       2.731   1.854  18.792  0.00  0.00    +0.000 C 
ENDBRANCH  16  25
ENDBRANCH  15  16
ENDBRANCH   1  15
TORSDOF 6
ENDMDL
MODEL 4
REMARK VINA RESULT:      -7.5      1.048      1.886
REMARK  Name = 
REMARK  9 active torsions:
REMARK  status: ('A' for Active; 'I' for Inactive)
REMARK    1  A    between atoms: C_1  and  O_2
REMARK    2  A    between atoms: O_2  and  C_3
REMARK    3  A    between atoms: C_6  and  C_7
REMARK    4  A    between atoms: C_7  and  C_8
REMARK    5  A    between atoms: C_7  and  N_22
REMARK    6  A    between atoms: C_8  and  N_9
REMARK    7  A    between atoms: C_10  and  C_12
REMARK    8  A    between atoms: N_22  and  C_23
REMARK    9  A    between atoms: N_22  and  C_24
REMARK                            x       y       z     vdW  Elec       q    Type
REMARK                         _______ _______ _______ _____ _____    ______ ____
ROOT
ATOM      1  N   UNL     1       2.444   5.843  17.994  0.00  0.00    +0.000 N 
ATOM      2  C   UNL     1       2.267   6.487  19.202  0.00  0.00    +0.000 C 
ATOM      3  O   UNL     1       2.295   5.899  20.278  0.00  0.00    +0.000 OA
ATOM      4  H   UNL     1       2.181   6.289  17.125  0.00  0.00    +0.000 HD
ENDROOT
BRANCH   2   5
ATOM      5  C   UNL     1       1.955   7.942  19.159  0.00  0.00    +0.000 A 
ATOM      6  C   UNL     1       2.179   8.733  18.024  0.00  0.00    +0.000 A 
ATOM      7  C   UNL     1       1.758  10.069  18.012  0.00  0.00    +0.000 A 
ATOM      8  C   UNL     1       1.108  10.610  19.122  0.00  0.00    +0.000 A 
ATOM      9  C   UNL     1       0.966   9.843  20.278  0.00  0.00    +0.000 A 
ATOM     10  C   UNL     1       1.400   8.520  20.307  0.00  0.00    +0.000 A 
ATOM     11  O   UNL     1       0.377  10.330  21.414  0.00  0.00    +0.000 OA
ATOM     12  C   UNL     1      -0.645  11.254  21.049  0.00  0.00    +0.000 C 
ATOM     13  C   UNL     1      -0.111  12.349  20.135  0.00  0.00    +0.000 C 
ATOM     14  O   UNL     1       0.603  11.872  18.987  0.00  0.00    +0.000 OA
ENDBRANCH   2   5
BRANCH   1  15
ATOM     15  C   UNL     1       2.648   4.401  17.968  0.00  0.00    +0.000 C 
BRANCH  15  16
ATOM     16  C   UNL     1       4.074   3.922  18.385  0.00  0.00    +0.000 C 
BRANCH  16  20
ATOM     17  C   UNL     1       6.926   5.058  15.294  0.00  0.00    +0.000 A 
ATOM     18  C   UNL     1       7.034   5.569  16.587  0.00  0.00    +0.000 A 
ATOM     19  C   UNL     1       6.120   5.202  17.580  0.00  0.00    +0.000 A 
ATOM     20  C   UNL     1       5.063   4.328  17.283  0.00  0.00    +0.000 A 
ATOM     21  C   UNL     1       4.934   3.863  15.964  0.00  0.00    +0.000 A 
ATOM     22  C   UNL     1       5.863   4.212  14.979  0.00  0.00    +0.000 A 
BRANCH  17  24
ATOM     23  C   UNL     1       7.679   5.108  13.051  0.00  0.00    +0.000 C 
ATOM     24  O   UNL     1       7.881   5.483  14.411  0.00  0.00    +0.000 OA
ENDBRANCH  17  24
ENDBRANCH  16  20
BRANCH  16  25
ATOM     25  N   UNL     1       4.174   2.469  18.740  0.00  0.00    +0.000 NA
ATOM     26  C   UNL     1       4.396   2.300  20.189  0.00  0.00    +0.000 C 
ATOM     27  C   UNL     1       2.951   1.733  18.391  0.00  0.00    +0.000 C 
ENDBRANCH  16  25
ENDBRANCH  15  16
ENDBRANCH   1  15
TORSDOF 6
ENDMDL
MODEL 5
REMARK VINA RESULT:      -7.5      1.828      2.549
REMARK  Name = 
REMARK  9 active torsions:
REMARK  status: ('A' for Active; 'I' for Inactive)
REMARK    1  A    between atoms: C_1  and  O_2
REMARK    2  A    between atoms: O_2  and  C_3
REMARK    3  A    between atoms: C_6  and  C_7
REMARK    4  A    between atoms: C_7  and  C_8
REMARK    5  A    between atoms: C_7  and  N_22
REMARK    6  A    between atoms: C_8  and  N_9
REMARK    7  A    between atoms: C_10  and  C_12
REMARK    8  A    between atoms: N_22  and  C_23
REMARK    9  A    between atoms: N_22  and  C_24
REMARK                            x       y       z     vdW  Elec       q    Type
REMARK                         _______ _______ _______ _____ _____    ______ ____
ROOT
ATOM      1  N   UNL     1       3.265   5.894  20.055  0.00  0.00    +0.000 N 
ATOM      2  C   UNL     1       2.004   6.330  20.409  0.00  0.00    +0.000 C 
ATOM      3  O   UNL     1       1.123   5.569  20.795  0.00  0.00    +0.000 OA
ATOM      4  H   UNL     1       3.887   6.485  19.520  0.00  0.00    +0.000 HD
ENDROOT
BRANCH   2   5
ATOM      5  C   UNL     1       1.709   7.777  20.230  0.00  0.00    +0.000 A 
ATOM      6  C   UNL     1       1.818   8.427  18.993  0.00  0.00    +0.000 A 
ATOM      7  C   UNL     1       1.416   9.763  18.870  0.00  0.00    +0.000 A 
ATOM      8  C   UNL     1       0.898  10.444  19.972  0.00  0.00    +0.000 A 
ATOM      9  C   UNL     1       0.872   9.819  21.218  0.00  0.00    +0.000 A 
ATOM     10  C   UNL     1       1.290   8.498  21.355  0.00  0.00    +0.000 A 
ATOM     11  O   UNL     1       0.417  10.448  22.346  0.00  0.00    +0.000 OA
ATOM     12  C   UNL     1      -0.627  11.350  21.986  0.00  0.00    +0.000 C 
ATOM     13  C   UNL     1      -0.181  12.319  20.899  0.00  0.00    +0.000 C 
ATOM     14  O   UNL     1       0.398  11.696  19.745  0.00  0.00    +0.000 OA
ENDBRANCH   2   5
BRANCH   1  15
ATOM     15  C   UNL     1       3.579   4.473  20.110  0.00  0.00    +0.000 C 
BRANCH  15  16
ATOM     16  C   UNL     1       4.371   3.917  18.885  0.00  0.00    +0.000 C 
BRANCH  16  20
ATOM     17  C   UNL     1       7.108   7.028  17.541  0.00  0.00    +0.000 A 
ATOM     18  C   UNL     1       5.907   6.797  16.872  0.00  0.00    +0.000 A 
ATOM     19  C   UNL     1       5.027   5.800  17.305  0.00  0.00    +0.000 A 
ATOM     20  C   UNL     1       5.352   4.999  18.410  0.00  0.00    +0.000 A 
ATOM     21  C   UNL     1       6.588   5.205  19.043  0.00  0.00    +0.000 A 
ATOM     22  C   UNL     1       7.455   6.219  18.623  0.00  0.00    +0.000 A 
BRANCH  17  24
ATOM     23  C   UNL     1       8.169   9.109  17.920  0.00  0.00    +0.000 C 
ATOM     24  O   UNL     1       7.883   8.033  17.031  0.00  0.00    +0.000 OA
ENDBRANCH  17  24
ENDBRANCH  16  20
BRANCH  16  25
ATOM     25  N   UNL     1       3.521   3.383  17.771  0.00  0.00    +0.000 NA
ATOM     26  C   UNL     1       3.564   1.908  17.744  0.00  0.00    +0.000 C 
ATOM     27  C   UNL     1       2.114   3.781  17.915  0.00  0.00    +0.000 C 
ENDBRANCH  16  25
ENDBRANCH  15  16
ENDBRANCH   1  15
TORSDOF 6
ENDMDL
MODEL 6
REMARK VINA RESULT:      -7.4      0.394      1.017
REMARK  Name = 
REMARK  9 active torsions:
REMARK  status: ('A' for Active; 'I' for Inactive)
REMARK    1  A    between atoms: C_1  and  O_2
REMARK    2  A    between atoms: O_2  and  C_3
REMARK    3  A    between atoms: C_6  and  C_7
REMARK    4  A    between atoms: C_7  and  C_8
REMARK    5  A    between atoms: C_7  and  N_22
REMARK    6  A    between atoms: C_8  and  N_9
REMARK    7  A    between atoms: C_10  and  C_12
REMARK    8  A    between atoms: N_22  and  C_23
REMARK    9  A    between atoms: N_22  and  C_24
REMARK                            x       y       z     vdW  Elec       q    Type
REMARK                         _______ _______ _______ _____ _____    ______ ____
ROOT
ATOM      1  N   UNL     1       2.018   5.588  18.673  0.00  0.00    +0.000 N 
ATOM      2  C   UNL     1       2.446   6.886  18.477  0.00  0.00    +0.000 C 
ATOM      3  O   UNL     1       3.334   7.180  17.684  0.00  0.00    +0.000 OA
ATOM      4  H   UNL     1       1.470   5.340  19.486  0.00  0.00    +0.000 HD
ENDROOT
BRANCH   2   5
ATOM      5  C   UNL     1       1.839   7.940  19.335  0.00  0.00    +0.000 A 
ATOM      6  C   UNL     1       1.623   7.769  20.709  0.00  0.00    +0.000 A 
ATOM      7  C   UNL     1       1.153   8.840  21.480  0.00  0.00    +0.000 A 
ATOM      8  C   UNL     1       0.911  10.079  20.884  0.00  0.00    +0.000 A 
ATOM      9  C   UNL     1       1.046  10.218  19.504  0.00  0.00    +0.000 A 
ATOM     10  C   UNL     1       1.492   9.152  18.726  0.00  0.00    +0.000 A 
ATOM     11  O   UNL     1       0.782  11.394  18.855  0.00  0.00    +0.000 OA
ATOM     12  C   UNL     1       1.118  12.483  19.711  0.00  0.00    +0.000 C 
ATOM     13  C   UNL     1       0.419  12.373  21.059  0.00  0.00    +0.000 C 
ATOM     14  O   UNL     1       0.590  11.112  21.719  0.00  0.00    +0.000 OA
ENDBRANCH   2   5
BRANCH   1  15
ATOM     15  C   UNL     1       2.649   4.502  17.937  0.00  0.00    +0.000 C 
BRANCH  15  16
ATOM     16  C   UNL     1       4.069   4.092  18.440  0.00  0.00    +0.000 C 
BRANCH  16  20
ATOM     17  C   UNL     1       6.992   4.966  15.330  0.00  0.00    +0.000 A 
ATOM     18  C   UNL     1       7.329   5.083  16.679  0.00  0.00    +0.000 A 
ATOM     19  C   UNL     1       6.391   4.800  17.677  0.00  0.00    +0.000 A 
ATOM     20  C   UNL     1       5.086   4.414  17.335  0.00  0.00    +0.000 A 
ATOM     21  C   UNL     1       4.744   4.352  15.974  0.00  0.00    +0.000 A 
ATOM     22  C   UNL     1       5.690   4.612  14.978  0.00  0.00    +0.000 A 
BRANCH  17  24
ATOM     23  C   UNL     1       7.674   5.093  13.068  0.00  0.00    +0.000 C 
ATOM     24  O   UNL     1       7.993   5.262  14.446  0.00  0.00    +0.000 OA
ENDBRANCH  17  24
ENDBRANCH  16  20
BRANCH  16  25
ATOM     25  N   UNL     1       4.183   2.681  18.933  0.00  0.00    +0.000 NA
ATOM     26  C   UNL     1       3.809   2.595  20.358  0.00  0.00    +0.000 C 
ATOM     27  C   UNL     1       3.304   1.768  18.189  0.00  0.00    +0.000 C 
ENDBRANCH  16  25
ENDBRANCH  15  16
ENDBRANCH   1  15
TORSDOF 6
ENDMDL
MODEL 7
REMARK VINA RESULT:      -7.4      3.359      8.603
REMARK  Name = 
REMARK  9 active torsions:
REMARK  status: ('A' for Active; 'I' for Inactive)
REMARK    1  A    between atoms: C_1  and  O_2
REMARK    2  A    between atoms: O_2  and  C_3
REMARK    3  A    between atoms: C_6  and  C_7
REMARK    4  A    between atoms: C_7  and  C_8
REMARK    5  A    between atoms: C_7  and  N_22
REMARK    6  A    between atoms: C_8  and  N_9
REMARK    7  A    between atoms: C_10  and  C_12
REMARK    8  A    between atoms: N_22  and  C_23
REMARK    9  A    between atoms: N_22  and  C_24
REMARK                            x       y       z     vdW  Elec       q    Type
REMARK                         _______ _______ _______ _____ _____    ______ ____
ROOT
ATOM      1  N   UNL     1       1.632   8.636  19.227  0.00  0.00    +0.000 N 
ATOM      2  C   UNL     1       2.415   8.087  18.231  0.00  0.00    +0.000 C 
ATOM      3  O   UNL     1       2.762   8.716  17.236  0.00  0.00    +0.000 OA
ATOM      4  H   UNL     1       1.164   8.046  19.902  0.00  0.00    +0.000 HD
ENDROOT
BRANCH   2   5
ATOM      5  C   UNL     1       2.773   6.648  18.361  0.00  0.00    +0.000 A 
ATOM      6  C   UNL     1       4.009   6.216  18.863  0.00  0.00    +0.000 A 
ATOM      7  C   UNL     1       4.239   4.850  19.065  0.00  0.00    +0.000 A 
ATOM      8  C   UNL     1       3.238   3.920  18.779  0.00  0.00    +0.000 A 
ATOM      9  C   UNL     1       2.044   4.349  18.201  0.00  0.00    +0.000 A 
ATOM     10  C   UNL     1       1.814   5.704  17.976  0.00  0.00    +0.000 A 
ATOM     11  O   UNL     1       1.042   3.482  17.857  0.00  0.00    +0.000 OA
ATOM     12  C   UNL     1       1.030   2.396  18.780  0.00  0.00    +0.000 C 
ATOM     13  C   UNL     1       2.394   1.725  18.876  0.00  0.00    +0.000 C 
ATOM     14  O   UNL     1       3.483   2.622  19.131  0.00  0.00    +0.000 OA
ENDBRANCH   2   5
BRANCH   1  15
ATOM     15  C   UNL     1       1.164  10.009  19.101  0.00  0.00    +0.000 C 
BRANCH  15  16
ATOM     16  C   UNL     1      -0.200  10.315  19.796  0.00  0.00    +0.000 C 
BRANCH  16  20
ATOM     17  C   UNL     1      -3.243  10.745  16.708  0.00  0.00    +0.000 A 
ATOM     18  C   UNL     1      -2.174   9.865  16.538  0.00  0.00    +0.000 A 
ATOM     19  C   UNL     1      -1.198   9.726  17.531  0.00  0.00    +0.000 A 
ATOM     20  C   UNL     1      -1.269  10.488  18.707  0.00  0.00    +0.000 A 
ATOM     21  C   UNL     1      -2.321  11.408  18.843  0.00  0.00    +0.000 A 
ATOM     22  C   UNL     1      -3.308  11.528  17.860  0.00  0.00    +0.000 A 
BRANCH  17  24
ATOM     23  C   UNL     1      -3.688  10.241  14.440  0.00  0.00    +0.000 C 
ATOM     24  O   UNL     1      -4.138  10.791  15.674  0.00  0.00    +0.000 OA
ENDBRANCH  17  24
ENDBRANCH  16  20
BRANCH  16  25
ATOM     25  N   UNL     1      -0.175  11.460  20.764  0.00  0.00    +0.000 NA
ATOM     26  C   UNL     1      -0.441  10.987  22.137  0.00  0.00    +0.000 C 
ATOM     27  C   UNL     1       1.127  12.140  20.776  0.00  0.00    +0.000 C 
ENDBRANCH  16  25
ENDBRANCH  15  16
ENDBRANCH   1  15
TORSDOF 6
ENDMDL
MODEL 8
REMARK VINA RESULT:      -7.3      1.757      2.614
REMARK  Name = 
REMARK  9 active torsions:
REMARK  status: ('A' for Active; 'I' for Inactive)
REMARK    1  A    between atoms: C_1  and  O_2
REMARK    2  A    between atoms: O_2  and  C_3
REMARK    3  A    between atoms: C_6  and  C_7
REMARK    4  A    between atoms: C_7  and  C_8
REMARK    5  A    between atoms: C_7  and  N_22
REMARK    6  A    between atoms: C_8  and  N_9
REMARK    7  A    between atoms: C_10  and  C_12
REMARK    8  A    between atoms: N_22  and  C_23
REMARK    9  A    between atoms: N_22  and  C_24
REMARK                            x       y       z     vdW  Elec       q    Type
REMARK                         _______ _______ _______ _____ _____    ______ ____
ROOT
ATOM      1  N   UNL     1       3.054   5.869  19.548  0.00  0.00    +0.000 N 
ATOM      2  C   UNL     1       2.016   6.518  20.186  0.00  0.00    +0.000 C 
ATOM      3  O   UNL     1       1.283   5.962  20.997  0.00  0.00    +0.000 OA
ATOM      4  H   UNL     1       3.482   6.265  18.722  0.00  0.00    +0.000 HD
ENDROOT
BRANCH   2   5
ATOM      5  C   UNL     1       1.750   7.929  19.793  0.00  0.00    +0.000 A 
ATOM      6  C   UNL     1       2.060   8.435  18.523  0.00  0.00    +0.000 A 
ATOM      7  C   UNL     1       1.682   9.739  18.181  0.00  0.00    +0.000 A 
ATOM      8  C   UNL     1       0.989  10.532  19.097  0.00  0.00    +0.000 A 
ATOM      9  C   UNL     1       0.760  10.053  20.387  0.00  0.00    +0.000 A 
ATOM     10  C   UNL     1       1.151   8.765  20.743  0.00  0.00    +0.000 A 
ATOM     11  O   UNL     1       0.124  10.798  21.344  0.00  0.00    +0.000 OA
ATOM     12  C   UNL     1      -0.848  11.630  20.716  0.00  0.00    +0.000 C 
ATOM     13  C   UNL     1      -0.231  12.477  19.610  0.00  0.00    +0.000 C 
ATOM     14  O   UNL     1       0.530  11.738  18.647  0.00  0.00    +0.000 OA
ENDBRANCH   2   5
BRANCH   1  15
ATOM     15  C   UNL     1       3.294   4.458  19.814  0.00  0.00    +0.000 C 
BRANCH  15  16
ATOM     16  C   UNL     1       4.374   3.783  18.912  0.00  0.00    +0.000 C 
BRANCH  16  20
ATOM     17  C   UNL     1       7.050   6.852  17.362  0.00  0.00    +0.000 A 
ATOM     18  C   UNL     1       7.341   6.187  18.554  0.00  0.00    +0.000 A 
ATOM     19  C   UNL     1       6.483   5.201  19.050  0.00  0.00    +0.000 A 
ATOM     20  C   UNL     1       5.301   4.879  18.365  0.00  0.00    +0.000 A 
ATOM     21  C   UNL     1       4.993   5.591  17.195  0.00  0.00    +0.000 A 
ATOM     22  C   UNL     1       5.864   6.561  16.688  0.00  0.00    +0.000 A 
BRANCH  17  24
ATOM     23  C   UNL     1       8.067   8.941  17.807  0.00  0.00    +0.000 C 
ATOM     24  O   UNL     1       7.966   7.791  16.973  0.00  0.00    +0.000 OA
ENDBRANCH  17  24
ENDBRANCH  16  20
BRANCH  16  25
ATOM     25  N   UNL     1       3.832   2.896  17.832  0.00  0.00    +0.000 NA
ATOM     26  C   UNL     1       3.694   1.509  18.318  0.00  0.00    +0.000 C 
ATOM     27  C   UNL     1       2.509   3.337  17.372  0.00  0.00    +0.000 C 
ENDBRANCH  16  25
ENDBRANCH  15  16
ENDBRANCH   1  15
TORSDOF 6
ENDMDL
MODEL 9
REMARK VINA RESULT:      -7.3      3.475      8.676
REMARK  Name = 
REMARK  9 active torsions:
REMARK  status: ('A' for Active; 'I' for Inactive)
REMARK    1  A    between atoms: C_1  and  O_2
REMARK    2  A    between atoms: O_2  and  C_3
REMARK    3  A    between atoms: C_6  and  C_7
REMARK    4  A    between atoms: C_7  and  C_8
REMARK    5  A    between atoms: C_7  and  N_22
REMARK    6  A    between atoms: C_8  and  N_9
REMARK    7  A    between atoms: C_10  and  C_12
REMARK    8  A    between atoms: N_22  and  C_23
REMARK    9  A    between atoms: N_22  and  C_24
REMARK                            x       y       z     vdW  Elec       q    Type
REMARK                         _______ _______ _______ _____ _____    ______ ____
ROOT
ATOM      1  N   UNL     1       1.405   9.081  19.486  0.00  0.00    +0.000 N 
ATOM      2  C   UNL     1       2.046   8.260  18.580  0.00  0.00    +0.000 C 
ATOM      3  O   UNL     1       2.343   8.626  17.447  0.00  0.00    +0.000 OA
ATOM      4  H   UNL     1       0.960   8.697  20.309  0.00  0.00    +0.000 HD
ENDROOT
BRANCH   2   5
ATOM      5  C   UNL     1       2.304   6.855  18.997  0.00  0.00    +0.000 A 
ATOM      6  C   UNL     1       2.117   6.408  20.312  0.00  0.00    +0.000 A 
ATOM      7  C   UNL     1       2.269   5.048  20.614  0.00  0.00    +0.000 A 
ATOM      8  C   UNL     1       2.595   4.138  19.606  0.00  0.00    +0.000 A 
ATOM      9  C   UNL     1       2.862   4.603  18.319  0.00  0.00    +0.000 A 
ATOM     10  C   UNL     1       2.734   5.955  18.015  0.00  0.00    +0.000 A 
ATOM     11  O   UNL     1       3.228   3.767  17.298  0.00  0.00    +0.000 OA
ATOM     12  C   UNL     1       2.584   2.507  17.476  0.00  0.00    +0.000 C 
ATOM     13  C   UNL     1       2.863   1.925  18.856  0.00  0.00    +0.000 C 
ATOM     14  O   UNL     1       2.588   2.814  19.945  0.00  0.00    +0.000 OA
ENDBRANCH   2   5
BRANCH   1  15
ATOM     15  C   UNL     1       1.033  10.434  19.097  0.00  0.00    +0.000 C 
BRANCH  15  16
ATOM     16  C   UNL     1      -0.357  10.919  19.615  0.00  0.00    +0.000 C 
BRANCH  16  20
ATOM     17  C   UNL     1      -3.240  10.582  16.367  0.00  0.00    +0.000 A 
ATOM     18  C   UNL     1      -3.438  11.493  17.404  0.00  0.00    +0.000 A 
ATOM     19  C   UNL     1      -2.511  11.603  18.446  0.00  0.00    +0.000 A 
ATOM     20  C   UNL     1      -1.375  10.779  18.474  0.00  0.00    +0.000 A 
ATOM     21  C   UNL     1      -1.215   9.829  17.452  0.00  0.00    +0.000 A 
ATOM     22  C   UNL     1      -2.131   9.738  16.399  0.00  0.00    +0.000 A 
BRANCH  17  24
ATOM     23  C   UNL     1      -3.780  10.198  14.095  0.00  0.00    +0.000 C 
ATOM     24  O   UNL     1      -4.210  10.569  15.402  0.00  0.00    +0.000 OA
ENDBRANCH  17  24
ENDBRANCH  16  20
BRANCH  16  25
ATOM     25  N   UNL     1      -0.362  12.289  20.225  0.00  0.00    +0.000 NA
ATOM     26  C   UNL     1      -0.247  12.205  21.694  0.00  0.00    +0.000 C 
ATOM     27  C   UNL     1       0.756  13.110  19.741  0.00  0.00    +0.000 C 
ENDBRANCH  16  25
ENDBRANCH  15  16
ENDBRANCH   1  15
TORSDOF 6
ENDMDL
