MODEL 1
REMARK VINA RESULT:      -7.4      0.000      0.000
REMARK  Name = 
REMARK  8 active torsions:
REMARK  status: ('A' for Active; 'I' for Inactive)
REMARK    1  A    between atoms: C_1  and  O_2
REMARK    2  A    between atoms: O_2  and  C_3
REMARK    3  A    between atoms: C_3  and  C_4
REMARK    4  A    between atoms: C_4  and  C_5
REMARK    5  A    between atoms: C_8  and  C_9
REMARK    6  A    between atoms: C_9  and  N_10
REMARK    7  A    between atoms: C_15  and  C_16
REMARK    8  A    between atoms: C_16  and  N_17
REMARK                            x       y       z     vdW  Elec       q    Type
REMARK                         _______ _______ _______ _____ _____    ______ ____
ROOT
ATOM      1  N   UNL     1       5.784   5.472  17.617  0.00  0.00    +0.000 NA
ATOM      2  C   UNL     1       5.109   6.426  16.721  0.00  0.00    +0.000 C 
ATOM      3  C   UNL     1       4.081   7.285  17.462  0.00  0.00    +0.000 C 
ATOM      4  C   UNL     1       3.093   6.437  18.251  0.00  0.00    +0.000 C 
ATOM      5  C   UNL     1       3.850   5.466  19.151  0.00  0.00    +0.000 C 
ATOM      6  C   UNL     1       4.829   4.578  18.355  0.00  0.00    +0.000 C 
ENDROOT
BRANCH   1   7
ATOM      7  C   UNL     1       6.811   4.682  16.901  0.00  0.00    +0.000 C 
BRANCH   7  11
ATOM      8  C   UNL     1       6.922   4.388  13.367  0.00  0.00    +0.000 A 
ATOM      9  N   UNL     1       7.801   5.390  13.502  0.00  0.00    +0.000 NA
ATOM     10  O   UNL     1       7.756   5.672  14.873  0.00  0.00    +0.000 OA
ATOM     11  C   UNL     1       6.848   4.809  15.413  0.00  0.00    +0.000 A 
ATOM     12  N   UNL     1       6.277   4.027  14.522  0.00  0.00    +0.000 NA
BRANCH   8  13
ATOM     13  C   UNL     1       6.826   3.568  12.136  0.00  0.00    +0.000 C 
BRANCH  13  14
ATOM     14  C   UNL     1       5.446   2.923  12.037  0.00  0.00    +0.000 C 
BRANCH  14  16
ATOM     15  C   UNL     1       3.458   3.104  10.794  0.00  0.00    +0.000 C 
ATOM     16  O   UNL     1       4.530   3.817  11.404  0.00  0.00    +0.000 OA
ENDBRANCH  14  16
ENDBRANCH  13  14
ENDBRANCH   8  13
ENDBRANCH   7  11
ENDBRANCH   1   7
BRANCH   6  17
ATOM     17  C   UNL     1       4.097   3.528  17.479  0.00  0.00    +0.000 C 
BRANCH  17  18
ATOM     18  N   UNL     1       2.947   2.889  18.088  0.00  0.00    +0.000 N 
ATOM     19  C   UNL     1       2.920   2.160  19.237  0.00  0.00    +0.000 A 
ATOM     20  N   UNL     1       1.678   1.960  19.607  0.00  0.00    +0.000 NA
ATOM     21  C   UNL     1       0.964   2.613  18.642  0.00  0.00    +0.000 A 
ATOM     22  N   UNL     1       1.698   3.189  17.685  0.00  0.00    +0.000 NA
ENDBRANCH  17  18
ENDBRANCH   6  17
TORSDOF 7
ENDMDL
MODEL 2
REMARK VINA RESULT:      -7.1      2.320      3.989
REMARK  Name = 
REMARK  8 active torsions:
REMARK  status: ('A' for Active; 'I' for Inactive)
REMARK    1  A    between atoms: C_1  and  O_2
REMARK    2  A    between atoms: O_2  and  C_3
REMARK    3  A    between atoms: C_3  and  C_4
REMARK    4  A    between atoms: C_4  and  C_5
REMARK    5  A    between atoms: C_8  and  C_9
REMARK    6  A    between atoms: C_9  and  N_10
REMARK    7  A    between atoms: C_15  and  C_16
REMARK    8  A    between atoms: C_16  and  N_17
REMARK                            x       y       z     vdW  Elec       q    Type
REMARK                         _______ _______ _______ _____ _____    ______ ____
ROOT
ATOM      1  N   UNL     1       3.867   3.793  18.844  0.00  0.00    +0.000 NA
ATOM      2  C   UNL     1       3.527   3.005  20.040  0.00  0.00    +0.000 C 
ATOM      3  C   UNL     1       2.120   2.408  19.958  0.00  0.00    +0.000 C 
ATOM      4  C   UNL     1       1.071   3.465  19.647  0.00  0.00    +0.000 C 
ATOM      5  C   UNL     1       1.481   4.251  18.406  0.00  0.00    +0.000 C 
ATOM      6  C   UNL     1       2.879   4.887  18.557  0.00  0.00    +0.000 C 
ENDROOT
BRANCH   1   7
ATOM      7  C   UNL     1       5.247   4.323  18.910  0.00  0.00    +0.000 C 
BRANCH   7  11
ATOM      8  C   UNL     1       6.649   5.229  15.780  0.00  0.00    +0.000 A 
ATOM      9  N   UNL     1       7.287   6.128  16.541  0.00  0.00    +0.000 NA
ATOM     10  O   UNL     1       6.721   5.935  17.807  0.00  0.00    +0.000 OA
ATOM     11  C   UNL     1       5.797   4.941  17.665  0.00  0.00    +0.000 A 
ATOM     12  N   UNL     1       5.686   4.503  16.430  0.00  0.00    +0.000 NA
BRANCH   8  13
ATOM     13  C   UNL     1       7.104   4.869  14.415  0.00  0.00    +0.000 C 
BRANCH  13  14
ATOM     14  C   UNL     1       6.214   3.773  13.834  0.00  0.00    +0.000 C 
BRANCH  14  16
ATOM     15  C   UNL     1       5.298   3.026  11.801  0.00  0.00    +0.000 C 
ATOM     16  O   UNL     1       6.396   3.689  12.420  0.00  0.00    +0.000 OA
ENDBRANCH  14  16
ENDBRANCH  13  14
ENDBRANCH   8  13
ENDBRANCH   7  11
ENDBRANCH   1   7
BRANCH   6  17
ATOM     17  C   UNL     1       2.888   6.065  19.566  0.00  0.00    +0.000 C 
BRANCH  17  18
ATOM     18  N   UNL     1       2.586   7.371  19.013  0.00  0.00    +0.000 N 
ATOM     19  C   UNL     1       2.883   7.829  17.767  0.00  0.00    +0.000 A 
ATOM     20  N   UNL     1       2.238   8.947  17.539  0.00  0.00    +0.000 NA
ATOM     21  C   UNL     1       1.529   9.130  18.693  0.00  0.00    +0.000 A 
ATOM     22  N   UNL     1       1.717   8.195  19.629  0.00  0.00    +0.000 NA
ENDBRANCH  17  18
ENDBRANCH   6  17
TORSDOF 7
ENDMDL
MODEL 3
REMARK VINA RESULT:      -7.1      2.424      4.081
REMARK  Name = 
REMARK  8 active torsions:
REMARK  status: ('A' for Active; 'I' for Inactive)
REMARK    1  A    between atoms: C_1  and  O_2
REMARK    2  A    between atoms: O_2  and  C_3
REMARK    3  A    between atoms: C_3  and  C_4
REMARK    4  A    between atoms: C_4  and  C_5
REMARK    5  A    between atoms: C_8  and  C_9
REMARK    6  A    between atoms: C_9  and  N_10
REMARK    7  A    between atoms: C_15  and  C_16
REMARK    8  A    between atoms: C_16  and  N_17
REMARK                            x       y       z     vdW  Elec       q    Type
REMARK                         _______ _______ _______ _____ _____    ______ ____
ROOT
ATOM      1  N   UNL     1       3.867   4.015  18.827  0.00  0.00    +0.000 NA
ATOM      2  C   UNL     1       3.481   3.084  19.900  0.00  0.00    +0.000 C 
ATOM      3  C   UNL     1       2.194   2.323  19.570  0.00  0.00    +0.000 C 
ATOM      4  C   UNL     1       1.060   3.263  19.187  0.00  0.00    +0.000 C 
ATOM      5  C   UNL     1       1.522   4.205  18.080  0.00  0.00    +0.000 C 
ATOM      6  C   UNL     1       2.784   4.996  18.480  0.00  0.00    +0.000 C 
ENDROOT
BRANCH   1   7
ATOM      7  C   UNL     1       5.138   4.707  19.133  0.00  0.00    +0.000 C 
BRANCH   7  11
ATOM      8  C   UNL     1       6.959   4.977  16.100  0.00  0.00    +0.000 A 
ATOM      9  N   UNL     1       7.931   4.454  16.859  0.00  0.00    +0.000 NA
ATOM     10  O   UNL     1       7.350   4.403  18.133  0.00  0.00    +0.000 OA
ATOM     11  C   UNL     1       6.090   4.910  17.999  0.00  0.00    +0.000 A 
ATOM     12  N   UNL     1       5.816   5.315  16.778  0.00  0.00    +0.000 NA
BRANCH   8  13
ATOM     13  C   UNL     1       7.008   4.970  14.618  0.00  0.00    +0.000 C 
BRANCH  13  14
ATOM     14  C   UNL     1       6.336   3.712  14.074  0.00  0.00    +0.000 C 
BRANCH  14  16
ATOM     15  C   UNL     1       5.158   3.312  12.078  0.00  0.00    +0.000 C 
ATOM     16  O   UNL     1       5.198   4.065  13.287  0.00  0.00    +0.000 OA
ENDBRANCH  14  16
ENDBRANCH  13  14
ENDBRANCH   8  13
ENDBRANCH   7  11
ENDBRANCH   1   7
BRANCH   6  17
ATOM     17  C   UNL     1       2.494   6.068  19.562  0.00  0.00    +0.000 C 
BRANCH  17  18
ATOM     18  N   UNL     1       2.085   7.370  19.069  0.00  0.00    +0.000 N 
ATOM     19  C   UNL     1       1.612   8.417  19.797  0.00  0.00    +0.000 A 
ATOM     20  N   UNL     1       1.590   9.499  19.057  0.00  0.00    +0.000 NA
ATOM     21  C   UNL     1       2.087   9.060  17.862  0.00  0.00    +0.000 A 
ATOM     22  N   UNL     1       2.395   7.760  17.819  0.00  0.00    +0.000 NA
ENDBRANCH  17  18
ENDBRANCH   6  17
TORSDOF 7
ENDMDL
MODEL 4
REMARK VINA RESULT:      -7.0      2.158      3.612
REMARK  Name = 
REMARK  8 active torsions:
REMARK  status: ('A' for Active; 'I' for Inactive)
REMARK    1  A    between atoms: C_1  and  O_2
REMARK    2  A    between atoms: O_2  and  C_3
REMARK    3  A    between atoms: C_3  and  C_4
REMARK    4  A    between atoms: C_4  and  C_5
REMARK    5  A    between atoms: C_8  and  C_9
REMARK    6  A    between atoms: C_9  and  N_10
REMARK    7  A    between atoms: C_15  and  C_16
REMARK    8  A    between atoms: C_16  and  N_17
REMARK                            x       y       z     vdW  Elec       q    Type
REMARK                         _______ _______ _______ _____ _____    ______ ____
ROOT
ATOM      1  N   UNL     1       4.049   3.725  18.123  0.00  0.00    +0.000 NA
ATOM      2  C   UNL     1       3.843   2.791  19.242  0.00  0.00    +0.000 C 
ATOM      3  C   UNL     1       2.415   2.238  19.276  0.00  0.00    +0.000 C 
ATOM      4  C   UNL     1       1.375   3.349  19.254  0.00  0.00    +0.000 C 
ATOM      5  C   UNL     1       1.646   4.286  18.081  0.00  0.00    +0.000 C 
ATOM      6  C   UNL     1       3.075   4.867  18.120  0.00  0.00    +0.000 C 
ENDROOT
BRANCH   1   7
ATOM      7  C   UNL     1       5.445   4.213  18.068  0.00  0.00    +0.000 C 
BRANCH   7  11
ATOM      8  C   UNL     1       6.530   4.437  14.697  0.00  0.00    +0.000 A 
ATOM      9  N   UNL     1       7.660   4.850  15.289  0.00  0.00    +0.000 NA
ATOM     10  O   UNL     1       7.309   4.907  16.643  0.00  0.00    +0.000 OA
ATOM     11  C   UNL     1       6.001   4.527  16.717  0.00  0.00    +0.000 A 
ATOM     12  N   UNL     1       5.465   4.268  15.544  0.00  0.00    +0.000 NA
BRANCH   8  13
ATOM     13  C   UNL     1       6.488   3.965  13.292  0.00  0.00    +0.000 C 
BRANCH  13  14
ATOM     14  C   UNL     1       5.057   3.609  12.898  0.00  0.00    +0.000 C 
BRANCH  14  16
ATOM     15  C   UNL     1       3.810   3.154  10.957  0.00  0.00    +0.000 C 
ATOM     16  O   UNL     1       5.046   2.946  11.634  0.00  0.00    +0.000 OA
ENDBRANCH  14  16
ENDBRANCH  13  14
ENDBRANCH   8  13
ENDBRANCH   7  11
ENDBRANCH   1   7
BRANCH   6  17
ATOM     17  C   UNL     1       3.263   5.898  19.263  0.00  0.00    +0.000 C 
BRANCH  17  18
ATOM     18  N   UNL     1       2.750   7.230  19.003  0.00  0.00    +0.000 N 
ATOM     19  C   UNL     1       2.779   7.910  17.825  0.00  0.00    +0.000 A 
ATOM     20  N   UNL     1       2.004   8.965  17.902  0.00  0.00    +0.000 NA
ATOM     21  C   UNL     1       1.497   8.878  19.168  0.00  0.00    +0.000 A 
ATOM     22  N   UNL     1       1.933   7.837  19.884  0.00  0.00    +0.000 NA
ENDBRANCH  17  18
ENDBRANCH   6  17
TORSDOF 7
ENDMDL
MODEL 5
REMARK VINA RESULT:      -7.0      2.706      6.807
REMARK  Name = 
REMARK  8 active torsions:
REMARK  status: ('A' for Active; 'I' for Inactive)
REMARK    1  A    between atoms: C_1  and  O_2
REMARK    2  A    between atoms: O_2  and  C_3
REMARK    3  A    between atoms: C_3  and  C_4
REMARK    4  A    between atoms: C_4  and  C_5
REMARK    5  A    between atoms: C_8  and  C_9
REMARK    6  A    between atoms: C_9  and  N_10
REMARK    7  A    between atoms: C_15  and  C_16
REMARK    8  A    between atoms: C_16  and  N_17
REMARK                            x       y       z     vdW  Elec       q    Type
REMARK                         _______ _______ _______ _____ _____    ______ ____
ROOT
ATOM      1  N   UNL     1       5.177   5.208  17.441  0.00  0.00    +0.000 NA
ATOM      2  C   UNL     1       5.743   4.592  18.652  0.00  0.00    +0.000 C 
ATOM      3  C   UNL     1       6.684   5.541  19.397  0.00  0.00    +0.000 C 
ATOM      4  C   UNL     1       7.761   6.108  18.483  0.00  0.00    +0.000 C 
ATOM      5  C   UNL     1       7.115   6.724  17.246  0.00  0.00    +0.000 C 
ATOM      6  C   UNL     1       6.225   5.714  16.492  0.00  0.00    +0.000 C 
ENDROOT
BRANCH   1   7
ATOM      7  C   UNL     1       4.228   4.302  16.757  0.00  0.00    +0.000 C 
BRANCH   7  11
ATOM      8  C   UNL     1       1.432   3.810  18.885  0.00  0.00    +0.000 A 
ATOM      9  N   UNL     1       1.276   2.727  18.112  0.00  0.00    +0.000 NA
ATOM     10  O   UNL     1       2.279   2.875  17.146  0.00  0.00    +0.000 OA
ATOM     11  C   UNL     1       2.927   4.039  17.443  0.00  0.00    +0.000 A 
ATOM     12  N   UNL     1       2.417   4.672  18.477  0.00  0.00    +0.000 NA
BRANCH   8  13
ATOM     13  C   UNL     1       0.772   3.955  20.205  0.00  0.00    +0.000 C 
BRANCH  13  14
ATOM     14  C   UNL     1       1.331   2.931  21.189  0.00  0.00    +0.000 C 
BRANCH  14  16
ATOM     15  C   UNL     1       3.577   2.266  20.975  0.00  0.00    +0.000 C 
ATOM     16  O   UNL     1       2.688   3.244  21.507  0.00  0.00    +0.000 OA
ENDBRANCH  14  16
ENDBRANCH  13  14
ENDBRANCH   8  13
ENDBRANCH   7  11
ENDBRANCH   1   7
BRANCH   6  17
ATOM     17  C   UNL     1       7.051   4.616  15.774  0.00  0.00    +0.000 C 
BRANCH  17  18
ATOM     18  N   UNL     1       6.876   4.531  14.337  0.00  0.00    +0.000 N 
ATOM     19  C   UNL     1       7.606   5.164  13.378  0.00  0.00    +0.000 A 
ATOM     20  N   UNL     1       7.330   4.655  12.202  0.00  0.00    +0.000 NA
ATOM     21  C   UNL     1       6.418   3.681  12.498  0.00  0.00    +0.000 A 
ATOM     22  N   UNL     1       6.102   3.574  13.792  0.00  0.00    +0.000 NA
ENDBRANCH  17  18
ENDBRANCH   6  17
TORSDOF 7
ENDMDL
MODEL 6
REMARK VINA RESULT:      -6.8      2.410      3.847
REMARK  Name = 
REMARK  8 active torsions:
REMARK  status: ('A' for Active; 'I' for Inactive)
REMARK    1  A    between atoms: C_1  and  O_2
REMARK    2  A    between atoms: O_2  and  C_3
REMARK    3  A    between atoms: C_3  and  C_4
REMARK    4  A    between atoms: C_4  and  C_5
REMARK    5  A    between atoms: C_8  and  C_9
REMARK    6  A    between atoms: C_9  and  N_10
REMARK    7  A    between atoms: C_15  and  C_16
REMARK    8  A    between atoms: C_16  and  N_17
REMARK                            x       y       z     vdW  Elec       q    Type
REMARK                         _______ _______ _______ _____ _____    ______ ____
ROOT
ATOM      1  N   UNL     1       3.747   3.784  18.694  0.00  0.00    +0.000 NA
ATOM      2  C   UNL     1       3.833   3.090  19.989  0.00  0.00    +0.000 C 
ATOM      3  C   UNL     1       2.496   2.470  20.403  0.00  0.00    +0.000 C 
ATOM      4  C   UNL     1       1.364   3.487  20.369  0.00  0.00    +0.000 C 
ATOM      5  C   UNL     1       1.330   4.177  19.009  0.00  0.00    +0.000 C 
ATOM      6  C   UNL     1       2.679   4.839  18.661  0.00  0.00    +0.000 C 
ENDROOT
BRANCH   1   7
ATOM      7  C   UNL     1       5.056   4.334  18.279  0.00  0.00    +0.000 C 
BRANCH   7  11
ATOM      8  C   UNL     1       5.975   4.811  14.885  0.00  0.00    +0.000 A 
ATOM      9  N   UNL     1       5.548   6.054  15.143  0.00  0.00    +0.000 NA
ATOM     10  O   UNL     1       5.048   5.957  16.448  0.00  0.00    +0.000 OA
ATOM     11  C   UNL     1       5.227   4.660  16.830  0.00  0.00    +0.000 A 
ATOM     12  N   UNL     1       5.754   3.905  15.891  0.00  0.00    +0.000 NA
BRANCH   8  13
ATOM     13  C   UNL     1       6.834   4.484  13.721  0.00  0.00    +0.000 C 
BRANCH  13  14
ATOM     14  C   UNL     1       6.163   3.425  12.851  0.00  0.00    +0.000 C 
BRANCH  14  16
ATOM     15  C   UNL     1       4.329   3.218  11.393  0.00  0.00    +0.000 C 
ATOM     16  O   UNL     1       4.797   3.773  12.619  0.00  0.00    +0.000 OA
ENDBRANCH  14  16
ENDBRANCH  13  14
ENDBRANCH   8  13
ENDBRANCH   7  11
ENDBRANCH   1   7
BRANCH   6  17
ATOM     17  C   UNL     1       2.964   6.094  19.528  0.00  0.00    +0.000 C 
BRANCH  17  18
ATOM     18  N   UNL     1       2.278   7.307  19.127  0.00  0.00    +0.000 N 
ATOM     19  C   UNL     1       1.671   8.217  19.937  0.00  0.00    +0.000 A 
ATOM     20  N   UNL     1       1.386   9.299  19.254  0.00  0.00    +0.000 NA
ATOM     21  C   UNL     1       1.864   9.006  18.007  0.00  0.00    +0.000 A 
ATOM     22  N   UNL     1       2.410   7.793  17.879  0.00  0.00    +0.000 NA
ENDBRANCH  17  18
ENDBRANCH   6  17
TORSDOF 7
ENDMDL
MODEL 7
REMARK VINA RESULT:      -6.7      4.159      7.295
REMARK  Name = 
REMARK  8 active torsions:
REMARK  status: ('A' for Active; 'I' for Inactive)
REMARK    1  A    between atoms: C_1  and  O_2
REMARK    2  A    between atoms: O_2  and  C_3
REMARK    3  A    between atoms: C_3  and  C_4
REMARK    4  A    between atoms: C_4  and  C_5
REMARK    5  A    between atoms: C_8  and  C_9
REMARK    6  A    between atoms: C_9  and  N_10
REMARK    7  A    between atoms: C_15  and  C_16
REMARK    8  A    between atoms: C_16  and  N_17
REMARK                            x       y       z     vdW  Elec       q    Type
REMARK                         _______ _______ _______ _____ _____    ______ ____
ROOT
ATOM      1  N   UNL     1       2.554   5.126  18.723  0.00  0.00    +0.000 NA
ATOM      2  C   UNL     1       1.658   4.293  17.904  0.00  0.00    +0.000 C 
ATOM      3  C   UNL     1       1.029   3.156  18.713  0.00  0.00    +0.000 C 
ATOM      4  C   UNL     1       2.077   2.329  19.442  0.00  0.00    +0.000 C 
ATOM      5  C   UNL     1       2.977   3.245  20.264  0.00  0.00    +0.000 C 
ATOM      6  C   UNL     1       3.639   4.338  19.399  0.00  0.00    +0.000 C 
ENDROOT
BRANCH   1   7
ATOM      7  C   UNL     1       3.116   6.253  17.946  0.00  0.00    +0.000 C 
BRANCH   7  11
ATOM      8  C   UNL     1       1.442   9.211  18.963  0.00  0.00    +0.000 A 
ATOM      9  N   UNL     1       1.745   9.585  17.713  0.00  0.00    +0.000 NA
ATOM     10  O   UNL     1       2.519   8.518  17.239  0.00  0.00    +0.000 OA
ATOM     11  C   UNL     1       2.600   7.620  18.262  0.00  0.00    +0.000 A 
ATOM     12  N   UNL     1       1.991   8.018  19.358  0.00  0.00    +0.000 NA
BRANCH   8  13
ATOM     13  C   UNL     1       0.408   9.896  19.775  0.00  0.00    +0.000 C 
BRANCH  13  14
ATOM     14  C   UNL     1      -0.665  10.493  18.869  0.00  0.00    +0.000 C 
BRANCH  14  16
ATOM     15  C   UNL     1      -0.442  12.786  18.396  0.00  0.00    +0.000 C 
ATOM     16  O   UNL     1      -0.984  11.819  19.291  0.00  0.00    +0.000 OA
ENDBRANCH  14  16
ENDBRANCH  13  14
ENDBRANCH   8  13
ENDBRANCH   7  11
ENDBRANCH   1   7
BRANCH   6  17
ATOM     17  C   UNL     1       4.726   3.767  18.453  0.00  0.00    +0.000 C 
BRANCH  17  18
ATOM     18  N   UNL     1       6.012   4.437  18.491  0.00  0.00    +0.000 N 
ATOM     19  C   UNL     1       6.845   4.686  17.444  0.00  0.00    +0.000 A 
ATOM     20  N   UNL     1       7.782   5.526  17.811  0.00  0.00    +0.000 NA
ATOM     21  C   UNL     1       7.466   5.783  19.116  0.00  0.00    +0.000 A 
ATOM     22  N   UNL     1       6.395   5.131  19.579  0.00  0.00    +0.000 NA
ENDBRANCH  17  18
ENDBRANCH   6  17
TORSDOF 7
ENDMDL
MODEL 8
REMARK VINA RESULT:      -6.7      2.405      3.638
REMARK  Name = 
REMARK  8 active torsions:
REMARK  status: ('A' for Active; 'I' for Inactive)
REMARK    1  A    between atoms: C_1  and  O_2
REMARK    2  A    between atoms: O_2  and  C_3
REMARK    3  A    between atoms: C_3  and  C_4
REMARK    4  A    between atoms: C_4  and  C_5
REMARK    5  A    between atoms: C_8  and  C_9
REMARK    6  A    between atoms: C_9  and  N_10
REMARK    7  A    between atoms: C_15  and  C_16
REMARK    8  A    between atoms: C_16  and  N_17
REMARK                            x       y       z     vdW  Elec       q    Type
REMARK                         _______ _______ _______ _____ _____    ______ ____
ROOT
ATOM      1  N   UNL     1       3.842   4.669  17.299  0.00  0.00    +0.000 NA
ATOM      2  C   UNL     1       4.368   3.509  18.038  0.00  0.00    +0.000 C 
ATOM      3  C   UNL     1       3.324   2.401  18.191  0.00  0.00    +0.000 C 
ATOM      4  C   UNL     1       2.024   2.922  18.787  0.00  0.00    +0.000 C 
ATOM      5  C   UNL     1       1.535   4.124  17.986  0.00  0.00    +0.000 C 
ATOM      6  C   UNL     1       2.596   5.242  17.910  0.00  0.00    +0.000 C 
ENDROOT
BRANCH   1   7
ATOM      7  C   UNL     1       4.874   5.713  17.112  0.00  0.00    +0.000 C 
BRANCH   7  11
ATOM      8  C   UNL     1       6.665   4.916  14.154  0.00  0.00    +0.000 A 
ATOM      9  N   UNL     1       7.697   5.351  14.890  0.00  0.00    +0.000 NA
ATOM     10  O   UNL     1       7.084   5.805  16.064  0.00  0.00    +0.000 OA
ATOM     11  C   UNL     1       5.745   5.596  15.903  0.00  0.00    +0.000 A 
ATOM     12  N   UNL     1       5.433   5.091  14.729  0.00  0.00    +0.000 NA
BRANCH   8  13
ATOM     13  C   UNL     1       6.843   4.093  12.934  0.00  0.00    +0.000 C 
BRANCH  13  14
ATOM     14  C   UNL     1       5.664   3.139  12.764  0.00  0.00    +0.000 C 
BRANCH  14  16
ATOM     15  C   UNL     1       5.935   1.308  11.313  0.00  0.00    +0.000 C 
ATOM     16  O   UNL     1       5.588   2.686  11.412  0.00  0.00    +0.000 OA
ENDBRANCH  14  16
ENDBRANCH  13  14
ENDBRANCH   8  13
ENDBRANCH   7  11
ENDBRANCH   1   7
BRANCH   6  17
ATOM     17  C   UNL     1       2.797   5.961  19.269  0.00  0.00    +0.000 C 
BRANCH  17  18
ATOM     18  N   UNL     1       2.333   7.334  19.332  0.00  0.00    +0.000 N 
ATOM     19  C   UNL     1       2.196   8.207  18.297  0.00  0.00    +0.000 A 
ATOM     20  N   UNL     1       1.517   9.257  18.690  0.00  0.00    +0.000 NA
ATOM     21  C   UNL     1       1.239   8.969  19.996  0.00  0.00    +0.000 A 
ATOM     22  N   UNL     1       1.727   7.806  20.437  0.00  0.00    +0.000 NA
ENDBRANCH  17  18
ENDBRANCH   6  17
TORSDOF 7
ENDMDL
MODEL 9
REMARK VINA RESULT:      -6.6      4.075      7.563
REMARK  Name = 
REMARK  8 active torsions:
REMARK  status: ('A' for Active; 'I' for Inactive)
REMARK    1  A    between atoms: C_1  and  O_2
REMARK    2  A    between atoms: O_2  and  C_3
REMARK    3  A    between atoms: C_3  and  C_4
REMARK    4  A    between atoms: C_4  and  C_5
REMARK    5  A    between atoms: C_8  and  C_9
REMARK    6  A    between atoms: C_9  and  N_10
REMARK    7  A    between atoms: C_15  and  C_16
REMARK    8  A    between atoms: C_16  and  N_17
REMARK                            x       y       z     vdW  Elec       q    Type
REMARK                         _______ _______ _______ _____ _____    ______ ____
ROOT
ATOM      1  N   UNL     1       2.785   5.090  18.756  0.00  0.00    +0.000 NA
ATOM      2  C   UNL     1       1.525   4.364  18.527  0.00  0.00    +0.000 C 
ATOM      3  C   UNL     1       1.344   3.199  19.503  0.00  0.00    +0.000 C 
ATOM      4  C   UNL     1       2.550   2.271  19.511  0.00  0.00    +0.000 C 
ATOM      5  C   UNL     1       3.822   3.080  19.744  0.00  0.00    +0.000 C 
ATOM      6  C   UNL     1       3.995   4.203  18.701  0.00  0.00    +0.000 C 
ENDROOT
BRANCH   1   7
ATOM      7  C   UNL     1       2.926   6.245  17.841  0.00  0.00    +0.000 C 
BRANCH   7  11
ATOM      8  C   UNL     1       1.429   9.077  19.365  0.00  0.00    +0.000 A 
ATOM      9  N   UNL     1       1.485   9.544  18.110  0.00  0.00    +0.000 NA
ATOM     10  O   UNL     1       2.171   8.534  17.424  0.00  0.00    +0.000 OA
ATOM     11  C   UNL     1       2.458   7.571  18.346  0.00  0.00    +0.000 A 
ATOM     12  N   UNL     1       2.060   7.877  19.562  0.00  0.00    +0.000 NA
BRANCH   8  13
ATOM     13  C   UNL     1       0.555   9.675  20.404  0.00  0.00    +0.000 C 
BRANCH  13  14
ATOM     14  C   UNL     1       0.229   8.641  21.477  0.00  0.00    +0.000 C 
BRANCH  14  16
ATOM     15  C   UNL     1      -0.647  10.191  23.015  0.00  0.00    +0.000 C 
ATOM     16  O   UNL     1       0.367   9.219  22.776  0.00  0.00    +0.000 OA
ENDBRANCH  14  16
ENDBRANCH  13  14
ENDBRANCH   8  13
ENDBRANCH   7  11
ENDBRANCH   1   7
BRANCH   6  17
ATOM     17  C   UNL     1       4.348   3.655  17.294  0.00  0.00    +0.000 C 
BRANCH  17  18
ATOM     18  N   UNL     1       5.525   4.228  16.669  0.00  0.00    +0.000 N 
ATOM     19  C   UNL     1       6.690   4.585  17.276  0.00  0.00    +0.000 A 
ATOM     20  N   UNL     1       7.607   4.824  16.370  0.00  0.00    +0.000 NA
ATOM     21  C   UNL     1       6.949   4.578  15.198  0.00  0.00    +0.000 A 
ATOM     22  N   UNL     1       5.668   4.219  15.331  0.00  0.00    +0.000 NA
ENDBRANCH  17  18
ENDBRANCH   6  17
TORSDOF 7
ENDMDL
