MODEL 1
REMARK VINA RESULT:      -7.2      0.000      0.000
REMARK  Name = 
REMARK  9 active torsions:
REMARK  status: ('A' for Active; 'I' for Inactive)
REMARK    1  A    between atoms: C_1  and  C_2
REMARK    2  A    between atoms: C_2  and  N_3
REMARK    3  A    between atoms: N_3  and  C_4
REMARK    4  A    between atoms: N_3  and  C_6
REMARK    5  A    between atoms: C_4  and  C_5
REMARK    6  A    between atoms: C_6  and  C_7
REMARK    7  A    between atoms: C_7  and  C_8
REMARK    8  A    between atoms: C_8  and  C_9
REMARK    9  A    between atoms: C_9  and  N_10
REMARK                            x       y       z     vdW  Elec       q    Type
REMARK                         _______ _______ _______ _____ _____    ______ ____
ROOT
ATOM      1  N   UNL     1       3.845   6.278  17.707  0.00  0.00    +0.000 N 
ATOM      2  C   UNL     1       5.284   6.329  17.977  0.00  0.00    +0.000 A 
ATOM      3  C   UNL     1       6.179   7.291  17.384  0.00  0.00    +0.000 A 
ATOM      4  C   UNL     1       7.551   7.251  17.704  0.00  0.00    +0.000 A 
ATOM      5  C   UNL     1       8.064   6.278  18.552  0.00  0.00    +0.000 A 
ATOM      6  C   UNL     1       7.212   5.352  19.142  0.00  0.00    +0.000 A 
ATOM      7  C   UNL     1       5.847   5.409  18.881  0.00  0.00    +0.000 A 
ATOM      8  O   UNL     1       5.040   4.567  19.583  0.00  0.00    +0.000 OA
ATOM      9  C   UNL     1       3.688   4.804  19.616  0.00  0.00    +0.000 C 
ATOM     10  C   UNL     1       2.955   3.714  20.334  0.00  0.00    +0.000 C 
ATOM     11  C   UNL     1       1.633   3.957  20.272  0.00  0.00    +0.000 C 
ATOM     12  C   UNL     1       1.096   3.683  18.931  0.00  0.00    +0.000 C 
ATOM     13 CL   UNL     1       1.167   1.911  18.712  0.00  0.00    +0.000 Cl
ATOM     14  C   UNL     1       1.711   4.478  17.972  0.00  0.00    +0.000 C 
ATOM     15  C   UNL     1       3.209   4.950  18.156  0.00  0.00    +0.000 C 
ENDROOT
BRANCH   1  16
ATOM     16  C   UNL     1       3.142   7.434  17.165  0.00  0.00    +0.000 C 
BRANCH  16  17
ATOM     17  C   UNL     1       2.434   8.235  18.281  0.00  0.00    +0.000 C 
BRANCH  17  18
ATOM     18  C   UNL     1       1.839   9.527  17.730  0.00  0.00    +0.000 C 
BRANCH  18  19
ATOM     19  C   UNL     1       1.171  10.376  18.850  0.00  0.00    +0.000 C 
BRANCH  19  20
ATOM     20  N   UNL     1      -0.247  10.033  19.095  0.00  0.00    +0.000 NA
BRANCH  20  22
ATOM     21  C   UNL     1       0.191   9.135  21.449  0.00  0.00    +0.000 C 
ATOM     22  C   UNL     1      -0.533  10.134  20.553  0.00  0.00    +0.000 C 
ENDBRANCH  20  22
BRANCH  20  23
ATOM     23  C   UNL     1      -1.162  10.850  18.242  0.00  0.00    +0.000 C 
ATOM     24  C   UNL     1      -2.044  10.054  17.278  0.00  0.00    +0.000 C 
ENDBRANCH  20  23
ENDBRANCH  19  20
ENDBRANCH  18  19
ENDBRANCH  17  18
ENDBRANCH  16  17
ENDBRANCH   1  16
TORSDOF 7
ENDMDL
MODEL 2
REMARK VINA RESULT:      -7.1      4.349      7.664
REMARK  Name = 
REMARK  9 active torsions:
REMARK  status: ('A' for Active; 'I' for Inactive)
REMARK    1  A    between atoms: C_1  and  C_2
REMARK    2  A    between atoms: C_2  and  N_3
REMARK    3  A    between atoms: N_3  and  C_4
REMARK    4  A    between atoms: N_3  and  C_6
REMARK    5  A    between atoms: C_4  and  C_5
REMARK    6  A    between atoms: C_6  and  C_7
REMARK    7  A    between atoms: C_7  and  C_8
REMARK    8  A    between atoms: C_8  and  C_9
REMARK    9  A    between atoms: C_9  and  N_10
REMARK                            x       y       z     vdW  Elec       q    Type
REMARK                         _______ _______ _______ _____ _____    ______ ____
ROOT
ATOM      1  N   UNL     1       4.377   4.800  17.134  0.00  0.00    +0.000 N 
ATOM      2  C   UNL     1       3.329   4.501  18.114  0.00  0.00    +0.000 A 
ATOM      3  C   UNL     1       2.082   3.859  17.785  0.00  0.00    +0.000 A 
ATOM      4  C   UNL     1       1.135   3.621  18.800  0.00  0.00    +0.000 A 
ATOM      5  C   UNL     1       1.366   4.027  20.109  0.00  0.00    +0.000 A 
ATOM      6  C   UNL     1       2.569   4.635  20.445  0.00  0.00    +0.000 A 
ATOM      7  C   UNL     1       3.538   4.830  19.466  0.00  0.00    +0.000 A 
ATOM      8  O   UNL     1       4.748   5.306  19.869  0.00  0.00    +0.000 OA
ATOM      9  C   UNL     1       5.827   5.203  19.025  0.00  0.00    +0.000 C 
ATOM     10  C   UNL     1       7.034   5.884  19.590  0.00  0.00    +0.000 C 
ATOM     11  C   UNL     1       8.036   5.817  18.694  0.00  0.00    +0.000 C 
ATOM     12  C   UNL     1       7.818   6.739  17.569  0.00  0.00    +0.000 C 
ATOM     13 CL   UNL     1       8.006   8.390  18.228  0.00  0.00    +0.000 Cl
ATOM     14  C   UNL     1       6.639   6.442  16.898  0.00  0.00    +0.000 C 
ATOM     15  C   UNL     1       5.410   5.808  17.668  0.00  0.00    +0.000 C 
ENDROOT
BRANCH   1  16
ATOM     16  C   UNL     1       4.428   4.106  15.853  0.00  0.00    +0.000 C 
BRANCH  16  17
ATOM     17  C   UNL     1       5.848   3.572  15.560  0.00  0.00    +0.000 C 
BRANCH  17  18
ATOM     18  C   UNL     1       6.258   3.879  14.122  0.00  0.00    +0.000 C 
BRANCH  18  19
ATOM     19  C   UNL     1       5.022   3.988  13.183  0.00  0.00    +0.000 C 
BRANCH  19  20
ATOM     20  N   UNL     1       5.269   3.494  11.811  0.00  0.00    +0.000 NA
BRANCH  20  22
ATOM     21  C   UNL     1       6.165   1.199  11.128  0.00  0.00    +0.000 C 
ATOM     22  C   UNL     1       6.405   2.531  11.830  0.00  0.00    +0.000 C 
ENDBRANCH  20  22
BRANCH  20  23
ATOM     23  C   UNL     1       4.021   2.945  11.197  0.00  0.00    +0.000 C 
ATOM     24  C   UNL     1       3.347   3.849  10.163  0.00  0.00    +0.000 C 
ENDBRANCH  20  23
ENDBRANCH  19  20
ENDBRANCH  18  19
ENDBRANCH  17  18
ENDBRANCH  16  17
ENDBRANCH   1  16
TORSDOF 7
ENDMDL
MODEL 3
REMARK VINA RESULT:      -7.0      0.408      1.635
REMARK  Name = 
REMARK  9 active torsions:
REMARK  status: ('A' for Active; 'I' for Inactive)
REMARK    1  A    between atoms: C_1  and  C_2
REMARK    2  A    between atoms: C_2  and  N_3
REMARK    3  A    between atoms: N_3  and  C_4
REMARK    4  A    between atoms: N_3  and  C_6
REMARK    5  A    between atoms: C_4  and  C_5
REMARK    6  A    between atoms: C_6  and  C_7
REMARK    7  A    between atoms: C_7  and  C_8
REMARK    8  A    between atoms: C_8  and  C_9
REMARK    9  A    between atoms: C_9  and  N_10
REMARK                            x       y       z     vdW  Elec       q    Type
REMARK                         _______ _______ _______ _____ _____    ______ ____
ROOT
ATOM      1  N   UNL     1       3.779   6.312  17.700  0.00  0.00    +0.000 N 
ATOM      2  C   UNL     1       5.224   6.364  17.937  0.00  0.00    +0.000 A 
ATOM      3  C   UNL     1       6.101   7.337  17.336  0.00  0.00    +0.000 A 
ATOM      4  C   UNL     1       7.480   7.298  17.624  0.00  0.00    +0.000 A 
ATOM      5  C   UNL     1       8.016   6.317  18.448  0.00  0.00    +0.000 A 
ATOM      6  C   UNL     1       7.181   5.380  19.045  0.00  0.00    +0.000 A 
ATOM      7  C   UNL     1       5.811   5.435  18.816  0.00  0.00    +0.000 A 
ATOM      8  O   UNL     1       5.023   4.581  19.526  0.00  0.00    +0.000 OA
ATOM      9  C   UNL     1       3.671   4.813  19.593  0.00  0.00    +0.000 C 
ATOM     10  C   UNL     1       2.959   3.711  20.313  0.00  0.00    +0.000 C 
ATOM     11  C   UNL     1       1.634   3.950  20.285  0.00  0.00    +0.000 C 
ATOM     12  C   UNL     1       1.068   3.691  18.952  0.00  0.00    +0.000 C 
ATOM     13 CL   UNL     1       1.140   1.922  18.710  0.00  0.00    +0.000 Cl
ATOM     14  C   UNL     1       1.658   4.500  17.990  0.00  0.00    +0.000 C 
ATOM     15  C   UNL     1       3.158   4.975  18.146  0.00  0.00    +0.000 C 
ENDROOT
BRANCH   1  16
ATOM     16  C   UNL     1       3.059   7.471  17.188  0.00  0.00    +0.000 C 
BRANCH  16  17
ATOM     17  C   UNL     1       2.383   8.261  18.331  0.00  0.00    +0.000 C 
BRANCH  17  18
ATOM     18  C   UNL     1       1.464   9.345  17.774  0.00  0.00    +0.000 C 
BRANCH  18  19
ATOM     19  C   UNL     1       1.264  10.507  18.790  0.00  0.00    +0.000 C 
BRANCH  19  20
ATOM     20  N   UNL     1      -0.107  10.593  19.337  0.00  0.00    +0.000 NA
BRANCH  20  22
ATOM     21  C   UNL     1      -1.878  11.531  17.750  0.00  0.00    +0.000 C 
ATOM     22  C   UNL     1      -1.089  10.326  18.250  0.00  0.00    +0.000 C 
ENDBRANCH  20  22
BRANCH  20  23
ATOM     23  C   UNL     1      -0.274   9.710  20.532  0.00  0.00    +0.000 C 
ATOM     24  C   UNL     1       0.884   9.734  21.531  0.00  0.00    +0.000 C 
ENDBRANCH  20  23
ENDBRANCH  19  20
ENDBRANCH  18  19
ENDBRANCH  17  18
ENDBRANCH  16  17
ENDBRANCH   1  16
TORSDOF 7
ENDMDL
MODEL 4
REMARK VINA RESULT:      -6.9      0.929      1.670
REMARK  Name = 
REMARK  9 active torsions:
REMARK  status: ('A' for Active; 'I' for Inactive)
REMARK    1  A    between atoms: C_1  and  C_2
REMARK    2  A    between atoms: C_2  and  N_3
REMARK    3  A    between atoms: N_3  and  C_4
REMARK    4  A    between atoms: N_3  and  C_6
REMARK    5  A    between atoms: C_4  and  C_5
REMARK    6  A    between atoms: C_6  and  C_7
REMARK    7  A    between atoms: C_7  and  C_8
REMARK    8  A    between atoms: C_8  and  C_9
REMARK    9  A    between atoms: C_9  and  N_10
REMARK                            x       y       z     vdW  Elec       q    Type
REMARK                         _______ _______ _______ _____ _____    ______ ____
ROOT
ATOM      1  N   UNL     1       3.756   6.297  17.769  0.00  0.00    +0.000 N 
ATOM      2  C   UNL     1       5.204   6.327  17.989  0.00  0.00    +0.000 A 
ATOM      3  C   UNL     1       6.087   7.299  17.393  0.00  0.00    +0.000 A 
ATOM      4  C   UNL     1       7.469   7.237  17.662  0.00  0.00    +0.000 A 
ATOM      5  C   UNL     1       8.002   6.235  18.462  0.00  0.00    +0.000 A 
ATOM      6  C   UNL     1       7.163   5.299  19.055  0.00  0.00    +0.000 A 
ATOM      7  C   UNL     1       5.790   5.376  18.844  0.00  0.00    +0.000 A 
ATOM      8  O   UNL     1       5.000   4.520  19.550  0.00  0.00    +0.000 OA
ATOM      9  C   UNL     1       3.652   4.768  19.638  0.00  0.00    +0.000 C 
ATOM     10  C   UNL     1       2.935   3.663  20.349  0.00  0.00    +0.000 C 
ATOM     11  C   UNL     1       1.614   3.920  20.342  0.00  0.00    +0.000 C 
ATOM     12  C   UNL     1       1.027   3.691  19.013  0.00  0.00    +0.000 C 
ATOM     13 CL   UNL     1       1.073   1.925  18.740  0.00  0.00    +0.000 Cl
ATOM     14  C   UNL     1       1.615   4.508  18.056  0.00  0.00    +0.000 C 
ATOM     15  C   UNL     1       3.124   4.962  18.201  0.00  0.00    +0.000 C 
ENDROOT
BRANCH   1  16
ATOM     16  C   UNL     1       3.045   7.474  17.287  0.00  0.00    +0.000 C 
BRANCH  16  17
ATOM     17  C   UNL     1       2.308   8.195  18.438  0.00  0.00    +0.000 C 
BRANCH  17  18
ATOM     18  C   UNL     1       1.390   9.288  17.896  0.00  0.00    +0.000 C 
BRANCH  18  19
ATOM     19  C   UNL     1       0.400   9.798  18.982  0.00  0.00    +0.000 C 
BRANCH  19  20
ATOM     20  N   UNL     1       0.946   9.755  20.356  0.00  0.00    +0.000 NA
BRANCH  20  22
ATOM     21  C   UNL     1       1.284  12.259  19.970  0.00  0.00    +0.000 C 
ATOM     22  C   UNL     1       0.940  11.128  20.933  0.00  0.00    +0.000 C 
ENDBRANCH  20  22
BRANCH  20  23
ATOM     23  C   UNL     1       0.231   8.745  21.195  0.00  0.00    +0.000 C 
ATOM     24  C   UNL     1      -0.347   9.276  22.508  0.00  0.00    +0.000 C 
ENDBRANCH  20  23
ENDBRANCH  19  20
ENDBRANCH  18  19
ENDBRANCH  17  18
ENDBRANCH  16  17
ENDBRANCH   1  16
TORSDOF 7
ENDMDL
MODEL 5
REMARK VINA RESULT:      -6.9      4.365      7.824
REMARK  Name = 
REMARK  9 active torsions:
REMARK  status: ('A' for Active; 'I' for Inactive)
REMARK    1  A    between atoms: C_1  and  C_2
REMARK    2  A    between atoms: C_2  and  N_3
REMARK    3  A    between atoms: N_3  and  C_4
REMARK    4  A    between atoms: N_3  and  C_6
REMARK    5  A    between atoms: C_4  and  C_5
REMARK    6  A    between atoms: C_6  and  C_7
REMARK    7  A    between atoms: C_7  and  C_8
REMARK    8  A    between atoms: C_8  and  C_9
REMARK    9  A    between atoms: C_9  and  N_10
REMARK                            x       y       z     vdW  Elec       q    Type
REMARK                         _______ _______ _______ _____ _____    ______ ____
ROOT
ATOM      1  N   UNL     1       4.334   4.764  16.945  0.00  0.00    +0.000 N 
ATOM      2  C   UNL     1       3.301   4.408  17.921  0.00  0.00    +0.000 A 
ATOM      3  C   UNL     1       2.067   3.747  17.578  0.00  0.00    +0.000 A 
ATOM      4  C   UNL     1       1.133   3.453  18.591  0.00  0.00    +0.000 A 
ATOM      5  C   UNL     1       1.362   3.823  19.911  0.00  0.00    +0.000 A 
ATOM      6  C   UNL     1       2.553   4.449  20.259  0.00  0.00    +0.000 A 
ATOM      7  C   UNL     1       3.511   4.699  19.281  0.00  0.00    +0.000 A 
ATOM      8  O   UNL     1       4.711   5.192  19.693  0.00  0.00    +0.000 OA
ATOM      9  C   UNL     1       5.787   5.142  18.840  0.00  0.00    +0.000 C 
ATOM     10  C   UNL     1       6.980   5.833  19.419  0.00  0.00    +0.000 C 
ATOM     11  C   UNL     1       7.978   5.820  18.515  0.00  0.00    +0.000 C 
ATOM     12  C   UNL     1       7.730   6.772  17.422  0.00  0.00    +0.000 C 
ATOM     13 CL   UNL     1       7.883   8.405  18.133  0.00  0.00    +0.000 Cl
ATOM     14  C   UNL     1       6.554   6.468  16.749  0.00  0.00    +0.000 C 
ATOM     15  C   UNL     1       5.346   5.780  17.505  0.00  0.00    +0.000 C 
ENDROOT
BRANCH   1  16
ATOM     16  C   UNL     1       4.394   4.113  15.642  0.00  0.00    +0.000 C 
BRANCH  16  17
ATOM     17  C   UNL     1       5.853   3.813  15.231  0.00  0.00    +0.000 C 
BRANCH  17  18
ATOM     18  C   UNL     1       6.218   4.548  13.945  0.00  0.00    +0.000 C 
BRANCH  18  19
ATOM     19  C   UNL     1       6.549   3.558  12.791  0.00  0.00    +0.000 C 
BRANCH  19  20
ATOM     20  N   UNL     1       5.372   2.821  12.280  0.00  0.00    +0.000 NA
BRANCH  20  22
ATOM     21  C   UNL     1       3.419   3.176  10.669  0.00  0.00    +0.000 C 
ATOM     22  C   UNL     1       4.433   3.779  11.634  0.00  0.00    +0.000 C 
ENDBRANCH  20  22
BRANCH  20  23
ATOM     23  C   UNL     1       5.781   1.687  11.395  0.00  0.00    +0.000 C 
ATOM     24  C   UNL     1       7.252   1.684  10.973  0.00  0.00    +0.000 C 
ENDBRANCH  20  23
ENDBRANCH  19  20
ENDBRANCH  18  19
ENDBRANCH  17  18
ENDBRANCH  16  17
ENDBRANCH   1  16
TORSDOF 7
ENDMDL
MODEL 6
REMARK VINA RESULT:      -6.9      0.943      1.472
REMARK  Name = 
REMARK  9 active torsions:
REMARK  status: ('A' for Active; 'I' for Inactive)
REMARK    1  A    between atoms: C_1  and  C_2
REMARK    2  A    between atoms: C_2  and  N_3
REMARK    3  A    between atoms: N_3  and  C_4
REMARK    4  A    between atoms: N_3  and  C_6
REMARK    5  A    between atoms: C_4  and  C_5
REMARK    6  A    between atoms: C_6  and  C_7
REMARK    7  A    between atoms: C_7  and  C_8
REMARK    8  A    between atoms: C_8  and  C_9
REMARK    9  A    between atoms: C_9  and  N_10
REMARK                            x       y       z     vdW  Elec       q    Type
REMARK                         _______ _______ _______ _____ _____    ______ ____
ROOT
ATOM      1  N   UNL     1       3.783   6.331  17.717  0.00  0.00    +0.000 N 
ATOM      2  C   UNL     1       5.227   6.379  17.959  0.00  0.00    +0.000 A 
ATOM      3  C   UNL     1       6.108   7.356  17.371  0.00  0.00    +0.000 A 
ATOM      4  C   UNL     1       7.486   7.312  17.662  0.00  0.00    +0.000 A 
ATOM      5  C   UNL     1       8.018   6.321  18.477  0.00  0.00    +0.000 A 
ATOM      6  C   UNL     1       7.180   5.379  19.062  0.00  0.00    +0.000 A 
ATOM      7  C   UNL     1       5.810   5.439  18.830  0.00  0.00    +0.000 A 
ATOM      8  O   UNL     1       5.018   4.580  19.528  0.00  0.00    +0.000 OA
ATOM      9  C   UNL     1       3.666   4.813  19.594  0.00  0.00    +0.000 C 
ATOM     10  C   UNL     1       2.951   3.704  20.300  0.00  0.00    +0.000 C 
ATOM     11  C   UNL     1       1.627   3.946  20.271  0.00  0.00    +0.000 C 
ATOM     12  C   UNL     1       1.063   3.702  18.934  0.00  0.00    +0.000 C 
ATOM     13 CL   UNL     1       1.134   1.935  18.673  0.00  0.00    +0.000 Cl
ATOM     14  C   UNL     1       1.657   4.520  17.982  0.00  0.00    +0.000 C 
ATOM     15  C   UNL     1       3.159   4.991  18.147  0.00  0.00    +0.000 C 
ENDROOT
BRANCH   1  16
ATOM     16  C   UNL     1       3.067   7.497  17.215  0.00  0.00    +0.000 C 
BRANCH  16  17
ATOM     17  C   UNL     1       2.245   8.175  18.335  0.00  0.00    +0.000 C 
BRANCH  17  18
ATOM     18  C   UNL     1       1.551   9.431  17.816  0.00  0.00    +0.000 C 
BRANCH  18  19
ATOM     19  C   UNL     1       0.488   9.958  18.823  0.00  0.00    +0.000 C 
BRANCH  19  20
ATOM     20  N   UNL     1       0.752  11.331  19.307  0.00  0.00    +0.000 NA
BRANCH  20  22
ATOM     21  C   UNL     1       0.351  10.097  21.510  0.00  0.00    +0.000 C 
ATOM     22  C   UNL     1       0.933  11.306  20.785  0.00  0.00    +0.000 C 
ENDBRANCH  20  22
BRANCH  20  23
ATOM     23  C   UNL     1       1.890  11.960  18.570  0.00  0.00    +0.000 C 
ATOM     24  C   UNL     1       2.340  13.323  19.099  0.00  0.00    +0.000 C 
ENDBRANCH  20  23
ENDBRANCH  19  20
ENDBRANCH  18  19
ENDBRANCH  17  18
ENDBRANCH  16  17
ENDBRANCH   1  16
TORSDOF 7
ENDMDL
MODEL 7
REMARK VINA RESULT:      -6.8      2.283      4.481
REMARK  Name = 
REMARK  9 active torsions:
REMARK  status: ('A' for Active; 'I' for Inactive)
REMARK    1  A    between atoms: C_1  and  C_2
REMARK    2  A    between atoms: C_2  and  N_3
REMARK    3  A    between atoms: N_3  and  C_4
REMARK    4  A    between atoms: N_3  and  C_6
REMARK    5  A    between atoms: C_4  and  C_5
REMARK    6  A    between atoms: C_6  and  C_7
REMARK    7  A    between atoms: C_7  and  C_8
REMARK    8  A    between atoms: C_8  and  C_9
REMARK    9  A    between atoms: C_9  and  N_10
REMARK                            x       y       z     vdW  Elec       q    Type
REMARK                         _______ _______ _______ _____ _____    ______ ____
ROOT
ATOM      1  N   UNL     1       3.254   5.905  19.007  0.00  0.00    +0.000 N 
ATOM      2  C   UNL     1       2.630   4.700  19.559  0.00  0.00    +0.000 A 
ATOM      3  C   UNL     1       1.680   4.712  20.642  0.00  0.00    +0.000 A 
ATOM      4  C   UNL     1       1.141   3.495  21.106  0.00  0.00    +0.000 A 
ATOM      5  C   UNL     1       1.537   2.279  20.563  0.00  0.00    +0.000 A 
ATOM      6  C   UNL     1       2.442   2.252  19.508  0.00  0.00    +0.000 A 
ATOM      7  C   UNL     1       2.943   3.447  19.001  0.00  0.00    +0.000 A 
ATOM      8  O   UNL     1       3.721   3.375  17.886  0.00  0.00    +0.000 OA
ATOM      9  C   UNL     1       3.961   4.516  17.160  0.00  0.00    +0.000 C 
ATOM     10  C   UNL     1       4.927   4.265  16.045  0.00  0.00    +0.000 C 
ATOM     11  C   UNL     1       5.183   5.427  15.414  0.00  0.00    +0.000 C 
ATOM     12  C   UNL     1       6.057   6.295  16.218  0.00  0.00    +0.000 C 
ATOM     13 CL   UNL     1       7.663   5.511  16.239  0.00  0.00    +0.000 Cl
ATOM     14  C   UNL     1       5.472   6.604  17.439  0.00  0.00    +0.000 C 
ATOM     15  C   UNL     1       4.486   5.586  18.142  0.00  0.00    +0.000 C 
ENDROOT
BRANCH   1  16
ATOM     16  C   UNL     1       2.660   7.220  19.214  0.00  0.00    +0.000 C 
BRANCH  16  17
ATOM     17  C   UNL     1       2.008   7.751  17.917  0.00  0.00    +0.000 C 
BRANCH  17  18
ATOM     18  C   UNL     1       2.106   9.273  17.843  0.00  0.00    +0.000 C 
BRANCH  18  19
ATOM     19  C   UNL     1       0.801   9.957  18.345  0.00  0.00    +0.000 C 
BRANCH  19  20
ATOM     20  N   UNL     1       0.838  10.339  19.774  0.00  0.00    +0.000 NA
BRANCH  20  22
ATOM     21  C   UNL     1      -0.203  12.619  19.270  0.00  0.00    +0.000 C 
ATOM     22  C   UNL     1       0.941  11.821  19.885  0.00  0.00    +0.000 C 
ENDBRANCH  20  22
BRANCH  20  23
ATOM     23  C   UNL     1      -0.315   9.756  20.525  0.00  0.00    +0.000 C 
ATOM     24  C   UNL     1       0.049   8.687  21.557  0.00  0.00    +0.000 C 
ENDBRANCH  20  23
ENDBRANCH  19  20
ENDBRANCH  18  19
ENDBRANCH  17  18
ENDBRANCH  16  17
ENDBRANCH   1  16
TORSDOF 7
ENDMDL
MODEL 8
REMARK VINA RESULT:      -6.8      2.343      4.057
REMARK  Name = 
REMARK  9 active torsions:
REMARK  status: ('A' for Active; 'I' for Inactive)
REMARK    1  A    between atoms: C_1  and  C_2
REMARK    2  A    between atoms: C_2  and  N_3
REMARK    3  A    between atoms: N_3  and  C_4
REMARK    4  A    between atoms: N_3  and  C_6
REMARK    5  A    between atoms: C_4  and  C_5
REMARK    6  A    between atoms: C_6  and  C_7
REMARK    7  A    between atoms: C_7  and  C_8
REMARK    8  A    between atoms: C_8  and  C_9
REMARK    9  A    between atoms: C_9  and  N_10
REMARK                            x       y       z     vdW  Elec       q    Type
REMARK                         _______ _______ _______ _____ _____    ______ ____
ROOT
ATOM      1  N   UNL     1       3.041   5.696  18.244  0.00  0.00    +0.000 N 
ATOM      2  C   UNL     1       2.801   4.720  19.310  0.00  0.00    +0.000 A 
ATOM      3  C   UNL     1       1.831   4.900  20.360  0.00  0.00    +0.000 A 
ATOM      4  C   UNL     1       1.681   3.903  21.345  0.00  0.00    +0.000 A 
ATOM      5  C   UNL     1       2.479   2.765  21.344  0.00  0.00    +0.000 A 
ATOM      6  C   UNL     1       3.410   2.571  20.330  0.00  0.00    +0.000 A 
ATOM      7  C   UNL     1       3.534   3.518  19.319  0.00  0.00    +0.000 A 
ATOM      8  O   UNL     1       4.362   3.221  18.281  0.00  0.00    +0.000 OA
ATOM      9  C   UNL     1       4.271   3.946  17.119  0.00  0.00    +0.000 C 
ATOM     10  C   UNL     1       5.334   3.555  16.141  0.00  0.00    +0.000 C 
ATOM     11  C   UNL     1       5.245   4.345  15.054  0.00  0.00    +0.000 C 
ATOM     12  C   UNL     1       5.743   5.701  15.330  0.00  0.00    +0.000 C 
ATOM     13 CL   UNL     1       7.510   5.554  15.550  0.00  0.00    +0.000 Cl
ATOM     14  C   UNL     1       5.014   6.306  16.346  0.00  0.00    +0.000 C 
ATOM     15  C   UNL     1       4.363   5.439  17.498  0.00  0.00    +0.000 C 
ENDROOT
BRANCH   1  16
ATOM     16  C   UNL     1       2.046   6.709  17.916  0.00  0.00    +0.000 C 
BRANCH  16  17
ATOM     17  C   UNL     1       2.588   8.133  18.179  0.00  0.00    +0.000 C 
BRANCH  17  18
ATOM     18  C   UNL     1       1.501   9.179  17.947  0.00  0.00    +0.000 C 
BRANCH  18  19
ATOM     19  C   UNL     1       1.176   9.968  19.248  0.00  0.00    +0.000 C 
BRANCH  19  20
ATOM     20  N   UNL     1      -0.202   9.760  19.745  0.00  0.00    +0.000 NA
BRANCH  20  22
ATOM     21  C   UNL     1       1.232   8.776  21.619  0.00  0.00    +0.000 C 
ATOM     22  C   UNL     1      -0.149   9.182  21.116  0.00  0.00    +0.000 C 
ENDBRANCH  20  22
BRANCH  20  23
ATOM     23  C   UNL     1      -1.011  11.013  19.649  0.00  0.00    +0.000 C 
ATOM     24  C   UNL     1      -1.705  11.243  18.304  0.00  0.00    +0.000 C 
ENDBRANCH  20  23
ENDBRANCH  19  20
ENDBRANCH  18  19
ENDBRANCH  17  18
ENDBRANCH  16  17
ENDBRANCH   1  16
TORSDOF 7
ENDMDL
MODEL 9
REMARK VINA RESULT:      -6.8      2.147      4.526
REMARK  Name = 
REMARK  9 active torsions:
REMARK  status: ('A' for Active; 'I' for Inactive)
REMARK    1  A    between atoms: C_1  and  C_2
REMARK    2  A    between atoms: C_2  and  N_3
REMARK    3  A    between atoms: N_3  and  C_4
REMARK    4  A    between atoms: N_3  and  C_6
REMARK    5  A    between atoms: C_4  and  C_5
REMARK    6  A    between atoms: C_6  and  C_7
REMARK    7  A    between atoms: C_7  and  C_8
REMARK    8  A    between atoms: C_8  and  C_9
REMARK    9  A    between atoms: C_9  and  N_10
REMARK                            x       y       z     vdW  Elec       q    Type
REMARK                         _______ _______ _______ _____ _____    ______ ____
ROOT
ATOM      1  N   UNL     1       3.302   5.839  18.979  0.00  0.00    +0.000 N 
ATOM      2  C   UNL     1       2.606   4.658  19.497  0.00  0.00    +0.000 A 
ATOM      3  C   UNL     1       1.650   4.699  20.575  0.00  0.00    +0.000 A 
ATOM      4  C   UNL     1       1.039   3.505  21.006  0.00  0.00    +0.000 A 
ATOM      5  C   UNL     1       1.368   2.281  20.435  0.00  0.00    +0.000 A 
ATOM      6  C   UNL     1       2.277   2.228  19.385  0.00  0.00    +0.000 A 
ATOM      7  C   UNL     1       2.850   3.403  18.910  0.00  0.00    +0.000 A 
ATOM      8  O   UNL     1       3.630   3.314  17.798  0.00  0.00    +0.000 OA
ATOM      9  C   UNL     1       3.941   4.456  17.102  0.00  0.00    +0.000 C 
ATOM     10  C   UNL     1       4.899   4.177  15.986  0.00  0.00    +0.000 C 
ATOM     11  C   UNL     1       5.226   5.337  15.386  0.00  0.00    +0.000 C 
ATOM     12  C   UNL     1       6.142   6.134  16.216  0.00  0.00    +0.000 C 
ATOM     13 CL   UNL     1       7.701   5.258  16.227  0.00  0.00    +0.000 Cl
ATOM     14  C   UNL     1       5.568   6.446  17.441  0.00  0.00    +0.000 C 
ATOM     15  C   UNL     1       4.520   5.469  18.113  0.00  0.00    +0.000 C 
ENDROOT
BRANCH   1  16
ATOM     16  C   UNL     1       2.784   7.180  19.214  0.00  0.00    +0.000 C 
BRANCH  16  17
ATOM     17  C   UNL     1       2.206   7.794  17.919  0.00  0.00    +0.000 C 
BRANCH  17  18
ATOM     18  C   UNL     1       1.942   9.287  18.095  0.00  0.00    +0.000 C 
BRANCH  18  19
ATOM     19  C   UNL     1       0.449   9.642  17.833  0.00  0.00    +0.000 C 
BRANCH  19  20
ATOM     20  N   UNL     1      -0.186  10.402  18.932  0.00  0.00    +0.000 NA
BRANCH  20  22
ATOM     21  C   UNL     1      -2.121  10.016  17.305  0.00  0.00    +0.000 C 
ATOM     22  C   UNL     1      -1.615  10.654  18.594  0.00  0.00    +0.000 C 
ENDBRANCH  20  22
BRANCH  20  23
ATOM     23  C   UNL     1       0.012   9.724  20.249  0.00  0.00    +0.000 C 
ATOM     24  C   UNL     1       0.535  10.620  21.374  0.00  0.00    +0.000 C 
ENDBRANCH  20  23
ENDBRANCH  19  20
ENDBRANCH  18  19
ENDBRANCH  17  18
ENDBRANCH  16  17
ENDBRANCH   1  16
TORSDOF 7
ENDMDL
