MODEL 1
REMARK VINA RESULT:      -8.6      0.000      0.000
REMARK  Name = 
REMARK  8 active torsions:
REMARK  status: ('A' for Active; 'I' for Inactive)
REMARK    1  A    between atoms: C_1  and  C_2
REMARK    2  A    between atoms: C_2  and  N_3
REMARK    3  A    between atoms: C_4  and  C_6
REMARK    4  A    between atoms: C_8  and  N_9
REMARK    5  A    between atoms: C_12  and  C_14
REMARK    6  A    between atoms: C_14  and  C_15
REMARK    7  A    between atoms: C_18  and  O_19
REMARK    8  A    between atoms: O_19  and  C_20
REMARK                            x       y       z     vdW  Elec       q    Type
REMARK                         _______ _______ _______ _____ _____    ______ ____
ROOT
ATOM      1  C   UNL     1       6.266   3.739  17.012  0.00  0.00    +0.000 C 
ATOM      2  C   UNL     1       6.331   3.829  15.477  0.00  0.00    +0.000 C 
ATOM      3  C   UNL     1       5.248   4.841  15.109  0.00  0.00    +0.000 C 
ATOM      4  C   UNL     1       4.179   4.538  16.162  0.00  0.00    +0.000 C 
ATOM      5  N   UNL     1       4.890   4.146  17.366  0.00  0.00    +0.000 N 
ATOM      6  C   UNL     1       4.423   3.909  18.646  0.00  0.00    +0.000 C 
ATOM      7  O   UNL     1       5.253   3.472  19.459  0.00  0.00    +0.000 OA
ENDROOT
BRANCH   6   8
ATOM      8  C   UNL     1       2.896   4.014  19.087  0.00  0.00    +0.000 C 
ATOM      9  C   UNL     1       1.853   3.220  18.270  0.00  0.00    +0.000 C 
ATOM     10  C   UNL     1       0.671   2.964  19.193  0.00  0.00    +0.000 C 
ATOM     11  C   UNL     1       1.303   2.807  20.570  0.00  0.00    +0.000 C 
ATOM     12  C   UNL     1       2.763   3.254  20.438  0.00  0.00    +0.000 C 
BRANCH   8  13
ATOM     13  C   UNL     1       2.494   5.516  19.274  0.00  0.00    +0.000 A 
ATOM     14  C   UNL     1       2.032   6.038  20.494  0.00  0.00    +0.000 A 
ATOM     15  C   UNL     1       1.663   7.385  20.625  0.00  0.00    +0.000 A 
ATOM     16  C   UNL     1       1.735   8.258  19.544  0.00  0.00    +0.000 A 
ATOM     17  C   UNL     1       2.183   7.771  18.323  0.00  0.00    +0.000 A 
ATOM     18  C   UNL     1       2.569   6.425  18.198  0.00  0.00    +0.000 A 
BRANCH  16  19
ATOM     19  O   UNL     1       1.303   9.529  19.795  0.00  0.00    +0.000 OA
ATOM     20  C   UNL     1       1.094  10.358  18.657  0.00  0.00    +0.000 C 
ENDBRANCH  16  19
ENDBRANCH   8  13
ENDBRANCH   6   8
BRANCH   1  22
ATOM     21  N   UNL     1       6.960   5.938  17.853  0.00  0.00    +0.000 N 
ATOM     22  C   UNL     1       7.359   4.633  17.638  0.00  0.00    +0.000 C 
ATOM     23  O   UNL     1       8.496   4.237  17.885  0.00  0.00    +0.000 OA
ATOM     24  H   UNL     1       6.313   6.287  17.140  0.00  0.00    +0.000 HD
BRANCH  21  26
ATOM     25  C   UNL     1       7.942   8.188  17.707  0.00  0.00    +0.000 C 
ATOM     26  C   UNL     1       7.881   6.875  18.462  0.00  0.00    +0.000 C 
ENDBRANCH  21  26
ENDBRANCH   1  22
BRANCH   3  27
ATOM     27  N   UNL     1       5.715   6.228  15.178  0.00  0.00    +0.000 NA
ATOM     28  H   UNL     1       5.205   6.809  14.497  0.00  0.00    +0.000 HD
ATOM     29  H   UNL     1       6.694   6.295  14.903  0.00  0.00    +0.000 HD
ENDBRANCH   3  27
TORSDOF 6
ENDMDL
MODEL 2
REMARK VINA RESULT:      -8.2      1.591      2.864
REMARK  Name = 
REMARK  8 active torsions:
REMARK  status: ('A' for Active; 'I' for Inactive)
REMARK    1  A    between atoms: C_1  and  C_2
REMARK    2  A    between atoms: C_2  and  N_3
REMARK    3  A    between atoms: C_4  and  C_6
REMARK    4  A    between atoms: C_8  and  N_9
REMARK    5  A    between atoms: C_12  and  C_14
REMARK    6  A    between atoms: C_14  and  C_15
REMARK    7  A    between atoms: C_18  and  O_19
REMARK    8  A    between atoms: O_19  and  C_20
REMARK                            x       y       z     vdW  Elec       q    Type
REMARK                         _______ _______ _______ _____ _____    ______ ____
ROOT
ATOM      1  C   UNL     1       6.479   6.233  16.858  0.00  0.00    +0.000 C 
ATOM      2  C   UNL     1       7.577   6.842  17.749  0.00  0.00    +0.000 C 
ATOM      3  C   UNL     1       7.523   6.021  19.035  0.00  0.00    +0.000 C 
ATOM      4  C   UNL     1       6.022   5.741  19.154  0.00  0.00    +0.000 C 
ATOM      5  N   UNL     1       5.522   5.609  17.797  0.00  0.00    +0.000 N 
ATOM      6  C   UNL     1       4.281   5.214  17.333  0.00  0.00    +0.000 C 
ATOM      7  O   UNL     1       4.101   5.304  16.109  0.00  0.00    +0.000 OA
ENDROOT
BRANCH   6   8
ATOM      8  C   UNL     1       3.054   4.808  18.265  0.00  0.00    +0.000 C 
ATOM      9  C   UNL     1       1.942   3.930  17.651  0.00  0.00    +0.000 C 
ATOM     10  C   UNL     1       1.280   3.188  18.803  0.00  0.00    +0.000 C 
ATOM     11  C   UNL     1       2.414   2.950  19.792  0.00  0.00    +0.000 C 
ATOM     12  C   UNL     1       3.599   3.798  19.315  0.00  0.00    +0.000 C 
BRANCH   8  13
ATOM     13  C   UNL     1       2.487   6.077  18.986  0.00  0.00    +0.000 A 
ATOM     14  C   UNL     1       2.045   6.067  20.320  0.00  0.00    +0.000 A 
ATOM     15  C   UNL     1       1.526   7.217  20.933  0.00  0.00    +0.000 A 
ATOM     16  C   UNL     1       1.423   8.417  20.236  0.00  0.00    +0.000 A 
ATOM     17  C   UNL     1       1.846   8.459  18.914  0.00  0.00    +0.000 A 
ATOM     18  C   UNL     1       2.383   7.310  18.307  0.00  0.00    +0.000 A 
BRANCH  16  19
ATOM     19  O   UNL     1       0.858   9.447  20.934  0.00  0.00    +0.000 OA
ATOM     20  C   UNL     1      -0.004  10.307  20.198  0.00  0.00    +0.000 C 
ENDBRANCH  16  19
ENDBRANCH   8  13
ENDBRANCH   6   8
BRANCH   1  22
ATOM     21  N   UNL     1       6.666   5.402  14.556  0.00  0.00    +0.000 N 
ATOM     22  C   UNL     1       7.105   5.239  15.856  0.00  0.00    +0.000 C 
ATOM     23  O   UNL     1       7.891   4.353  16.185  0.00  0.00    +0.000 OA
ATOM     24  H   UNL     1       5.687   5.696  14.493  0.00  0.00    +0.000 HD
BRANCH  21  26
ATOM     25  C   UNL     1       6.145   3.620  12.944  0.00  0.00    +0.000 C 
ATOM     26  C   UNL     1       7.197   4.552  13.512  0.00  0.00    +0.000 C 
ENDBRANCH  21  26
ENDBRANCH   1  22
BRANCH   3  27
ATOM     27  N   UNL     1       8.311   4.789  18.961  0.00  0.00    +0.000 NA
ATOM     28  H   UNL     1       8.509   4.435  19.908  0.00  0.00    +0.000 HD
ATOM     29  H   UNL     1       9.226   4.968  18.549  0.00  0.00    +0.000 HD
ENDBRANCH   3  27
TORSDOF 6
ENDMDL
MODEL 3
REMARK VINA RESULT:      -8.1      0.842      1.267
REMARK  Name = 
REMARK  8 active torsions:
REMARK  status: ('A' for Active; 'I' for Inactive)
REMARK    1  A    between atoms: C_1  and  C_2
REMARK    2  A    between atoms: C_2  and  N_3
REMARK    3  A    between atoms: C_4  and  C_6
REMARK    4  A    between atoms: C_8  and  N_9
REMARK    5  A    between atoms: C_12  and  C_14
REMARK    6  A    between atoms: C_14  and  C_15
REMARK    7  A    between atoms: C_18  and  O_19
REMARK    8  A    between atoms: O_19  and  C_20
REMARK                            x       y       z     vdW  Elec       q    Type
REMARK                         _______ _______ _______ _____ _____    ______ ____
ROOT
ATOM      1  C   UNL     1       6.588   4.365  17.782  0.00  0.00    +0.000 C 
ATOM      2  C   UNL     1       6.878   4.305  16.272  0.00  0.00    +0.000 C 
ATOM      3  C   UNL     1       5.797   5.181  15.642  0.00  0.00    +0.000 C 
ATOM      4  C   UNL     1       4.604   4.897  16.558  0.00  0.00    +0.000 C 
ATOM      5  N   UNL     1       5.149   4.689  17.888  0.00  0.00    +0.000 N 
ATOM      6  C   UNL     1       4.512   4.544  19.106  0.00  0.00    +0.000 C 
ATOM      7  O   UNL     1       5.237   4.262  20.073  0.00  0.00    +0.000 OA
ENDROOT
BRANCH   6   8
ATOM      8  C   UNL     1       2.931   4.565  19.308  0.00  0.00    +0.000 C 
ATOM      9  C   UNL     1       2.074   3.673  18.384  0.00  0.00    +0.000 C 
ATOM     10  C   UNL     1       0.783   3.375  19.133  0.00  0.00    +0.000 C 
ATOM     11  C   UNL     1       1.206   3.313  20.594  0.00  0.00    +0.000 C 
ATOM     12  C   UNL     1       2.641   3.850  20.660  0.00  0.00    +0.000 C 
BRANCH   8  13
ATOM     13  C   UNL     1       2.417   6.043  19.362  0.00  0.00    +0.000 A 
ATOM     14  C   UNL     1       2.431   6.899  18.249  0.00  0.00    +0.000 A 
ATOM     15  C   UNL     1       1.979   8.224  18.333  0.00  0.00    +0.000 A 
ATOM     16  C   UNL     1       1.503   8.745  19.532  0.00  0.00    +0.000 A 
ATOM     17  C   UNL     1       1.482   7.925  20.653  0.00  0.00    +0.000 A 
ATOM     18  C   UNL     1       1.918   6.592  20.562  0.00  0.00    +0.000 A 
BRANCH  16  19
ATOM     19  O   UNL     1       1.138  10.061  19.489  0.00  0.00    +0.000 OA
ATOM     20  C   UNL     1      -0.247  10.323  19.296  0.00  0.00    +0.000 C 
ENDBRANCH  16  19
ENDBRANCH   8  13
ENDBRANCH   6   8
BRANCH   1  22
ATOM     21  N   UNL     1       7.463   6.656  17.871  0.00  0.00    +0.000 N 
ATOM     22  C   UNL     1       7.510   5.405  18.455  0.00  0.00    +0.000 C 
ATOM     23  O   UNL     1       8.254   5.140  19.396  0.00  0.00    +0.000 OA
ATOM     24  H   UNL     1       7.324   6.625  16.857  0.00  0.00    +0.000 HD
BRANCH  21  26
ATOM     25  C   UNL     1       7.972   9.059  17.747  0.00  0.00    +0.000 C 
ATOM     26  C   UNL     1       8.259   7.732  18.423  0.00  0.00    +0.000 C 
ENDBRANCH  21  26
ENDBRANCH   1  22
BRANCH   3  27
ATOM     27  N   UNL     1       6.154   6.602  15.621  0.00  0.00    +0.000 NA
ATOM     28  H   UNL     1       5.658   7.082  14.856  0.00  0.00    +0.000 HD
ATOM     29  H   UNL     1       7.144   6.725  15.414  0.00  0.00    +0.000 HD
ENDBRANCH   3  27
TORSDOF 6
ENDMDL
MODEL 4
REMARK VINA RESULT:      -8.1      1.651      3.057
REMARK  Name = 
REMARK  8 active torsions:
REMARK  status: ('A' for Active; 'I' for Inactive)
REMARK    1  A    between atoms: C_1  and  C_2
REMARK    2  A    between atoms: C_2  and  N_3
REMARK    3  A    between atoms: C_4  and  C_6
REMARK    4  A    between atoms: C_8  and  N_9
REMARK    5  A    between atoms: C_12  and  C_14
REMARK    6  A    between atoms: C_14  and  C_15
REMARK    7  A    between atoms: C_18  and  O_19
REMARK    8  A    between atoms: O_19  and  C_20
REMARK                            x       y       z     vdW  Elec       q    Type
REMARK                         _______ _______ _______ _____ _____    ______ ____
ROOT
ATOM      1  C   UNL     1       6.460   6.216  16.887  0.00  0.00    +0.000 C 
ATOM      2  C   UNL     1       7.533   6.840  17.796  0.00  0.00    +0.000 C 
ATOM      3  C   UNL     1       7.502   5.988  19.063  0.00  0.00    +0.000 C 
ATOM      4  C   UNL     1       6.012   5.654  19.168  0.00  0.00    +0.000 C 
ATOM      5  N   UNL     1       5.522   5.536  17.806  0.00  0.00    +0.000 N 
ATOM      6  C   UNL     1       4.297   5.110  17.328  0.00  0.00    +0.000 C 
ATOM      7  O   UNL     1       4.117   5.223  16.105  0.00  0.00    +0.000 OA
ENDROOT
BRANCH   6   8
ATOM      8  C   UNL     1       3.080   4.641  18.244  0.00  0.00    +0.000 C 
ATOM      9  C   UNL     1       1.978   3.778  17.593  0.00  0.00    +0.000 C 
ATOM     10  C   UNL     1       1.334   2.970  18.710  0.00  0.00    +0.000 C 
ATOM     11  C   UNL     1       2.476   2.700  19.679  0.00  0.00    +0.000 C 
ATOM     12  C   UNL     1       3.646   3.587  19.240  0.00  0.00    +0.000 C 
BRANCH   8  13
ATOM     13  C   UNL     1       2.499   5.864  19.031  0.00  0.00    +0.000 A 
ATOM     14  C   UNL     1       2.430   7.159  18.491  0.00  0.00    +0.000 A 
ATOM     15  C   UNL     1       1.919   8.238  19.227  0.00  0.00    +0.000 A 
ATOM     16  C   UNL     1       1.466   8.066  20.531  0.00  0.00    +0.000 A 
ATOM     17  C   UNL     1       1.526   6.798  21.097  0.00  0.00    +0.000 A 
ATOM     18  C   UNL     1       2.021   5.715  20.350  0.00  0.00    +0.000 A 
BRANCH  16  19
ATOM     19  O   UNL     1       1.037   9.204  21.152  0.00  0.00    +0.000 OA
ATOM     20  C   UNL     1      -0.152   9.090  21.925  0.00  0.00    +0.000 C 
ENDBRANCH  16  19
ENDBRANCH   8  13
ENDBRANCH   6   8
BRANCH   1  22
ATOM     21  N   UNL     1       6.702   5.463  14.563  0.00  0.00    +0.000 N 
ATOM     22  C   UNL     1       7.123   5.268  15.864  0.00  0.00    +0.000 C 
ATOM     23  O   UNL     1       7.922   4.388  16.178  0.00  0.00    +0.000 OA
ATOM     24  H   UNL     1       5.719   5.739  14.492  0.00  0.00    +0.000 HD
BRANCH  21  26
ATOM     25  C   UNL     1       6.280   3.640  12.967  0.00  0.00    +0.000 C 
ATOM     26  C   UNL     1       7.269   4.659  13.501  0.00  0.00    +0.000 C 
ENDBRANCH  21  26
ENDBRANCH   1  22
BRANCH   3  27
ATOM     27  N   UNL     1       8.333   4.786  18.963  0.00  0.00    +0.000 NA
ATOM     28  H   UNL     1       7.744   3.942  19.001  0.00  0.00    +0.000 HD
ATOM     29  H   UNL     1       8.959   4.710  19.764  0.00  0.00    +0.000 HD
ENDBRANCH   3  27
TORSDOF 6
ENDMDL
MODEL 5
REMARK VINA RESULT:      -7.9      1.600      3.060
REMARK  Name = 
REMARK  8 active torsions:
REMARK  status: ('A' for Active; 'I' for Inactive)
REMARK    1  A    between atoms: C_1  and  C_2
REMARK    2  A    between atoms: C_2  and  N_3
REMARK    3  A    between atoms: C_4  and  C_6
REMARK    4  A    between atoms: C_8  and  N_9
REMARK    5  A    between atoms: C_12  and  C_14
REMARK    6  A    between atoms: C_14  and  C_15
REMARK    7  A    between atoms: C_18  and  O_19
REMARK    8  A    between atoms: O_19  and  C_20
REMARK                            x       y       z     vdW  Elec       q    Type
REMARK                         _______ _______ _______ _____ _____    ______ ____
ROOT
ATOM      1  C   UNL     1       6.628   6.392  16.965  0.00  0.00    +0.000 C 
ATOM      2  C   UNL     1       7.766   6.889  17.875  0.00  0.00    +0.000 C 
ATOM      3  C   UNL     1       7.612   6.074  19.157  0.00  0.00    +0.000 C 
ATOM      4  C   UNL     1       6.089   5.941  19.252  0.00  0.00    +0.000 C 
ATOM      5  N   UNL     1       5.600   5.861  17.886  0.00  0.00    +0.000 N 
ATOM      6  C   UNL     1       4.334   5.590  17.402  0.00  0.00    +0.000 C 
ATOM      7  O   UNL     1       4.183   5.701  16.175  0.00  0.00    +0.000 OA
ENDROOT
BRANCH   6   8
ATOM      8  C   UNL     1       3.058   5.304  18.313  0.00  0.00    +0.000 C 
ATOM      9  C   UNL     1       2.003   4.308  17.783  0.00  0.00    +0.000 C 
ATOM     10  C   UNL     1       1.285   3.740  18.998  0.00  0.00    +0.000 C 
ATOM     11  C   UNL     1       2.358   3.694  20.077  0.00  0.00    +0.000 C 
ATOM     12  C   UNL     1       3.556   4.488  19.541  0.00  0.00    +0.000 C 
BRANCH   8  13
ATOM     13  C   UNL     1       2.425   6.655  18.787  0.00  0.00    +0.000 A 
ATOM     14  C   UNL     1       2.139   7.716  17.912  0.00  0.00    +0.000 A 
ATOM     15  C   UNL     1       1.587   8.921  18.370  0.00  0.00    +0.000 A 
ATOM     16  C   UNL     1       1.305   9.113  19.719  0.00  0.00    +0.000 A 
ATOM     17  C   UNL     1       1.581   8.085  20.612  0.00  0.00    +0.000 A 
ATOM     18  C   UNL     1       2.117   6.872  20.147  0.00  0.00    +0.000 A 
BRANCH  16  19
ATOM     19  O   UNL     1       0.814  10.347  20.039  0.00  0.00    +0.000 OA
ATOM     20  C   UNL     1       1.323  11.442  19.287  0.00  0.00    +0.000 C 
ENDBRANCH  16  19
ENDBRANCH   8  13
ENDBRANCH   6   8
BRANCH   1  22
ATOM     21  N   UNL     1       6.732   5.526  14.671  0.00  0.00    +0.000 N 
ATOM     22  C   UNL     1       7.170   5.345  15.968  0.00  0.00    +0.000 C 
ATOM     23  O   UNL     1       7.892   4.407  16.301  0.00  0.00    +0.000 OA
ATOM     24  H   UNL     1       5.777   5.890  14.613  0.00  0.00    +0.000 HD
BRANCH  21  26
ATOM     25  C   UNL     1       6.095   3.688  13.167  0.00  0.00    +0.000 C 
ATOM     26  C   UNL     1       7.190   4.629  13.631  0.00  0.00    +0.000 C 
ENDBRANCH  21  26
ENDBRANCH   1  22
BRANCH   3  27
ATOM     27  N   UNL     1       8.278   4.771  19.090  0.00  0.00    +0.000 NA
ATOM     28  H   UNL     1       7.951   4.164  19.856  0.00  0.00    +0.000 HD
ATOM     29  H   UNL     1       9.281   4.868  19.239  0.00  0.00    +0.000 HD
ENDBRANCH   3  27
TORSDOF 6
ENDMDL
MODEL 6
REMARK VINA RESULT:      -7.7      1.276      1.350
REMARK  Name = 
REMARK  8 active torsions:
REMARK  status: ('A' for Active; 'I' for Inactive)
REMARK    1  A    between atoms: C_1  and  C_2
REMARK    2  A    between atoms: C_2  and  N_3
REMARK    3  A    between atoms: C_4  and  C_6
REMARK    4  A    between atoms: C_8  and  N_9
REMARK    5  A    between atoms: C_12  and  C_14
REMARK    6  A    between atoms: C_14  and  C_15
REMARK    7  A    between atoms: C_18  and  O_19
REMARK    8  A    between atoms: O_19  and  C_20
REMARK                            x       y       z     vdW  Elec       q    Type
REMARK                         _______ _______ _______ _____ _____    ______ ____
ROOT
ATOM      1  C   UNL     1       6.675   4.762  17.451  0.00  0.00    +0.000 C 
ATOM      2  C   UNL     1       6.926   3.976  16.152  0.00  0.00    +0.000 C 
ATOM      3  C   UNL     1       5.687   4.243  15.299  0.00  0.00    +0.000 C 
ATOM      4  C   UNL     1       4.592   4.306  16.367  0.00  0.00    +0.000 C 
ATOM      5  N   UNL     1       5.205   4.889  17.548  0.00  0.00    +0.000 N 
ATOM      6  C   UNL     1       4.640   5.304  18.739  0.00  0.00    +0.000 C 
ATOM      7  O   UNL     1       5.432   5.663  19.625  0.00  0.00    +0.000 OA
ENDROOT
BRANCH   6   8
ATOM      8  C   UNL     1       3.088   5.204  19.089  0.00  0.00    +0.000 C 
ATOM      9  C   UNL     1       2.228   4.212  18.275  0.00  0.00    +0.000 C 
ATOM     10  C   UNL     1       1.040   3.840  19.150  0.00  0.00    +0.000 C 
ATOM     11  C   UNL     1       1.598   3.866  20.566  0.00  0.00    +0.000 C 
ATOM     12  C   UNL     1       2.982   4.519  20.482  0.00  0.00    +0.000 C 
BRANCH   8  13
ATOM     13  C   UNL     1       2.459   6.637  19.147  0.00  0.00    +0.000 A 
ATOM     14  C   UNL     1       1.940   7.199  20.325  0.00  0.00    +0.000 A 
ATOM     15  C   UNL     1       1.367   8.479  20.341  0.00  0.00    +0.000 A 
ATOM     16  C   UNL     1       1.285   9.242  19.181  0.00  0.00    +0.000 A 
ATOM     17  C   UNL     1       1.784   8.713  17.997  0.00  0.00    +0.000 A 
ATOM     18  C   UNL     1       2.374   7.438  17.987  0.00  0.00    +0.000 A 
BRANCH  16  19
ATOM     19  O   UNL     1       0.663  10.451  19.324  0.00  0.00    +0.000 OA
ATOM     20  C   UNL     1       0.069  10.706  20.591  0.00  0.00    +0.000 C 
ENDBRANCH  16  19
ENDBRANCH   8  13
ENDBRANCH   6   8
BRANCH   1  22
ATOM     21  N   UNL     1       7.817   6.585  18.633  0.00  0.00    +0.000 N 
ATOM     22  C   UNL     1       7.414   6.117  17.398  0.00  0.00    +0.000 C 
ATOM     23  O   UNL     1       7.591   6.748  16.358  0.00  0.00    +0.000 OA
ATOM     24  H   UNL     1       7.168   6.347  19.388  0.00  0.00    +0.000 HD
BRANCH  21  26
ATOM     25  C   UNL     1       7.911   8.925  17.884  0.00  0.00    +0.000 C 
ATOM     26  C   UNL     1       8.547   7.832  18.721  0.00  0.00    +0.000 C 
ENDBRANCH  21  26
ENDBRANCH   1  22
BRANCH   3  27
ATOM     27  N   UNL     1       5.781   5.485  14.528  0.00  0.00    +0.000 NA
ATOM     28  H   UNL     1       6.591   5.449  13.893  0.00  0.00    +0.000 HD
ATOM     29  H   UNL     1       5.959   6.280  15.141  0.00  0.00    +0.000 HD
ENDBRANCH   3  27
TORSDOF 6
ENDMDL
MODEL 7
REMARK VINA RESULT:      -7.4      0.381      1.120
REMARK  Name = 
REMARK  8 active torsions:
REMARK  status: ('A' for Active; 'I' for Inactive)
REMARK    1  A    between atoms: C_1  and  C_2
REMARK    2  A    between atoms: C_2  and  N_3
REMARK    3  A    between atoms: C_4  and  C_6
REMARK    4  A    between atoms: C_8  and  N_9
REMARK    5  A    between atoms: C_12  and  C_14
REMARK    6  A    between atoms: C_14  and  C_15
REMARK    7  A    between atoms: C_18  and  O_19
REMARK    8  A    between atoms: O_19  and  C_20
REMARK                            x       y       z     vdW  Elec       q    Type
REMARK                         _______ _______ _______ _____ _____    ______ ____
ROOT
ATOM      1  C   UNL     1       6.183   3.655  16.869  0.00  0.00    +0.000 C 
ATOM      2  C   UNL     1       6.229   3.806  15.338  0.00  0.00    +0.000 C 
ATOM      3  C   UNL     1       5.159   4.850  15.025  0.00  0.00    +0.000 C 
ATOM      4  C   UNL     1       4.098   4.523  16.079  0.00  0.00    +0.000 C 
ATOM      5  N   UNL     1       4.818   4.071  17.257  0.00  0.00    +0.000 N 
ATOM      6  C   UNL     1       4.364   3.791  18.533  0.00  0.00    +0.000 C 
ATOM      7  O   UNL     1       5.196   3.308  19.316  0.00  0.00    +0.000 OA
ENDROOT
BRANCH   6   8
ATOM      8  C   UNL     1       2.844   3.904  18.998  0.00  0.00    +0.000 C 
ATOM      9  C   UNL     1       1.785   3.110  18.201  0.00  0.00    +0.000 C 
ATOM     10  C   UNL     1       0.618   2.863  19.145  0.00  0.00    +0.000 C 
ATOM     11  C   UNL     1       1.271   2.709  20.512  0.00  0.00    +0.000 C 
ATOM     12  C   UNL     1       2.731   3.150  20.354  0.00  0.00    +0.000 C 
BRANCH   8  13
ATOM     13  C   UNL     1       2.451   5.408  19.185  0.00  0.00    +0.000 A 
ATOM     14  C   UNL     1       2.520   6.352  18.148  0.00  0.00    +0.000 A 
ATOM     15  C   UNL     1       2.177   7.697  18.352  0.00  0.00    +0.000 A 
ATOM     16  C   UNL     1       1.759   8.149  19.600  0.00  0.00    +0.000 A 
ATOM     17  C   UNL     1       1.685   7.241  20.648  0.00  0.00    +0.000 A 
ATOM     18  C   UNL     1       2.012   5.890  20.437  0.00  0.00    +0.000 A 
BRANCH  16  19
ATOM     19  O   UNL     1       1.500   9.489  19.675  0.00  0.00    +0.000 OA
ATOM     20  C   UNL     1       1.099  10.121  18.465  0.00  0.00    +0.000 C 
ENDBRANCH  16  19
ENDBRANCH   8  13
ENDBRANCH   6   8
BRANCH   1  22
ATOM     21  N   UNL     1       6.893   5.771  17.892  0.00  0.00    +0.000 N 
ATOM     22  C   UNL     1       7.299   4.505  17.515  0.00  0.00    +0.000 C 
ATOM     23  O   UNL     1       8.456   4.113  17.646  0.00  0.00    +0.000 OA
ATOM     24  H   UNL     1       6.193   6.176  17.263  0.00  0.00    +0.000 HD
BRANCH  21  26
ATOM     25  C   UNL     1       8.226   6.172  19.919  0.00  0.00    +0.000 C 
ATOM     26  C   UNL     1       7.835   6.660  18.537  0.00  0.00    +0.000 C 
ENDBRANCH  21  26
ENDBRANCH   1  22
BRANCH   3  27
ATOM     27  N   UNL     1       5.651   6.225  15.143  0.00  0.00    +0.000 NA
ATOM     28  H   UNL     1       5.040   6.769  15.768  0.00  0.00    +0.000 HD
ATOM     29  H   UNL     1       5.606   6.705  14.244  0.00  0.00    +0.000 HD
ENDBRANCH   3  27
TORSDOF 6
ENDMDL
MODEL 8
REMARK VINA RESULT:      -7.4      1.746      2.966
REMARK  Name = 
REMARK  8 active torsions:
REMARK  status: ('A' for Active; 'I' for Inactive)
REMARK    1  A    between atoms: C_1  and  C_2
REMARK    2  A    between atoms: C_2  and  N_3
REMARK    3  A    between atoms: C_4  and  C_6
REMARK    4  A    between atoms: C_8  and  N_9
REMARK    5  A    between atoms: C_12  and  C_14
REMARK    6  A    between atoms: C_14  and  C_15
REMARK    7  A    between atoms: C_18  and  O_19
REMARK    8  A    between atoms: O_19  and  C_20
REMARK                            x       y       z     vdW  Elec       q    Type
REMARK                         _______ _______ _______ _____ _____    ______ ____
ROOT
ATOM      1  C   UNL     1       5.614   5.456  16.348  0.00  0.00    +0.000 C 
ATOM      2  C   UNL     1       6.906   6.157  16.805  0.00  0.00    +0.000 C 
ATOM      3  C   UNL     1       7.186   5.575  18.189  0.00  0.00    +0.000 C 
ATOM      4  C   UNL     1       5.767   5.391  18.734  0.00  0.00    +0.000 C 
ATOM      5  N   UNL     1       4.933   5.049  17.595  0.00  0.00    +0.000 N 
ATOM      6  C   UNL     1       3.614   4.639  17.542  0.00  0.00    +0.000 C 
ATOM      7  O   UNL     1       3.122   4.524  16.408  0.00  0.00    +0.000 OA
ENDROOT
BRANCH   6   8
ATOM      8  C   UNL     1       2.669   4.459  18.812  0.00  0.00    +0.000 C 
ATOM      9  C   UNL     1       1.468   3.496  18.688  0.00  0.00    +0.000 C 
ATOM     10  C   UNL     1       1.137   3.021  20.095  0.00  0.00    +0.000 C 
ATOM     11  C   UNL     1       2.486   2.969  20.797  0.00  0.00    +0.000 C 
ATOM     12  C   UNL     1       3.489   3.675  19.877  0.00  0.00    +0.000 C 
BRANCH   8  13
ATOM     13  C   UNL     1       2.258   5.861  19.377  0.00  0.00    +0.000 A 
ATOM     14  C   UNL     1       1.750   6.045  20.673  0.00  0.00    +0.000 A 
ATOM     15  C   UNL     1       1.375   7.312  21.144  0.00  0.00    +0.000 A 
ATOM     16  C   UNL     1       1.487   8.440  20.337  0.00  0.00    +0.000 A 
ATOM     17  C   UNL     1       1.981   8.290  19.047  0.00  0.00    +0.000 A 
ATOM     18  C   UNL     1       2.374   7.023  18.584  0.00  0.00    +0.000 A 
BRANCH  16  19
ATOM     19  O   UNL     1       1.045   9.603  20.900  0.00  0.00    +0.000 OA
ATOM     20  C   UNL     1      -0.196   9.535  21.593  0.00  0.00    +0.000 C 
ENDBRANCH  16  19
ENDBRANCH   8  13
ENDBRANCH   6   8
BRANCH   1  22
ATOM     21  N   UNL     1       6.026   4.618  14.078  0.00  0.00    +0.000 N 
ATOM     22  C   UNL     1       5.959   4.275  15.414  0.00  0.00    +0.000 C 
ATOM     23  O   UNL     1       6.117   3.124  15.813  0.00  0.00    +0.000 OA
ATOM     24  H   UNL     1       5.357   5.346  13.812  0.00  0.00    +0.000 HD
BRANCH  21  26
ATOM     25  C   UNL     1       5.213   3.301  12.167  0.00  0.00    +0.000 C 
ATOM     26  C   UNL     1       6.369   3.609  13.098  0.00  0.00    +0.000 C 
ENDBRANCH  21  26
ENDBRANCH   1  22
BRANCH   3  27
ATOM     27  N   UNL     1       7.927   4.313  18.138  0.00  0.00    +0.000 NA
ATOM     28  H   UNL     1       7.641   3.764  17.315  0.00  0.00    +0.000 HD
ATOM     29  H   UNL     1       7.700   3.726  18.940  0.00  0.00    +0.000 HD
ENDBRANCH   3  27
TORSDOF 6
ENDMDL
MODEL 9
REMARK VINA RESULT:      -7.2      2.725      6.470
REMARK  Name = 
REMARK  8 active torsions:
REMARK  status: ('A' for Active; 'I' for Inactive)
REMARK    1  A    between atoms: C_1  and  C_2
REMARK    2  A    between atoms: C_2  and  N_3
REMARK    3  A    between atoms: C_4  and  C_6
REMARK    4  A    between atoms: C_8  and  N_9
REMARK    5  A    between atoms: C_12  and  C_14
REMARK    6  A    between atoms: C_14  and  C_15
REMARK    7  A    between atoms: C_18  and  O_19
REMARK    8  A    between atoms: O_19  and  C_20
REMARK                            x       y       z     vdW  Elec       q    Type
REMARK                         _______ _______ _______ _____ _____    ______ ____
ROOT
ATOM      1  C   UNL     1       3.761   3.541  19.952  0.00  0.00    +0.000 C 
ATOM      2  C   UNL     1       2.226   3.638  20.011  0.00  0.00    +0.000 C 
ATOM      3  C   UNL     1       1.808   3.958  18.577  0.00  0.00    +0.000 C 
ATOM      4  C   UNL     1       2.963   4.852  18.118  0.00  0.00    +0.000 C 
ATOM      5  N   UNL     1       4.155   4.356  18.783  0.00  0.00    +0.000 N 
ATOM      6  C   UNL     1       5.483   4.700  18.616  0.00  0.00    +0.000 C 
ATOM      7  O   UNL     1       6.285   4.186  19.412  0.00  0.00    +0.000 OA
ENDROOT
BRANCH   6   8
ATOM      8  C   UNL     1       6.012   5.802  17.594  0.00  0.00    +0.000 C 
ATOM      9  C   UNL     1       5.324   7.185  17.604  0.00  0.00    +0.000 C 
ATOM     10  C   UNL     1       6.337   8.185  17.069  0.00  0.00    +0.000 C 
ATOM     11  C   UNL     1       7.679   7.650  17.551  0.00  0.00    +0.000 C 
ATOM     12  C   UNL     1       7.421   6.237  18.089  0.00  0.00    +0.000 C 
BRANCH   8  13
ATOM     13  C   UNL     1       6.114   5.193  16.155  0.00  0.00    +0.000 A 
ATOM     14  C   UNL     1       5.021   4.616  15.488  0.00  0.00    +0.000 A 
ATOM     15  C   UNL     1       5.148   4.062  14.205  0.00  0.00    +0.000 A 
ATOM     16  C   UNL     1       6.372   4.059  13.544  0.00  0.00    +0.000 A 
ATOM     17  C   UNL     1       7.475   4.618  14.179  0.00  0.00    +0.000 A 
ATOM     18  C   UNL     1       7.341   5.188  15.456  0.00  0.00    +0.000 A 
BRANCH  16  19
ATOM     19  O   UNL     1       6.370   3.449  12.322  0.00  0.00    +0.000 OA
ATOM     20  C   UNL     1       5.095   3.110  11.790  0.00  0.00    +0.000 C 
ENDBRANCH  16  19
ENDBRANCH   8  13
ENDBRANCH   6   8
BRANCH   1  22
ATOM     21  N   UNL     1       5.078   1.666  20.833  0.00  0.00    +0.000 N 
ATOM     22  C   UNL     1       4.191   2.061  19.850  0.00  0.00    +0.000 C 
ATOM     23  O   UNL     1       3.816   1.309  18.954  0.00  0.00    +0.000 OA
ATOM     24  H   UNL     1       5.729   2.406  21.112  0.00  0.00    +0.000 HD
BRANCH  21  26
ATOM     25  C   UNL     1       6.244  -0.036  22.171  0.00  0.00    +0.000 C 
ATOM     26  C   UNL     1       5.538   0.295  20.870  0.00  0.00    +0.000 C 
ENDBRANCH  21  26
ENDBRANCH   1  22
BRANCH   3  27
ATOM     27  N   UNL     1       1.668   2.763  17.743  0.00  0.00    +0.000 NA
ATOM     28  H   UNL     1       2.594   2.356  17.545  0.00  0.00    +0.000 HD
ATOM     29  H   UNL     1       1.283   3.001  16.829  0.00  0.00    +0.000 HD
ENDBRANCH   3  27
TORSDOF 6
ENDMDL
