MODEL 1
REMARK VINA RESULT:      -6.6      0.000      0.000
REMARK  Name = 
REMARK  3 active torsions:
REMARK  status: ('A' for Active; 'I' for Inactive)
REMARK    1  A    between atoms: C_8  and  C_9
REMARK    2  A    between atoms: C_10  and  C_11
REMARK    3  A    between atoms: C_16  and  O_17
REMARK                            x       y       z     vdW  Elec       q    Type
REMARK                         _______ _______ _______ _____ _____    ______ ____
ROOT
ATOM      1  C   UNL     1       4.953   4.596  18.694  0.00  0.00    +0.000 C 
ATOM      2  C   UNL     1       3.645   4.892  18.701  0.00  0.00    +0.000 C 
ENDROOT
BRANCH   1  10
ATOM      3  O   UNL     1       7.920   6.770  16.329  0.00  0.00    +0.000 OA
ATOM      4  C   UNL     1       7.252   5.855  15.873  0.00  0.00    +0.000 C 
ATOM      5  N   UNL     1       7.341   5.396  14.589  0.00  0.00    +0.000 N 
ATOM      6  C   UNL     1       6.526   4.370  14.216  0.00  0.00    +0.000 C 
ATOM      7  S   UNL     1       6.512   3.711  12.698  0.00  0.00    +0.000 S 
ATOM      8  S   UNL     1       5.530   3.888  15.567  0.00  0.00    +0.000 S 
ATOM      9  C   UNL     1       6.223   5.075  16.615  0.00  0.00    +0.000 C 
ATOM     10  C   UNL     1       5.932   5.312  17.902  0.00  0.00    +0.000 C 
ATOM     11  H   UNL     1       7.992   5.815  13.944  0.00  0.00    +0.000 HD
ENDBRANCH   1  10
BRANCH   2  12
ATOM     12  C   UNL     1       2.706   4.131  19.534  0.00  0.00    +0.000 A 
ATOM     13  C   UNL     1       2.967   3.996  20.903  0.00  0.00    +0.000 A 
ATOM     14  C   UNL     1       2.077   3.305  21.729  0.00  0.00    +0.000 A 
ATOM     15  C   UNL     1       0.916   2.747  21.194  0.00  0.00    +0.000 A 
ATOM     16  C   UNL     1       0.645   2.873  19.831  0.00  0.00    +0.000 A 
ATOM     17  C   UNL     1       1.540   3.559  19.007  0.00  0.00    +0.000 A 
BRANCH  17  18
ATOM     18  O   UNL     1       1.278   3.678  17.669  0.00  0.00    +0.000 OA
ATOM     19  H   UNL     1       0.607   4.368  17.542  0.00  0.00    +0.000 HD
ENDBRANCH  17  18
ENDBRANCH   2  12
TORSDOF 3
ENDMDL
MODEL 2
REMARK VINA RESULT:      -6.5      1.436      1.715
REMARK  Name = 
REMARK  3 active torsions:
REMARK  status: ('A' for Active; 'I' for Inactive)
REMARK    1  A    between atoms: C_8  and  C_9
REMARK    2  A    between atoms: C_10  and  C_11
REMARK    3  A    between atoms: C_16  and  O_17
REMARK                            x       y       z     vdW  Elec       q    Type
REMARK                         _______ _______ _______ _____ _____    ______ ____
ROOT
ATOM      1  C   UNL     1       4.559   5.358  18.701  0.00  0.00    +0.000 C 
ATOM      2  C   UNL     1       4.531   4.137  19.256  0.00  0.00    +0.000 C 
ENDROOT
BRANCH   1  10
ATOM      3  O   UNL     1       7.946   6.893  16.399  0.00  0.00    +0.000 OA
ATOM      4  C   UNL     1       7.194   6.031  15.974  0.00  0.00    +0.000 C 
ATOM      5  N   UNL     1       7.307   5.439  14.746  0.00  0.00    +0.000 N 
ATOM      6  C   UNL     1       6.388   4.494  14.402  0.00  0.00    +0.000 C 
ATOM      7  S   UNL     1       6.389   3.696  12.952  0.00  0.00    +0.000 S 
ATOM      8  S   UNL     1       5.248   4.278  15.706  0.00  0.00    +0.000 S 
ATOM      9  C   UNL     1       6.021   5.465  16.697  0.00  0.00    +0.000 C 
ATOM     10  C   UNL     1       5.678   5.862  17.930  0.00  0.00    +0.000 C 
ATOM     11  H   UNL     1       8.051   5.707  14.121  0.00  0.00    +0.000 HD
ENDBRANCH   1  10
BRANCH   2  12
ATOM     12  C   UNL     1       3.361   3.687  20.019  0.00  0.00    +0.000 A 
ATOM     13  C   UNL     1       2.130   4.322  19.818  0.00  0.00    +0.000 A 
ATOM     14  C   UNL     1       0.991   3.895  20.505  0.00  0.00    +0.000 A 
ATOM     15  C   UNL     1       1.073   2.826  21.396  0.00  0.00    +0.000 A 
ATOM     16  C   UNL     1       2.294   2.183  21.607  0.00  0.00    +0.000 A 
ATOM     17  C   UNL     1       3.431   2.617  20.923  0.00  0.00    +0.000 A 
BRANCH  17  18
ATOM     18  O   UNL     1       4.631   1.991  21.133  0.00  0.00    +0.000 OA
ATOM     19  H   UNL     1       4.698   1.234  20.531  0.00  0.00    +0.000 HD
ENDBRANCH  17  18
ENDBRANCH   2  12
TORSDOF 3
ENDMDL
MODEL 3
REMARK VINA RESULT:      -6.5      3.232      7.244
REMARK  Name = 
REMARK  3 active torsions:
REMARK  status: ('A' for Active; 'I' for Inactive)
REMARK    1  A    between atoms: C_8  and  C_9
REMARK    2  A    between atoms: C_10  and  C_11
REMARK    3  A    between atoms: C_16  and  O_17
REMARK                            x       y       z     vdW  Elec       q    Type
REMARK                         _______ _______ _______ _____ _____    ______ ____
ROOT
ATOM      1  C   UNL     1       4.629   4.058  16.337  0.00  0.00    +0.000 C 
ATOM      2  C   UNL     1       5.878   3.751  15.958  0.00  0.00    +0.000 C 
ENDROOT
BRANCH   1  10
ATOM      3  O   UNL     1       3.112   3.369  20.381  0.00  0.00    +0.000 OA
ATOM      4  C   UNL     1       3.025   4.448  19.817  0.00  0.00    +0.000 C 
ATOM      5  N   UNL     1       2.455   5.564  20.363  0.00  0.00    +0.000 N 
ATOM      6  C   UNL     1       2.423   6.700  19.612  0.00  0.00    +0.000 C 
ATOM      7  S   UNL     1       1.762   8.127  20.131  0.00  0.00    +0.000 S 
ATOM      8  S   UNL     1       3.169   6.404  18.062  0.00  0.00    +0.000 S 
ATOM      9  C   UNL     1       3.513   4.754  18.444  0.00  0.00    +0.000 C 
ATOM     10  C   UNL     1       4.121   3.839  17.676  0.00  0.00    +0.000 C 
ATOM     11  H   UNL     1       2.070   5.533  21.294  0.00  0.00    +0.000 HD
ENDBRANCH   1  10
BRANCH   2  12
ATOM     12  C   UNL     1       6.331   4.008  14.586  0.00  0.00    +0.000 A 
ATOM     13  C   UNL     1       5.830   3.217  13.544  0.00  0.00    +0.000 A 
ATOM     14  C   UNL     1       6.217   3.457  12.223  0.00  0.00    +0.000 A 
ATOM     15  C   UNL     1       7.103   4.493  11.932  0.00  0.00    +0.000 A 
ATOM     16  C   UNL     1       7.611   5.288  12.960  0.00  0.00    +0.000 A 
ATOM     17  C   UNL     1       7.227   5.042  14.280  0.00  0.00    +0.000 A 
BRANCH  17  18
ATOM     18  O   UNL     1       7.728   5.818  15.291  0.00  0.00    +0.000 OA
ATOM     19  H   UNL     1       8.267   6.526  14.903  0.00  0.00    +0.000 HD
ENDBRANCH  17  18
ENDBRANCH   2  12
TORSDOF 3
ENDMDL
MODEL 4
REMARK VINA RESULT:      -6.5      6.246      7.786
REMARK  Name = 
REMARK  3 active torsions:
REMARK  status: ('A' for Active; 'I' for Inactive)
REMARK    1  A    between atoms: C_8  and  C_9
REMARK    2  A    between atoms: C_10  and  C_11
REMARK    3  A    between atoms: C_16  and  O_17
REMARK                            x       y       z     vdW  Elec       q    Type
REMARK                         _______ _______ _______ _____ _____    ______ ____
ROOT
ATOM      1  C   UNL     1       1.492   7.149  20.456  0.00  0.00    +0.000 C 
ATOM      2  C   UNL     1       1.622   5.820  20.588  0.00  0.00    +0.000 C 
ENDROOT
BRANCH   1  10
ATOM      3  O   UNL     1       0.354   9.788  23.752  0.00  0.00    +0.000 OA
ATOM      4  C   UNL     1       0.087  10.033  22.586  0.00  0.00    +0.000 C 
ATOM      5  N   UNL     1      -0.588  11.144  22.162  0.00  0.00    +0.000 N 
ATOM      6  C   UNL     1      -0.820  11.283  20.827  0.00  0.00    +0.000 C 
ATOM      7  S   UNL     1      -1.628  12.566  20.163  0.00  0.00    +0.000 S 
ATOM      8  S   UNL     1      -0.147   9.921  19.967  0.00  0.00    +0.000 S 
ATOM      9  C   UNL     1       0.437   9.181  21.416  0.00  0.00    +0.000 C 
ATOM     10  C   UNL     1       1.108   8.028  21.541  0.00  0.00    +0.000 C 
ATOM     11  H   UNL     1      -0.902  11.831  22.829  0.00  0.00    +0.000 HD
ENDBRANCH   1  10
BRANCH   2  12
ATOM     12  C   UNL     1       2.022   4.987  19.447  0.00  0.00    +0.000 A 
ATOM     13  C   UNL     1       3.013   5.456  18.576  0.00  0.00    +0.000 A 
ATOM     14  C   UNL     1       3.439   4.673  17.501  0.00  0.00    +0.000 A 
ATOM     15  C   UNL     1       2.880   3.413  17.289  0.00  0.00    +0.000 A 
ATOM     16  C   UNL     1       1.891   2.934  18.149  0.00  0.00    +0.000 A 
ATOM     17  C   UNL     1       1.464   3.722  19.220  0.00  0.00    +0.000 A 
BRANCH  17  18
ATOM     18  O   UNL     1       0.489   3.255  20.061  0.00  0.00    +0.000 OA
ATOM     19  H   UNL     1       0.154   3.995  20.592  0.00  0.00    +0.000 HD
ENDBRANCH  17  18
ENDBRANCH   2  12
TORSDOF 3
ENDMDL
MODEL 5
REMARK VINA RESULT:      -6.4      5.786      7.151
REMARK  Name = 
REMARK  3 active torsions:
REMARK  status: ('A' for Active; 'I' for Inactive)
REMARK    1  A    between atoms: C_8  and  C_9
REMARK    2  A    between atoms: C_10  and  C_11
REMARK    3  A    between atoms: C_16  and  O_17
REMARK                            x       y       z     vdW  Elec       q    Type
REMARK                         _______ _______ _______ _____ _____    ______ ____
ROOT
ATOM      1  C   UNL     1       1.496   6.762  20.261  0.00  0.00    +0.000 C 
ATOM      2  C   UNL     1       1.674   5.485  20.632  0.00  0.00    +0.000 C 
ENDROOT
BRANCH   1  10
ATOM      3  O   UNL     1       0.741   9.996  23.106  0.00  0.00    +0.000 OA
ATOM      4  C   UNL     1       0.710  10.159  21.897  0.00  0.00    +0.000 C 
ATOM      5  N   UNL     1       0.442  11.349  21.281  0.00  0.00    +0.000 N 
ATOM      6  C   UNL     1       0.435  11.380  19.919  0.00  0.00    +0.000 C 
ATOM      7  S   UNL     1       0.122  12.742  19.032  0.00  0.00    +0.000 S 
ATOM      8  S   UNL     1       0.797   9.792  19.292  0.00  0.00    +0.000 S 
ATOM      9  C   UNL     1       0.951   9.106  20.871  0.00  0.00    +0.000 C 
ATOM     10  C   UNL     1       1.242   7.839  21.196  0.00  0.00    +0.000 C 
ATOM     11  H   UNL     1       0.253  12.173  21.830  0.00  0.00    +0.000 HD
ENDBRANCH   1  10
BRANCH   2  12
ATOM     12  C   UNL     1       1.936   4.442  19.632  0.00  0.00    +0.000 A 
ATOM     13  C   UNL     1       2.709   4.756  18.508  0.00  0.00    +0.000 A 
ATOM     14  C   UNL     1       3.003   3.778  17.555  0.00  0.00    +0.000 A 
ATOM     15  C   UNL     1       2.531   2.476  17.721  0.00  0.00    +0.000 A 
ATOM     16  C   UNL     1       1.758   2.150  18.837  0.00  0.00    +0.000 A 
ATOM     17  C   UNL     1       1.461   3.132  19.784  0.00  0.00    +0.000 A 
BRANCH  17  18
ATOM     18  O   UNL     1       0.699   2.815  20.876  0.00  0.00    +0.000 OA
ATOM     19  H   UNL     1      -0.167   2.500  20.573  0.00  0.00    +0.000 HD
ENDBRANCH  17  18
ENDBRANCH   2  12
TORSDOF 3
ENDMDL
MODEL 6
REMARK VINA RESULT:      -6.3      1.170      1.600
REMARK  Name = 
REMARK  3 active torsions:
REMARK  status: ('A' for Active; 'I' for Inactive)
REMARK    1  A    between atoms: C_8  and  C_9
REMARK    2  A    between atoms: C_10  and  C_11
REMARK    3  A    between atoms: C_16  and  O_17
REMARK                            x       y       z     vdW  Elec       q    Type
REMARK                         _______ _______ _______ _____ _____    ______ ____
ROOT
ATOM      1  C   UNL     1       4.687   4.745  18.364  0.00  0.00    +0.000 C 
ATOM      2  C   UNL     1       3.390   4.984  18.122  0.00  0.00    +0.000 C 
ENDROOT
BRANCH   1  10
ATOM      3  O   UNL     1       7.959   6.845  16.361  0.00  0.00    +0.000 OA
ATOM      4  C   UNL     1       7.316   5.958  15.823  0.00  0.00    +0.000 C 
ATOM      5  N   UNL     1       7.528   5.508  14.550  0.00  0.00    +0.000 N 
ATOM      6  C   UNL     1       6.727   4.513  14.079  0.00  0.00    +0.000 C 
ATOM      7  S   UNL     1       6.856   3.869  12.559  0.00  0.00    +0.000 S 
ATOM      8  S   UNL     1       5.577   4.050  15.308  0.00  0.00    +0.000 S 
ATOM      9  C   UNL     1       6.189   5.204  16.440  0.00  0.00    +0.000 C 
ATOM     10  C   UNL     1       5.768   5.437  17.691  0.00  0.00    +0.000 C 
ATOM     11  H   UNL     1       8.258   5.913  13.985  0.00  0.00    +0.000 HD
ENDBRANCH   1  10
BRANCH   2  12
ATOM     12  C   UNL     1       2.344   4.252  18.846  0.00  0.00    +0.000 A 
ATOM     13  C   UNL     1       1.670   3.209  18.199  0.00  0.00    +0.000 A 
ATOM     14  C   UNL     1       0.692   2.472  18.872  0.00  0.00    +0.000 A 
ATOM     15  C   UNL     1       0.384   2.769  20.199  0.00  0.00    +0.000 A 
ATOM     16  C   UNL     1       1.047   3.807  20.856  0.00  0.00    +0.000 A 
ATOM     17  C   UNL     1       2.019   4.545  20.178  0.00  0.00    +0.000 A 
BRANCH  17  18
ATOM     18  O   UNL     1       2.667   5.567  20.819  0.00  0.00    +0.000 OA
ATOM     19  H   UNL     1       2.664   6.348  20.245  0.00  0.00    +0.000 HD
ENDBRANCH  17  18
ENDBRANCH   2  12
TORSDOF 3
ENDMDL
MODEL 7
REMARK VINA RESULT:      -6.3      6.149      7.508
REMARK  Name = 
REMARK  3 active torsions:
REMARK  status: ('A' for Active; 'I' for Inactive)
REMARK    1  A    between atoms: C_8  and  C_9
REMARK    2  A    between atoms: C_10  and  C_11
REMARK    3  A    between atoms: C_16  and  O_17
REMARK                            x       y       z     vdW  Elec       q    Type
REMARK                         _______ _______ _______ _____ _____    ______ ____
ROOT
ATOM      1  C   UNL     1       1.918   8.243  17.777  0.00  0.00    +0.000 C 
ATOM      2  C   UNL     1       3.012   7.563  18.151  0.00  0.00    +0.000 C 
ENDROOT
BRANCH   1  10
ATOM      3  O   UNL     1       1.327  12.504  18.563  0.00  0.00    +0.000 OA
ATOM      4  C   UNL     1       0.960  11.632  19.334  0.00  0.00    +0.000 C 
ATOM      5  N   UNL     1       0.325  11.866  20.522  0.00  0.00    +0.000 N 
ATOM      6  C   UNL     1      -0.022  10.793  21.286  0.00  0.00    +0.000 C 
ATOM      7  S   UNL     1      -0.787  10.913  22.749  0.00  0.00    +0.000 S 
ATOM      8  S   UNL     1       0.464   9.318  20.487  0.00  0.00    +0.000 S 
ATOM      9  C   UNL     1       1.130  10.166  19.135  0.00  0.00    +0.000 C 
ATOM     10  C   UNL     1       1.719   9.652  18.047  0.00  0.00    +0.000 C 
ATOM     11  H   UNL     1       0.129  12.810  20.816  0.00  0.00    +0.000 HD
ENDBRANCH   1  10
BRANCH   2  12
ATOM     12  C   UNL     1       3.152   6.136  17.837  0.00  0.00    +0.000 A 
ATOM     13  C   UNL     1       2.080   5.273  18.094  0.00  0.00    +0.000 A 
ATOM     14  C   UNL     1       2.170   3.916  17.776  0.00  0.00    +0.000 A 
ATOM     15  C   UNL     1       3.333   3.410  17.195  0.00  0.00    +0.000 A 
ATOM     16  C   UNL     1       4.410   4.258  16.935  0.00  0.00    +0.000 A 
ATOM     17  C   UNL     1       4.318   5.614  17.259  0.00  0.00    +0.000 A 
BRANCH  17  18
ATOM     18  O   UNL     1       5.376   6.446  17.009  0.00  0.00    +0.000 OA
ATOM     19  H   UNL     1       6.193   5.922  17.012  0.00  0.00    +0.000 HD
ENDBRANCH  17  18
ENDBRANCH   2  12
TORSDOF 3
ENDMDL
MODEL 8
REMARK VINA RESULT:      -6.2      3.100      7.051
REMARK  Name = 
REMARK  3 active torsions:
REMARK  status: ('A' for Active; 'I' for Inactive)
REMARK    1  A    between atoms: C_8  and  C_9
REMARK    2  A    between atoms: C_10  and  C_11
REMARK    3  A    between atoms: C_16  and  O_17
REMARK                            x       y       z     vdW  Elec       q    Type
REMARK                         _______ _______ _______ _____ _____    ______ ____
ROOT
ATOM      1  C   UNL     1       4.810   5.745  16.025  0.00  0.00    +0.000 C 
ATOM      2  C   UNL     1       5.348   4.563  15.690  0.00  0.00    +0.000 C 
ENDROOT
BRANCH   1  10
ATOM      3  O   UNL     1       2.923   6.561  19.885  0.00  0.00    +0.000 OA
ATOM      4  C   UNL     1       2.696   5.551  19.238  0.00  0.00    +0.000 C 
ATOM      5  N   UNL     1       1.838   4.559  19.624  0.00  0.00    +0.000 N 
ATOM      6  C   UNL     1       1.688   3.484  18.802  0.00  0.00    +0.000 C 
ATOM      7  S   UNL     1       0.693   2.204  19.135  0.00  0.00    +0.000 S 
ATOM      8  S   UNL     1       2.693   3.679  17.388  0.00  0.00    +0.000 S 
ATOM      9  C   UNL     1       3.303   5.205  17.923  0.00  0.00    +0.000 C 
ATOM     10  C   UNL     1       4.182   6.005  17.304  0.00  0.00    +0.000 C 
ATOM     11  H   UNL     1       1.339   4.633  20.497  0.00  0.00    +0.000 HD
ENDBRANCH   1  10
BRANCH   2  12
ATOM     12  C   UNL     1       5.978   4.369  14.378  0.00  0.00    +0.000 A 
ATOM     13  C   UNL     1       5.329   3.580  13.421  0.00  0.00    +0.000 A 
ATOM     14  C   UNL     1       5.886   3.403  12.152  0.00  0.00    +0.000 A 
ATOM     15  C   UNL     1       7.095   4.018  11.829  0.00  0.00    +0.000 A 
ATOM     16  C   UNL     1       7.754   4.806  12.773  0.00  0.00    +0.000 A 
ATOM     17  C   UNL     1       7.196   4.976  14.043  0.00  0.00    +0.000 A 
BRANCH  17  18
ATOM     18  O   UNL     1       7.844   5.745  14.972  0.00  0.00    +0.000 OA
ATOM     19  H   UNL     1       7.187   6.123  15.577  0.00  0.00    +0.000 HD
ENDBRANCH  17  18
ENDBRANCH   2  12
TORSDOF 3
ENDMDL
MODEL 9
REMARK VINA RESULT:      -6.2      6.081      7.849
REMARK  Name = 
REMARK  3 active torsions:
REMARK  status: ('A' for Active; 'I' for Inactive)
REMARK    1  A    between atoms: C_8  and  C_9
REMARK    2  A    between atoms: C_10  and  C_11
REMARK    3  A    between atoms: C_16  and  O_17
REMARK                            x       y       z     vdW  Elec       q    Type
REMARK                         _______ _______ _______ _____ _____    ______ ____
ROOT
ATOM      1  C   UNL     1       2.347   8.608  17.873  0.00  0.00    +0.000 C 
ATOM      2  C   UNL     1       2.333   7.326  18.267  0.00  0.00    +0.000 C 
ENDROOT
BRANCH   1  10
ATOM      3  O   UNL     1      -1.140  11.240  18.057  0.00  0.00    +0.000 OA
ATOM      4  C   UNL     1      -0.626  10.754  19.052  0.00  0.00    +0.000 C 
ATOM      5  N   UNL     1      -1.062  10.960  20.331  0.00  0.00    +0.000 N 
ATOM      6  C   UNL     1      -0.384  10.356  21.345  0.00  0.00    +0.000 C 
ATOM      7  S   UNL     1      -0.785  10.516  22.943  0.00  0.00    +0.000 S 
ATOM      8  S   UNL     1       0.939   9.420  20.695  0.00  0.00    +0.000 S 
ATOM      9  C   UNL     1       0.562   9.856  19.065  0.00  0.00    +0.000 C 
ATOM     10  C   UNL     1       1.193   9.481  17.944  0.00  0.00    +0.000 C 
ATOM     11  H   UNL     1      -1.862  11.549  20.504  0.00  0.00    +0.000 HD
ENDBRANCH   1  10
BRANCH   2  12
ATOM     12  C   UNL     1       3.542   6.498  18.174  0.00  0.00    +0.000 A 
ATOM     13  C   UNL     1       4.336   6.579  17.024  0.00  0.00    +0.000 A 
ATOM     14  C   UNL     1       5.510   5.829  16.920  0.00  0.00    +0.000 A 
ATOM     15  C   UNL     1       5.902   4.995  17.967  0.00  0.00    +0.000 A 
ATOM     16  C   UNL     1       5.119   4.905  19.119  0.00  0.00    +0.000 A 
ATOM     17  C   UNL     1       3.943   5.652  19.217  0.00  0.00    +0.000 A 
BRANCH  17  18
ATOM     18  O   UNL     1       3.172   5.560  20.344  0.00  0.00    +0.000 OA
ATOM     19  H   UNL     1       2.513   4.859  20.216  0.00  0.00    +0.000 HD
ENDBRANCH  17  18
ENDBRANCH   2  12
TORSDOF 3
ENDMDL
