MODEL 1
REMARK VINA RESULT:      -8.7      0.000      0.000
REMARK  Name = 
REMARK  6 active torsions:
REMARK  status: ('A' for Active; 'I' for Inactive)
REMARK    1  A    between atoms: C_1  and  S_2
REMARK    2  A    between atoms: S_2  and  C_5
REMARK    3  A    between atoms: C_8  and  C_9
REMARK    4  A    between atoms: C_9  and  C_10
REMARK    5  A    between atoms: C_9  and  C_16
REMARK    6  A    between atoms: C_10  and  C_11
REMARK                            x       y       z     vdW  Elec       q    Type
REMARK                         _______ _______ _______ _____ _____    ______ ____
ROOT
ATOM      1  C   UNL     1       2.139   5.873  19.743  0.00  0.00    +0.000 C 
ENDROOT
BRANCH   1   2
ATOM      2  C   UNL     1       1.716   7.326  20.016  0.00  0.00    +0.000 C 
ATOM      3  O   UNL     1       2.176   8.266  19.368  0.00  0.00    +0.000 OA
ATOM      4  N   UNL     1       0.865   7.526  21.080  0.00  0.00    +0.000 N 
ATOM      5  C   UNL     1       0.298   8.774  21.365  0.00  0.00    +0.000 A 
ATOM      6  C   UNL     1      -0.006   9.716  20.378  0.00  0.00    +0.000 A 
ATOM      7  N   UNL     1      -0.488  10.954  20.656  0.00  0.00    +0.000 NA
ATOM      8  C   UNL     1      -0.637  11.219  21.968  0.00  0.00    +0.000 A 
ATOM      9  C   UNL     1      -0.377  10.272  22.947  0.00  0.00    +0.000 A 
ATOM     10  N   UNL     1       0.060   9.020  22.669  0.00  0.00    +0.000 NA
ATOM     11  H   UNL     1       0.855   6.872  21.851  0.00  0.00    +0.000 HD
ENDBRANCH   1   2
BRANCH   1  15
ATOM     12  C   UNL     1       5.777   5.308  17.390  0.00  0.00    +0.000 A 
ATOM     13  C   UNL     1       4.513   5.297  16.784  0.00  0.00    +0.000 A 
ATOM     14  C   UNL     1       3.357   5.489  17.549  0.00  0.00    +0.000 A 
ATOM     15  C   UNL     1       3.429   5.656  18.941  0.00  0.00    +0.000 A 
ATOM     16  C   UNL     1       4.705   5.624  19.530  0.00  0.00    +0.000 A 
ATOM     17  C   UNL     1       5.876   5.490  18.764  0.00  0.00    +0.000 A 
ATOM     18 CL   UNL     1       7.358   5.602  19.638  0.00  0.00    +0.000 Cl
BRANCH  12  20
ATOM     19  C   UNL     1       6.621   4.509  14.799  0.00  0.00    +0.000 C 
ATOM     20  S   UNL     1       7.212   5.123  16.359  0.00  0.00    +0.000 S 
ATOM     21  O   UNL     1       8.061   4.122  16.973  0.00  0.00    +0.000 OA
ATOM     22  O   UNL     1       7.724   6.453  16.105  0.00  0.00    +0.000 OA
ENDBRANCH  12  20
ENDBRANCH   1  15
BRANCH   1  23
ATOM     23  C   UNL     1       2.075   5.053  21.067  0.00  0.00    +0.000 C 
BRANCH  23  24
ATOM     24  C   UNL     1       1.320   3.698  21.033  0.00  0.00    +0.000 C 
ATOM     25  C   UNL     1       2.100   2.495  21.517  0.00  0.00    +0.000 C 
ATOM     26  C   UNL     1       2.960   2.152  20.321  0.00  0.00    +0.000 C 
ATOM     27  O   UNL     1       2.212   2.536  19.160  0.00  0.00    +0.000 OA
ATOM     28  C   UNL     1       1.056   3.273  19.590  0.00  0.00    +0.000 C 
ENDBRANCH  23  24
ENDBRANCH   1  23
TORSDOF 5
ENDMDL
MODEL 2
REMARK VINA RESULT:      -8.6      4.040      7.355
REMARK  Name = 
REMARK  6 active torsions:
REMARK  status: ('A' for Active; 'I' for Inactive)
REMARK    1  A    between atoms: C_1  and  S_2
REMARK    2  A    between atoms: S_2  and  C_5
REMARK    3  A    between atoms: C_8  and  C_9
REMARK    4  A    between atoms: C_9  and  C_10
REMARK    5  A    between atoms: C_9  and  C_16
REMARK    6  A    between atoms: C_10  and  C_11
REMARK                            x       y       z     vdW  Elec       q    Type
REMARK                         _______ _______ _______ _____ _____    ______ ____
ROOT
ATOM      1  C   UNL     1       2.924   6.059  18.677  0.00  0.00    +0.000 C 
ENDROOT
BRANCH   1   2
ATOM      2  C   UNL     1       4.058   6.133  17.641  0.00  0.00    +0.000 C 
ATOM      3  O   UNL     1       4.693   7.170  17.451  0.00  0.00    +0.000 OA
ATOM      4  N   UNL     1       4.264   5.005  16.879  0.00  0.00    +0.000 N 
ATOM      5  C   UNL     1       5.340   4.884  15.991  0.00  0.00    +0.000 A 
ATOM      6  C   UNL     1       6.576   5.502  16.202  0.00  0.00    +0.000 A 
ATOM      7  N   UNL     1       7.596   5.448  15.310  0.00  0.00    +0.000 NA
ATOM      8  C   UNL     1       7.323   4.762  14.182  0.00  0.00    +0.000 A 
ATOM      9  C   UNL     1       6.114   4.113  13.988  0.00  0.00    +0.000 A 
ATOM     10  N   UNL     1       5.110   4.127  14.899  0.00  0.00    +0.000 NA
ATOM     11  H   UNL     1       3.503   4.361  16.710  0.00  0.00    +0.000 HD
ENDBRANCH   1   2
BRANCH   1  15
ATOM     12  C   UNL     1       1.015   9.828  19.791  0.00  0.00    +0.000 A 
ATOM     13  C   UNL     1       1.447   9.595  18.478  0.00  0.00    +0.000 A 
ATOM     14  C   UNL     1       2.049   8.379  18.134  0.00  0.00    +0.000 A 
ATOM     15  C   UNL     1       2.270   7.382  19.097  0.00  0.00    +0.000 A 
ATOM     16  C   UNL     1       1.862   7.655  20.415  0.00  0.00    +0.000 A 
ATOM     17  C   UNL     1       1.206   8.849  20.758  0.00  0.00    +0.000 A 
ATOM     18 CL   UNL     1       0.662   8.960  22.391  0.00  0.00    +0.000 Cl
BRANCH  12  20
ATOM     19  C   UNL     1       0.300  12.337  18.669  0.00  0.00    +0.000 C 
ATOM     20  S   UNL     1       0.202  11.366  20.154  0.00  0.00    +0.000 S 
ATOM     21  O   UNL     1       0.958  12.020  21.202  0.00  0.00    +0.000 OA
ATOM     22  O   UNL     1      -1.201  11.065  20.351  0.00  0.00    +0.000 OA
ENDBRANCH  12  20
ENDBRANCH   1  15
BRANCH   1  23
ATOM     23  C   UNL     1       1.904   4.958  18.257  0.00  0.00    +0.000 C 
BRANCH  23  24
ATOM     24  C   UNL     1       1.325   4.054  19.377  0.00  0.00    +0.000 C 
ATOM     25  C   UNL     1       2.252   3.765  20.538  0.00  0.00    +0.000 C 
ATOM     26  C   UNL     1       3.142   2.673  19.990  0.00  0.00    +0.000 C 
ATOM     27  O   UNL     1       2.348   1.932  19.055  0.00  0.00    +0.000 OA
ATOM     28  C   UNL     1       1.110   2.635  18.857  0.00  0.00    +0.000 C 
ENDBRANCH  23  24
ENDBRANCH   1  23
TORSDOF 5
ENDMDL
MODEL 3
REMARK VINA RESULT:      -8.5      4.001      7.462
REMARK  Name = 
REMARK  6 active torsions:
REMARK  status: ('A' for Active; 'I' for Inactive)
REMARK    1  A    between atoms: C_1  and  S_2
REMARK    2  A    between atoms: S_2  and  C_5
REMARK    3  A    between atoms: C_8  and  C_9
REMARK    4  A    between atoms: C_9  and  C_10
REMARK    5  A    between atoms: C_9  and  C_16
REMARK    6  A    between atoms: C_10  and  C_11
REMARK                            x       y       z     vdW  Elec       q    Type
REMARK                         _______ _______ _______ _____ _____    ______ ____
ROOT
ATOM      1  C   UNL     1       3.006   5.468  18.480  0.00  0.00    +0.000 C 
ENDROOT
BRANCH   1   2
ATOM      2  C   UNL     1       4.107   5.725  17.437  0.00  0.00    +0.000 C 
ATOM      3  O   UNL     1       4.619   6.835  17.299  0.00  0.00    +0.000 OA
ATOM      4  N   UNL     1       4.423   4.671  16.610  0.00  0.00    +0.000 N 
ATOM      5  C   UNL     1       5.489   4.720  15.704  0.00  0.00    +0.000 A 
ATOM      6  C   UNL     1       6.654   5.459  15.937  0.00  0.00    +0.000 A 
ATOM      7  N   UNL     1       7.657   5.568  15.031  0.00  0.00    +0.000 NA
ATOM      8  C   UNL     1       7.442   4.919  13.870  0.00  0.00    +0.000 A 
ATOM      9  C   UNL     1       6.309   4.151  13.652  0.00  0.00    +0.000 A 
ATOM     10  N   UNL     1       5.326   4.004  14.574  0.00  0.00    +0.000 NA
ATOM     11  H   UNL     1       3.734   3.957  16.413  0.00  0.00    +0.000 HD
ENDBRANCH   1   2
BRANCH   1  15
ATOM     12  C   UNL     1       1.133   8.945  20.351  0.00  0.00    +0.000 A 
ATOM     13  C   UNL     1       1.268   7.734  21.044  0.00  0.00    +0.000 A 
ATOM     14  C   UNL     1       1.878   6.631  20.435  0.00  0.00    +0.000 A 
ATOM     15  C   UNL     1       2.334   6.696  19.108  0.00  0.00    +0.000 A 
ATOM     16  C   UNL     1       2.152   7.910  18.422  0.00  0.00    +0.000 A 
ATOM     17  C   UNL     1       1.594   9.040  19.043  0.00  0.00    +0.000 A 
ATOM     18 CL   UNL     1       1.567  10.478  18.093  0.00  0.00    +0.000 Cl
BRANCH  12  20
ATOM     19  C   UNL     1      -0.004   9.748  22.826  0.00  0.00    +0.000 C 
ATOM     20  S   UNL     1       0.408  10.329  21.197  0.00  0.00    +0.000 S 
ATOM     21  O   UNL     1      -0.810  10.677  20.494  0.00  0.00    +0.000 OA
ATOM     22  O   UNL     1       1.455  11.314  21.370  0.00  0.00    +0.000 OA
ENDBRANCH  12  20
ENDBRANCH   1  15
BRANCH   1  23
ATOM     23  C   UNL     1       2.000   4.414  17.928  0.00  0.00    +0.000 C 
BRANCH  23  24
ATOM     24  C   UNL     1       2.119   2.963  18.466  0.00  0.00    +0.000 C 
ATOM     25  C   UNL     1       0.893   2.415  19.165  0.00  0.00    +0.000 C 
ATOM     26  C   UNL     1       0.991   3.032  20.542  0.00  0.00    +0.000 C 
ATOM     27  O   UNL     1       2.388   3.191  20.817  0.00  0.00    +0.000 OA
ATOM     28  C   UNL     1       3.122   2.902  19.616  0.00  0.00    +0.000 C 
ENDBRANCH  23  24
ENDBRANCH   1  23
TORSDOF 5
ENDMDL
MODEL 4
REMARK VINA RESULT:      -8.5      3.947      7.401
REMARK  Name = 
REMARK  6 active torsions:
REMARK  status: ('A' for Active; 'I' for Inactive)
REMARK    1  A    between atoms: C_1  and  S_2
REMARK    2  A    between atoms: S_2  and  C_5
REMARK    3  A    between atoms: C_8  and  C_9
REMARK    4  A    between atoms: C_9  and  C_10
REMARK    5  A    between atoms: C_9  and  C_16
REMARK    6  A    between atoms: C_10  and  C_11
REMARK                            x       y       z     vdW  Elec       q    Type
REMARK                         _______ _______ _______ _____ _____    ______ ____
ROOT
ATOM      1  C   UNL     1       2.871   5.789  18.896  0.00  0.00    +0.000 C 
ENDROOT
BRANCH   1   2
ATOM      2  C   UNL     1       3.966   5.979  17.833  0.00  0.00    +0.000 C 
ATOM      3  O   UNL     1       4.481   7.078  17.626  0.00  0.00    +0.000 OA
ATOM      4  N   UNL     1       4.275   4.877  17.069  0.00  0.00    +0.000 N 
ATOM      5  C   UNL     1       5.337   4.868  16.156  0.00  0.00    +0.000 A 
ATOM      6  C   UNL     1       6.504   5.617  16.338  0.00  0.00    +0.000 A 
ATOM      7  N   UNL     1       7.503   5.668  15.421  0.00  0.00    +0.000 NA
ATOM      8  C   UNL     1       7.280   4.952  14.303  0.00  0.00    +0.000 A 
ATOM      9  C   UNL     1       6.144   4.175  14.138  0.00  0.00    +0.000 A 
ATOM     10  N   UNL     1       5.166   4.086  15.072  0.00  0.00    +0.000 NA
ATOM     11  H   UNL     1       3.584   4.154  16.919  0.00  0.00    +0.000 HD
ENDBRANCH   1   2
BRANCH   1  15
ATOM     12  C   UNL     1       0.904   9.366  20.453  0.00  0.00    +0.000 A 
ATOM     13  C   UNL     1       1.001   8.199  21.223  0.00  0.00    +0.000 A 
ATOM     14  C   UNL     1       1.641   7.063  20.714  0.00  0.00    +0.000 A 
ATOM     15  C   UNL     1       2.167   7.050  19.413  0.00  0.00    +0.000 A 
ATOM     16  C   UNL     1       2.024   8.221  18.647  0.00  0.00    +0.000 A 
ATOM     17  C   UNL     1       1.433   9.384  19.169  0.00  0.00    +0.000 A 
ATOM     18 CL   UNL     1       1.459  10.763  18.134  0.00  0.00    +0.000 Cl
BRANCH  12  20
ATOM     19  C   UNL     1      -0.434  10.290  22.781  0.00  0.00    +0.000 C 
ATOM     20  S   UNL     1       0.135  10.796  21.175  0.00  0.00    +0.000 S 
ATOM     21  O   UNL     1      -1.007  11.137  20.351  0.00  0.00    +0.000 OA
ATOM     22  O   UNL     1       1.183  11.769  21.404  0.00  0.00    +0.000 OA
ENDBRANCH  12  20
ENDBRANCH   1  15
BRANCH   1  23
ATOM     23  C   UNL     1       1.893   4.664  18.441  0.00  0.00    +0.000 C 
BRANCH  23  24
ATOM     24  C   UNL     1       1.559   3.549  19.466  0.00  0.00    +0.000 C 
ATOM     25  C   UNL     1       2.625   3.263  20.502  0.00  0.00    +0.000 C 
ATOM     26  C   UNL     1       3.605   2.398  19.741  0.00  0.00    +0.000 C 
ATOM     27  O   UNL     1       2.838   1.667  18.776  0.00  0.00    +0.000 OA
ATOM     28  C   UNL     1       1.500   2.190  18.773  0.00  0.00    +0.000 C 
ENDBRANCH  23  24
ENDBRANCH   1  23
TORSDOF 5
ENDMDL
MODEL 5
REMARK VINA RESULT:      -8.4      4.087      7.433
REMARK  Name = 
REMARK  6 active torsions:
REMARK  status: ('A' for Active; 'I' for Inactive)
REMARK    1  A    between atoms: C_1  and  S_2
REMARK    2  A    between atoms: S_2  and  C_5
REMARK    3  A    between atoms: C_8  and  C_9
REMARK    4  A    between atoms: C_9  and  C_10
REMARK    5  A    between atoms: C_9  and  C_16
REMARK    6  A    between atoms: C_10  and  C_11
REMARK                            x       y       z     vdW  Elec       q    Type
REMARK                         _______ _______ _______ _____ _____    ______ ____
ROOT
ATOM      1  C   UNL     1       3.065   5.901  18.393  0.00  0.00    +0.000 C 
ENDROOT
BRANCH   1   2
ATOM      2  C   UNL     1       4.174   6.010  17.332  0.00  0.00    +0.000 C 
ATOM      3  O   UNL     1       4.768   7.068  17.125  0.00  0.00    +0.000 OA
ATOM      4  N   UNL     1       4.403   4.888  16.569  0.00  0.00    +0.000 N 
ATOM      5  C   UNL     1       5.463   4.801  15.658  0.00  0.00    +0.000 A 
ATOM      6  C   UNL     1       6.681   5.463  15.841  0.00  0.00    +0.000 A 
ATOM      7  N   UNL     1       7.682   5.441  14.926  0.00  0.00    +0.000 NA
ATOM      8  C   UNL     1       7.409   4.742  13.807  0.00  0.00    +0.000 A 
ATOM      9  C   UNL     1       6.220   4.050  13.641  0.00  0.00    +0.000 A 
ATOM     10  N   UNL     1       5.236   4.033  14.574  0.00  0.00    +0.000 NA
ATOM     11  H   UNL     1       3.661   4.217  16.418  0.00  0.00    +0.000 HD
ENDBRANCH   1   2
BRANCH   1  15
ATOM     12  C   UNL     1       1.157   9.625  19.649  0.00  0.00    +0.000 A 
ATOM     13  C   UNL     1       1.572   9.435  18.323  0.00  0.00    +0.000 A 
ATOM     14  C   UNL     1       2.174   8.232  17.934  0.00  0.00    +0.000 A 
ATOM     15  C   UNL     1       2.412   7.207  18.863  0.00  0.00    +0.000 A 
ATOM     16  C   UNL     1       2.021   7.438  20.193  0.00  0.00    +0.000 A 
ATOM     17  C   UNL     1       1.364   8.618  20.582  0.00  0.00    +0.000 A 
ATOM     18 CL   UNL     1       0.842   8.675  22.224  0.00  0.00    +0.000 Cl
BRANCH  12  20
ATOM     19  C   UNL     1       0.554  12.222  18.670  0.00  0.00    +0.000 C 
ATOM     20  S   UNL     1       0.342  11.147  20.070  0.00  0.00    +0.000 S 
ATOM     21  O   UNL     1       1.035  11.708  21.211  0.00  0.00    +0.000 OA
ATOM     22  O   UNL     1      -1.075  10.859  20.149  0.00  0.00    +0.000 OA
ENDBRANCH  12  20
ENDBRANCH   1  15
BRANCH   1  23
ATOM     23  C   UNL     1       2.044   4.803  17.969  0.00  0.00    +0.000 C 
BRANCH  23  24
ATOM     24  C   UNL     1       2.153   3.419  18.662  0.00  0.00    +0.000 C 
ATOM     25  C   UNL     1       0.928   2.964  19.426  0.00  0.00    +0.000 C 
ATOM     26  C   UNL     1       1.044   3.729  20.726  0.00  0.00    +0.000 C 
ATOM     27  O   UNL     1       2.445   3.902  20.972  0.00  0.00    +0.000 OA
ATOM     28  C   UNL     1       3.165   3.475  19.804  0.00  0.00    +0.000 C 
ENDBRANCH  23  24
ENDBRANCH   1  23
TORSDOF 5
ENDMDL
MODEL 6
REMARK VINA RESULT:      -8.3      1.081      1.355
REMARK  Name = 
REMARK  6 active torsions:
REMARK  status: ('A' for Active; 'I' for Inactive)
REMARK    1  A    between atoms: C_1  and  S_2
REMARK    2  A    between atoms: S_2  and  C_5
REMARK    3  A    between atoms: C_8  and  C_9
REMARK    4  A    between atoms: C_9  and  C_10
REMARK    5  A    between atoms: C_9  and  C_16
REMARK    6  A    between atoms: C_10  and  C_11
REMARK                            x       y       z     vdW  Elec       q    Type
REMARK                         _______ _______ _______ _____ _____    ______ ____
ROOT
ATOM      1  C   UNL     1       2.073   6.078  19.678  0.00  0.00    +0.000 C 
ENDROOT
BRANCH   1   2
ATOM      2  C   UNL     1       1.645   7.513  20.029  0.00  0.00    +0.000 C 
ATOM      3  O   UNL     1       2.125   8.489  19.451  0.00  0.00    +0.000 OA
ATOM      4  N   UNL     1       0.766   7.650  21.079  0.00  0.00    +0.000 N 
ATOM      5  C   UNL     1       0.193   8.880  21.425  0.00  0.00    +0.000 A 
ATOM      6  C   UNL     1      -0.083   9.882  20.489  0.00  0.00    +0.000 A 
ATOM      7  N   UNL     1      -0.569  11.101  20.830  0.00  0.00    +0.000 NA
ATOM      8  C   UNL     1      -0.754  11.287  22.151  0.00  0.00    +0.000 A 
ATOM      9  C   UNL     1      -0.522  10.281  23.077  0.00  0.00    +0.000 A 
ATOM     10  N   UNL     1      -0.080   9.046  22.734  0.00  0.00    +0.000 NA
ATOM     11  H   UNL     1       0.735   6.950  21.808  0.00  0.00    +0.000 HD
ENDBRANCH   1   2
BRANCH   1  15
ATOM     12  C   UNL     1       5.778   5.506  17.433  0.00  0.00    +0.000 A 
ATOM     13  C   UNL     1       5.608   4.944  18.706  0.00  0.00    +0.000 A 
ATOM     14  C   UNL     1       4.412   5.128  19.410  0.00  0.00    +0.000 A 
ATOM     15  C   UNL     1       3.372   5.908  18.879  0.00  0.00    +0.000 A 
ATOM     16  C   UNL     1       3.583   6.492  17.618  0.00  0.00    +0.000 A 
ATOM     17  C   UNL     1       4.756   6.266  16.879  0.00  0.00    +0.000 A 
ATOM     18 CL   UNL     1       4.789   6.954  15.298  0.00  0.00    +0.000 Cl
BRANCH  12  20
ATOM     19  C   UNL     1       6.829   4.367  15.054  0.00  0.00    +0.000 C 
ATOM     20  S   UNL     1       7.293   5.184  16.562  0.00  0.00    +0.000 S 
ATOM     21  O   UNL     1       8.076   4.276  17.375  0.00  0.00    +0.000 OA
ATOM     22  O   UNL     1       7.839   6.469  16.177  0.00  0.00    +0.000 OA
ENDBRANCH  12  20
ENDBRANCH   1  15
BRANCH   1  23
ATOM     23  C   UNL     1       1.997   5.185  20.953  0.00  0.00    +0.000 C 
BRANCH  23  24
ATOM     24  C   UNL     1       1.112   3.912  20.882  0.00  0.00    +0.000 C 
ATOM     25  C   UNL     1       1.663   2.685  21.576  0.00  0.00    +0.000 C 
ATOM     26  C   UNL     1       2.664   2.157  20.573  0.00  0.00    +0.000 C 
ATOM     27  O   UNL     1       2.166   2.511  19.277  0.00  0.00    +0.000 OA
ATOM     28  C   UNL     1       1.043   3.391  19.449  0.00  0.00    +0.000 C 
ENDBRANCH  23  24
ENDBRANCH   1  23
TORSDOF 5
ENDMDL
MODEL 7
REMARK VINA RESULT:      -8.0      4.099      7.435
REMARK  Name = 
REMARK  6 active torsions:
REMARK  status: ('A' for Active; 'I' for Inactive)
REMARK    1  A    between atoms: C_1  and  S_2
REMARK    2  A    between atoms: S_2  and  C_5
REMARK    3  A    between atoms: C_8  and  C_9
REMARK    4  A    between atoms: C_9  and  C_10
REMARK    5  A    between atoms: C_9  and  C_16
REMARK    6  A    between atoms: C_10  and  C_11
REMARK                            x       y       z     vdW  Elec       q    Type
REMARK                         _______ _______ _______ _____ _____    ______ ____
ROOT
ATOM      1  C   UNL     1       3.184   6.232  18.747  0.00  0.00    +0.000 C 
ENDROOT
BRANCH   1   2
ATOM      2  C   UNL     1       4.254   6.264  17.642  0.00  0.00    +0.000 C 
ATOM      3  O   UNL     1       4.893   7.286  17.391  0.00  0.00    +0.000 OA
ATOM      4  N   UNL     1       4.395   5.117  16.895  0.00  0.00    +0.000 N 
ATOM      5  C   UNL     1       5.413   4.959  15.946  0.00  0.00    +0.000 A 
ATOM      6  C   UNL     1       6.670   5.560  16.068  0.00  0.00    +0.000 A 
ATOM      7  N   UNL     1       7.632   5.469  15.117  0.00  0.00    +0.000 NA
ATOM      8  C   UNL     1       7.280   4.764  14.024  0.00  0.00    +0.000 A 
ATOM      9  C   UNL     1       6.051   4.132  13.918  0.00  0.00    +0.000 A 
ATOM     10  N   UNL     1       5.105   4.183  14.887  0.00  0.00    +0.000 NA
ATOM     11  H   UNL     1       3.615   4.483  16.786  0.00  0.00    +0.000 HD
ENDBRANCH   1   2
BRANCH   1  15
ATOM     12  C   UNL     1       0.912   9.909  19.386  0.00  0.00    +0.000 A 
ATOM     13  C   UNL     1       1.484   9.618  18.140  0.00  0.00    +0.000 A 
ATOM     14  C   UNL     1       2.202   8.432  17.947  0.00  0.00    +0.000 A 
ATOM     15  C   UNL     1       2.399   7.526  19.002  0.00  0.00    +0.000 A 
ATOM     16  C   UNL     1       1.848   7.859  20.251  0.00  0.00    +0.000 A 
ATOM     17  C   UNL     1       1.077   9.019  20.440  0.00  0.00    +0.000 A 
ATOM     18 CL   UNL     1       0.372   9.202  22.002  0.00  0.00    +0.000 Cl
BRANCH  12  20
ATOM     19  C   UNL     1       0.762  12.360  20.814  0.00  0.00    +0.000 C 
ATOM     20  S   UNL     1      -0.042  11.400  19.552  0.00  0.00    +0.000 S 
ATOM     21  O   UNL     1      -1.363  11.020  20.012  0.00  0.00    +0.000 OA
ATOM     22  O   UNL     1       0.113  12.140  18.318  0.00  0.00    +0.000 OA
ENDBRANCH  12  20
ENDBRANCH   1  15
BRANCH   1  23
ATOM     23  C   UNL     1       2.283   4.975  18.563  0.00  0.00    +0.000 C 
BRANCH  23  24
ATOM     24  C   UNL     1       2.420   3.837  19.609  0.00  0.00    +0.000 C 
ATOM     25  C   UNL     1       2.506   2.433  19.051  0.00  0.00    +0.000 C 
ATOM     26  C   UNL     1       1.060   2.106  18.748  0.00  0.00    +0.000 C 
ATOM     27  O   UNL     1       0.272   2.821  19.708  0.00  0.00    +0.000 OA
ATOM     28  C   UNL     1       1.139   3.712  20.430  0.00  0.00    +0.000 C 
ENDBRANCH  23  24
ENDBRANCH   1  23
TORSDOF 5
ENDMDL
MODEL 8
REMARK VINA RESULT:      -8.0      3.929      7.215
REMARK  Name = 
REMARK  6 active torsions:
REMARK  status: ('A' for Active; 'I' for Inactive)
REMARK    1  A    between atoms: C_1  and  S_2
REMARK    2  A    between atoms: S_2  and  C_5
REMARK    3  A    between atoms: C_8  and  C_9
REMARK    4  A    between atoms: C_9  and  C_10
REMARK    5  A    between atoms: C_9  and  C_16
REMARK    6  A    between atoms: C_10  and  C_11
REMARK                            x       y       z     vdW  Elec       q    Type
REMARK                         _______ _______ _______ _____ _____    ______ ____
ROOT
ATOM      1  C   UNL     1       2.832   5.865  19.353  0.00  0.00    +0.000 C 
ENDROOT
BRANCH   1   2
ATOM      2  C   UNL     1       4.169   5.775  18.598  0.00  0.00    +0.000 C 
ATOM      3  O   UNL     1       5.220   6.179  19.095  0.00  0.00    +0.000 OA
ATOM      4  N   UNL     1       4.111   5.301  17.307  0.00  0.00    +0.000 N 
ATOM      5  C   UNL     1       5.259   5.045  16.547  0.00  0.00    +0.000 A 
ATOM      6  C   UNL     1       6.469   4.631  17.112  0.00  0.00    +0.000 A 
ATOM      7  N   UNL     1       7.603   4.452  16.389  0.00  0.00    +0.000 NA
ATOM      8  C   UNL     1       7.483   4.723  15.075  0.00  0.00    +0.000 A 
ATOM      9  C   UNL     1       6.274   5.093  14.505  0.00  0.00    +0.000 A 
ATOM     10  N   UNL     1       5.130   5.227  15.218  0.00  0.00    +0.000 NA
ATOM     11  H   UNL     1       3.262   5.405  16.766  0.00  0.00    +0.000 HD
ENDBRANCH   1   2
BRANCH   1  15
ATOM     12  C   UNL     1       0.978   9.811  19.642  0.00  0.00    +0.000 A 
ATOM     13  C   UNL     1       1.595   9.385  18.457  0.00  0.00    +0.000 A 
ATOM     14  C   UNL     1       2.178   8.114  18.377  0.00  0.00    +0.000 A 
ATOM     15  C   UNL     1       2.193   7.253  19.486  0.00  0.00    +0.000 A 
ATOM     16  C   UNL     1       1.601   7.719  20.673  0.00  0.00    +0.000 A 
ATOM     17  C   UNL     1       0.964   8.969  20.747  0.00  0.00    +0.000 A 
ATOM     18 CL   UNL     1       0.180   9.321  22.242  0.00  0.00    +0.000 Cl
BRANCH  12  20
ATOM     19  C   UNL     1       1.081  12.367  20.875  0.00  0.00    +0.000 C 
ATOM     20  S   UNL     1       0.201  11.409  19.664  0.00  0.00    +0.000 S 
ATOM     21  O   UNL     1      -1.165  11.220  20.107  0.00  0.00    +0.000 OA
ATOM     22  O   UNL     1       0.471  12.027  18.383  0.00  0.00    +0.000 OA
ENDBRANCH  12  20
ENDBRANCH   1  15
BRANCH   1  23
ATOM     23  C   UNL     1       1.858   4.771  18.821  0.00  0.00    +0.000 C 
BRANCH  23  24
ATOM     24  C   UNL     1       1.030   3.980  19.869  0.00  0.00    +0.000 C 
ATOM     25  C   UNL     1       1.712   3.729  21.197  0.00  0.00    +0.000 C 
ATOM     26  C   UNL     1       2.617   2.558  20.891  0.00  0.00    +0.000 C 
ATOM     27  O   UNL     1       1.961   1.792  19.873  0.00  0.00    +0.000 OA
ATOM     28  C   UNL     1       0.826   2.539  19.406  0.00  0.00    +0.000 C 
ENDBRANCH  23  24
ENDBRANCH   1  23
TORSDOF 5
ENDMDL
MODEL 9
REMARK VINA RESULT:      -8.0      4.010      7.203
REMARK  Name = 
REMARK  6 active torsions:
REMARK  status: ('A' for Active; 'I' for Inactive)
REMARK    1  A    between atoms: C_1  and  S_2
REMARK    2  A    between atoms: S_2  and  C_5
REMARK    3  A    between atoms: C_8  and  C_9
REMARK    4  A    between atoms: C_9  and  C_10
REMARK    5  A    between atoms: C_9  and  C_16
REMARK    6  A    between atoms: C_10  and  C_11
REMARK                            x       y       z     vdW  Elec       q    Type
REMARK                         _______ _______ _______ _____ _____    ______ ____
ROOT
ATOM      1  C   UNL     1       2.538   6.383  20.005  0.00  0.00    +0.000 C 
ENDROOT
BRANCH   1   2
ATOM      2  C   UNL     1       3.217   6.026  18.672  0.00  0.00    +0.000 C 
ATOM      3  O   UNL     1       2.567   5.854  17.641  0.00  0.00    +0.000 OA
ATOM      4  N   UNL     1       4.578   5.823  18.714  0.00  0.00    +0.000 N 
ATOM      5  C   UNL     1       5.344   5.620  17.560  0.00  0.00    +0.000 A 
ATOM      6  C   UNL     1       5.024   6.188  16.323  0.00  0.00    +0.000 A 
ATOM      7  N   UNL     1       5.721   5.935  15.187  0.00  0.00    +0.000 NA
ATOM      8  C   UNL     1       6.746   5.073  15.334  0.00  0.00    +0.000 A 
ATOM      9  C   UNL     1       7.093   4.541  16.567  0.00  0.00    +0.000 A 
ATOM     10  N   UNL     1       6.425   4.829  17.711  0.00  0.00    +0.000 NA
ATOM     11  H   UNL     1       5.019   5.520  19.572  0.00  0.00    +0.000 HD
ENDBRANCH   1   2
BRANCH   1  15
ATOM     12  C   UNL     1       0.610  10.299  20.204  0.00  0.00    +0.000 A 
ATOM     13  C   UNL     1       1.223   9.853  19.025  0.00  0.00    +0.000 A 
ATOM     14  C   UNL     1       1.829   8.592  18.973  0.00  0.00    +0.000 A 
ATOM     15  C   UNL     1       1.872   7.762  20.105  0.00  0.00    +0.000 A 
ATOM     16  C   UNL     1       1.284   8.249  21.286  0.00  0.00    +0.000 A 
ATOM     17  C   UNL     1       0.623   9.489  21.332  0.00  0.00    +0.000 A 
ATOM     18 CL   UNL     1      -0.152   9.867  22.825  0.00  0.00    +0.000 Cl
BRANCH  12  20
ATOM     19  C   UNL     1       0.166  12.606  18.608  0.00  0.00    +0.000 C 
ATOM     20  S   UNL     1      -0.198  11.882  20.190  0.00  0.00    +0.000 S 
ATOM     21  O   UNL     1       0.406  12.686  21.233  0.00  0.00    +0.000 OA
ATOM     22  O   UNL     1      -1.624  11.628  20.203  0.00  0.00    +0.000 OA
ENDBRANCH  12  20
ENDBRANCH   1  15
BRANCH   1  23
ATOM     23  C   UNL     1       1.620   5.207  20.454  0.00  0.00    +0.000 C 
BRANCH  23  24
ATOM     24  C   UNL     1       2.022   3.776  20.008  0.00  0.00    +0.000 C 
ATOM     25  C   UNL     1       1.027   2.681  20.327  0.00  0.00    +0.000 C 
ATOM     26  C   UNL     1       1.295   2.402  21.789  0.00  0.00    +0.000 C 
ATOM     27  O   UNL     1       2.687   2.668  22.004  0.00  0.00    +0.000 OA
ATOM     28  C   UNL     1       3.218   3.283  20.819  0.00  0.00    +0.000 C 
ENDBRANCH  23  24
ENDBRANCH   1  23
TORSDOF 5
ENDMDL
