MODEL 1
REMARK VINA RESULT:      -7.9      0.000      0.000
REMARK  Name = 
REMARK  10 active torsions:
REMARK  status: ('A' for Active; 'I' for Inactive)
REMARK    1  A    between atoms: C_1  and  C_2
REMARK    2  A    between atoms: C_2  and  C_3
REMARK    3  A    between atoms: C_6  and  C_7
REMARK    4  A    between atoms: C_7  and  C_8
REMARK    5  A    between atoms: C_10  and  C_11
REMARK    6  A    between atoms: C_13  and  C_14
REMARK    7  A    between atoms: C_14  and  O_15
REMARK    8  A    between atoms: C_16  and  O_17
REMARK    9  A    between atoms: C_18  and  O_19
REMARK   10  A    between atoms: C_20  and  O_21
REMARK                            x       y       z     vdW  Elec       q    Type
REMARK                         _______ _______ _______ _____ _____    ______ ____
ROOT
ATOM      1  C   UNL     1       4.576   4.781  19.104  0.00  0.00    +0.000 A 
ATOM      2  C   UNL     1       3.753   5.921  18.919  0.00  0.00    +0.000 A 
ATOM      3  C   UNL     1       2.406   5.963  19.329  0.00  0.00    +0.000 A 
ATOM      4  C   UNL     1       1.884   4.740  19.716  0.00  0.00    +0.000 A 
ATOM      5  C   UNL     1       2.700   3.653  19.998  0.00  0.00    +0.000 A 
ATOM      6  C   UNL     1       4.061   3.676  19.790  0.00  0.00    +0.000 A 
ATOM      7 CL   UNL     1       5.028   2.330  20.262  0.00  0.00    +0.000 Cl
ATOM      8  O   UNL     1       1.980   2.567  20.410  0.00  0.00    +0.000 OA
ATOM      9  C   UNL     1       0.698   2.953  19.896  0.00  0.00    +0.000 C 
ATOM     10  O   UNL     1       0.567   4.389  19.822  0.00  0.00    +0.000 OA
ENDROOT
BRANCH   3  11
ATOM     11  C   UNL     1       1.763   7.328  19.497  0.00  0.00    +0.000 C 
ATOM     12  O   UNL     1       1.735   7.731  20.886  0.00  0.00    +0.000 OA
ATOM     13  C   UNL     1       0.746   8.763  21.112  0.00  0.00    +0.000 C 
ATOM     14  C   UNL     1       1.112  10.034  20.336  0.00  0.00    +0.000 C 
ATOM     15  C   UNL     1       1.257   9.701  18.846  0.00  0.00    +0.000 C 
ATOM     16  C   UNL     1       2.209   8.508  18.598  0.00  0.00    +0.000 C 
BRANCH  14  17
ATOM     17  O   UNL     1       0.119  11.044  20.545  0.00  0.00    +0.000 OA
ATOM     18  H   UNL     1       0.257  11.452  21.420  0.00  0.00    +0.000 HD
ENDBRANCH  14  17
BRANCH  15  19
ATOM     19  O   UNL     1       1.662  10.862  18.115  0.00  0.00    +0.000 OA
ATOM     20  H   UNL     1       2.624  10.817  17.973  0.00  0.00    +0.000 HD
ENDBRANCH  15  19
BRANCH  16  21
ATOM     21  O   UNL     1       2.154   8.173  17.203  0.00  0.00    +0.000 OA
ATOM     22  H   UNL     1       3.057   8.131  16.845  0.00  0.00    +0.000 HD
ENDBRANCH  16  21
BRANCH  13  23
ATOM     23  C   UNL     1       0.615   9.067  22.614  0.00  0.00    +0.000 C 
BRANCH  23  24
ATOM     24  O   UNL     1      -0.762   9.197  22.964  0.00  0.00    +0.000 OA
ATOM     25  H   UNL     1      -1.179   8.354  22.702  0.00  0.00    +0.000 HD
ENDBRANCH  23  24
ENDBRANCH  13  23
ENDBRANCH   3  11
BRANCH   1  26
ATOM     26  C   UNL     1       5.951   4.765  18.492  0.00  0.00    +0.000 C 
BRANCH  26  30
ATOM     27  C   UNL     1       6.274   4.190  14.232  0.00  0.00    +0.000 A 
ATOM     28  C   UNL     1       7.258   4.905  14.936  0.00  0.00    +0.000 A 
ATOM     29  C   UNL     1       7.118   5.130  16.302  0.00  0.00    +0.000 A 
ATOM     30  C   UNL     1       6.008   4.642  16.994  0.00  0.00    +0.000 A 
ATOM     31  C   UNL     1       5.007   3.961  16.285  0.00  0.00    +0.000 A 
ATOM     32  C   UNL     1       5.145   3.737  14.915  0.00  0.00    +0.000 A 
BRANCH  27  34
ATOM     33  C   UNL     1       5.212   3.286  12.169  0.00  0.00    +0.000 C 
ATOM     34  C   UNL     1       6.487   3.842  12.785  0.00  0.00    +0.000 C 
ENDBRANCH  27  34
ENDBRANCH  26  30
ENDBRANCH   1  26
TORSDOF 9
ENDMDL
MODEL 2
REMARK VINA RESULT:      -7.7      1.212      1.667
REMARK  Name = 
REMARK  10 active torsions:
REMARK  status: ('A' for Active; 'I' for Inactive)
REMARK    1  A    between atoms: C_1  and  C_2
REMARK    2  A    between atoms: C_2  and  C_3
REMARK    3  A    between atoms: C_6  and  C_7
REMARK    4  A    between atoms: C_7  and  C_8
REMARK    5  A    between atoms: C_10  and  C_11
REMARK    6  A    between atoms: C_13  and  C_14
REMARK    7  A    between atoms: C_14  and  O_15
REMARK    8  A    between atoms: C_16  and  O_17
REMARK    9  A    between atoms: C_18  and  O_19
REMARK   10  A    between atoms: C_20  and  O_21
REMARK                            x       y       z     vdW  Elec       q    Type
REMARK                         _______ _______ _______ _____ _____    ______ ____
ROOT
ATOM      1  C   UNL     1       4.800   6.438  17.937  0.00  0.00    +0.000 A 
ATOM      2  C   UNL     1       3.663   7.284  18.001  0.00  0.00    +0.000 A 
ATOM      3  C   UNL     1       2.563   7.020  18.840  0.00  0.00    +0.000 A 
ATOM      4  C   UNL     1       2.572   5.764  19.423  0.00  0.00    +0.000 A 
ATOM      5  C   UNL     1       3.718   4.980  19.451  0.00  0.00    +0.000 A 
ATOM      6  C   UNL     1       4.874   5.336  18.795  0.00  0.00    +0.000 A 
ATOM      7 CL   UNL     1       6.291   4.369  18.960  0.00  0.00    +0.000 Cl
ATOM      8  O   UNL     1       3.516   3.804  20.120  0.00  0.00    +0.000 OA
ATOM      9  C   UNL     1       2.084   3.765  20.055  0.00  0.00    +0.000 C 
ATOM     10  O   UNL     1       1.520   5.092  19.979  0.00  0.00    +0.000 OA
ENDROOT
BRANCH   3  11
ATOM     11  C   UNL     1       1.633   8.175  19.167  0.00  0.00    +0.000 C 
ATOM     12  O   UNL     1       1.443   8.311  20.594  0.00  0.00    +0.000 OA
ATOM     13  C   UNL     1       0.244   9.065  20.892  0.00  0.00    +0.000 C 
ATOM     14  C   UNL     1       0.370  10.501  20.368  0.00  0.00    +0.000 C 
ATOM     15  C   UNL     1       0.665  10.473  18.863  0.00  0.00    +0.000 C 
ATOM     16  C   UNL     1       1.864   9.560  18.514  0.00  0.00    +0.000 C 
BRANCH  14  17
ATOM     17  O   UNL     1      -0.827  11.235  20.646  0.00  0.00    +0.000 OA
ATOM     18  H   UNL     1      -1.566  10.609  20.763  0.00  0.00    +0.000 HD
ENDBRANCH  14  17
BRANCH  15  19
ATOM     19  O   UNL     1       0.850  11.803  18.370  0.00  0.00    +0.000 OA
ATOM     20  H   UNL     1       0.581  12.430  19.064  0.00  0.00    +0.000 HD
ENDBRANCH  15  19
BRANCH  16  21
ATOM     21  O   UNL     1       1.959   9.473  17.084  0.00  0.00    +0.000 OA
ATOM     22  H   UNL     1       1.548   8.645  16.783  0.00  0.00    +0.000 HD
ENDBRANCH  16  21
BRANCH  13  23
ATOM     23  C   UNL     1      -0.031   9.066  22.405  0.00  0.00    +0.000 C 
BRANCH  23  24
ATOM     24  O   UNL     1       0.647  10.161  23.021  0.00  0.00    +0.000 OA
ATOM     25  H   UNL     1       1.535   9.825  23.246  0.00  0.00    +0.000 HD
ENDBRANCH  23  24
ENDBRANCH  13  23
ENDBRANCH   3  11
BRANCH   1  26
ATOM     26  C   UNL     1       5.855   6.708  16.898  0.00  0.00    +0.000 C 
BRANCH  26  30
ATOM     27  C   UNL     1       6.058   3.981  13.566  0.00  0.00    +0.000 A 
ATOM     28  C   UNL     1       4.915   4.032  14.382  0.00  0.00    +0.000 A 
ATOM     29  C   UNL     1       4.881   4.878  15.487  0.00  0.00    +0.000 A 
ATOM     30  C   UNL     1       5.971   5.695  15.794  0.00  0.00    +0.000 A 
ATOM     31  C   UNL     1       7.125   5.617  15.000  0.00  0.00    +0.000 A 
ATOM     32  C   UNL     1       7.163   4.768  13.894  0.00  0.00    +0.000 A 
BRANCH  27  34
ATOM     33  C   UNL     1       4.680   3.211  11.640  0.00  0.00    +0.000 C 
ATOM     34  C   UNL     1       6.047   3.161  12.306  0.00  0.00    +0.000 C 
ENDBRANCH  27  34
ENDBRANCH  26  30
ENDBRANCH   1  26
TORSDOF 9
ENDMDL
MODEL 3
REMARK VINA RESULT:      -7.6      1.982      3.126
REMARK  Name = 
REMARK  10 active torsions:
REMARK  status: ('A' for Active; 'I' for Inactive)
REMARK    1  A    between atoms: C_1  and  C_2
REMARK    2  A    between atoms: C_2  and  C_3
REMARK    3  A    between atoms: C_6  and  C_7
REMARK    4  A    between atoms: C_7  and  C_8
REMARK    5  A    between atoms: C_10  and  C_11
REMARK    6  A    between atoms: C_13  and  C_14
REMARK    7  A    between atoms: C_14  and  O_15
REMARK    8  A    between atoms: C_16  and  O_17
REMARK    9  A    between atoms: C_18  and  O_19
REMARK   10  A    between atoms: C_20  and  O_21
REMARK                            x       y       z     vdW  Elec       q    Type
REMARK                         _______ _______ _______ _____ _____    ______ ____
ROOT
ATOM      1  C   UNL     1       4.600   4.534  18.982  0.00  0.00    +0.000 A 
ATOM      2  C   UNL     1       3.805   5.686  18.752  0.00  0.00    +0.000 A 
ATOM      3  C   UNL     1       2.493   5.818  19.247  0.00  0.00    +0.000 A 
ATOM      4  C   UNL     1       1.958   4.656  19.776  0.00  0.00    +0.000 A 
ATOM      5  C   UNL     1       2.754   3.566  20.099  0.00  0.00    +0.000 A 
ATOM      6  C   UNL     1       4.096   3.515  19.797  0.00  0.00    +0.000 A 
ATOM      7 CL   UNL     1       5.047   2.177  20.321  0.00  0.00    +0.000 Cl
ATOM      8  O   UNL     1       2.028   2.549  20.654  0.00  0.00    +0.000 OA
ATOM      9  C   UNL     1       0.727   2.941  20.195  0.00  0.00    +0.000 C 
ATOM     10  O   UNL     1       0.641   4.370  20.002  0.00  0.00    +0.000 OA
ENDROOT
BRANCH   3  11
ATOM     11  C   UNL     1       1.911   7.219  19.335  0.00  0.00    +0.000 C 
ATOM     12  O   UNL     1       1.860   7.683  20.703  0.00  0.00    +0.000 OA
ATOM     13  C   UNL     1       0.916   8.770  20.853  0.00  0.00    +0.000 C 
ATOM     14  C   UNL     1       1.365   9.987  20.035  0.00  0.00    +0.000 C 
ATOM     15  C   UNL     1       1.539   9.581  18.566  0.00  0.00    +0.000 C 
ATOM     16  C   UNL     1       2.440   8.334  18.400  0.00  0.00    +0.000 C 
BRANCH  14  17
ATOM     17  O   UNL     1       0.415  11.049  20.168  0.00  0.00    +0.000 OA
ATOM     18  H   UNL     1       0.479  11.424  21.066  0.00  0.00    +0.000 HD
ENDBRANCH  14  17
BRANCH  15  19
ATOM     19  O   UNL     1       2.021  10.688  17.799  0.00  0.00    +0.000 OA
ATOM     20  H   UNL     1       2.209  11.425  18.407  0.00  0.00    +0.000 HD
ENDBRANCH  15  19
BRANCH  16  21
ATOM     21  O   UNL     1       2.411   7.940  17.020  0.00  0.00    +0.000 OA
ATOM     22  H   UNL     1       1.490   7.802  16.743  0.00  0.00    +0.000 HD
ENDBRANCH  16  21
BRANCH  13  23
ATOM     23  C   UNL     1       0.755   9.146  22.335  0.00  0.00    +0.000 C 
BRANCH  23  24
ATOM     24  O   UNL     1       2.039   9.342  22.927  0.00  0.00    +0.000 OA
ATOM     25  H   UNL     1       2.394   8.446  23.082  0.00  0.00    +0.000 HD
ENDBRANCH  23  24
ENDBRANCH  13  23
ENDBRANCH   3  11
BRANCH   1  26
ATOM     26  C   UNL     1       5.926   4.409  18.282  0.00  0.00    +0.000 C 
BRANCH  26  30
ATOM     27  C   UNL     1       7.969   8.189  17.938  0.00  0.00    +0.000 A 
ATOM     28  C   UNL     1       6.962   7.833  17.026  0.00  0.00    +0.000 A 
ATOM     29  C   UNL     1       6.345   6.588  17.114  0.00  0.00    +0.000 A 
ATOM     30  C   UNL     1       6.708   5.682  18.112  0.00  0.00    +0.000 A 
ATOM     31  C   UNL     1       7.739   6.023  19.000  0.00  0.00    +0.000 A 
ATOM     32  C   UNL     1       8.361   7.269  18.911  0.00  0.00    +0.000 A 
BRANCH  27  34
ATOM     33  C   UNL     1       9.176   9.920  19.260  0.00  0.00    +0.000 C 
ATOM     34  C   UNL     1       8.546   9.578  17.919  0.00  0.00    +0.000 C 
ENDBRANCH  27  34
ENDBRANCH  26  30
ENDBRANCH   1  26
TORSDOF 9
ENDMDL
MODEL 4
REMARK VINA RESULT:      -7.5      0.388      1.020
REMARK  Name = 
REMARK  10 active torsions:
REMARK  status: ('A' for Active; 'I' for Inactive)
REMARK    1  A    between atoms: C_1  and  C_2
REMARK    2  A    between atoms: C_2  and  C_3
REMARK    3  A    between atoms: C_6  and  C_7
REMARK    4  A    between atoms: C_7  and  C_8
REMARK    5  A    between atoms: C_10  and  C_11
REMARK    6  A    between atoms: C_13  and  C_14
REMARK    7  A    between atoms: C_14  and  O_15
REMARK    8  A    between atoms: C_16  and  O_17
REMARK    9  A    between atoms: C_18  and  O_19
REMARK   10  A    between atoms: C_20  and  O_21
REMARK                            x       y       z     vdW  Elec       q    Type
REMARK                         _______ _______ _______ _____ _____    ______ ____
ROOT
ATOM      1  C   UNL     1       4.562   5.073  19.207  0.00  0.00    +0.000 A 
ATOM      2  C   UNL     1       3.689   6.182  19.067  0.00  0.00    +0.000 A 
ATOM      3  C   UNL     1       2.347   6.155  19.495  0.00  0.00    +0.000 A 
ATOM      4  C   UNL     1       1.882   4.900  19.851  0.00  0.00    +0.000 A 
ATOM      5  C   UNL     1       2.747   3.841  20.089  0.00  0.00    +0.000 A 
ATOM      6  C   UNL     1       4.102   3.927  19.865  0.00  0.00    +0.000 A 
ATOM      7 CL   UNL     1       5.130   2.610  20.284  0.00  0.00    +0.000 Cl
ATOM      8  O   UNL     1       2.078   2.713  20.477  0.00  0.00    +0.000 OA
ATOM      9  C   UNL     1       0.774   3.060  19.991  0.00  0.00    +0.000 C 
ATOM     10  O   UNL     1       0.583   4.491  19.962  0.00  0.00    +0.000 OA
ENDROOT
BRANCH   3  11
ATOM     11  C   UNL     1       1.650   7.487  19.712  0.00  0.00    +0.000 C 
ATOM     12  O   UNL     1       1.715   7.896  21.098  0.00  0.00    +0.000 OA
ATOM     13  C   UNL     1       0.696   8.878  21.402  0.00  0.00    +0.000 C 
ATOM     14  C   UNL     1       0.931  10.161  20.596  0.00  0.00    +0.000 C 
ATOM     15  C   UNL     1       0.970   9.826  19.100  0.00  0.00    +0.000 C 
ATOM     16  C   UNL     1       1.959   8.682  18.777  0.00  0.00    +0.000 C 
BRANCH  14  17
ATOM     17  O   UNL     1      -0.093  11.119  20.884  0.00  0.00    +0.000 OA
ATOM     18  H   UNL     1       0.048  11.912  20.334  0.00  0.00    +0.000 HD
ENDBRANCH  14  17
BRANCH  15  19
ATOM     19  O   UNL     1       1.253  11.002  18.336  0.00  0.00    +0.000 OA
ATOM     20  H   UNL     1       0.864  10.895  17.450  0.00  0.00    +0.000 HD
ENDBRANCH  15  19
BRANCH  16  21
ATOM     21  O   UNL     1       1.808   8.335  17.392  0.00  0.00    +0.000 OA
ATOM     22  H   UNL     1       2.064   7.407  17.261  0.00  0.00    +0.000 HD
ENDBRANCH  16  21
BRANCH  13  23
ATOM     23  C   UNL     1       0.673   9.184  22.909  0.00  0.00    +0.000 C 
BRANCH  23  24
ATOM     24  O   UNL     1      -0.666   9.440  23.331  0.00  0.00    +0.000 OA
ATOM     25  H   UNL     1      -0.636  10.306  23.780  0.00  0.00    +0.000 HD
ENDBRANCH  23  24
ENDBRANCH  13  23
ENDBRANCH   3  11
BRANCH   1  26
ATOM     26  C   UNL     1       5.927   5.133  18.578  0.00  0.00    +0.000 C 
BRANCH  26  30
ATOM     27  C   UNL     1       6.043   3.970  14.429  0.00  0.00    +0.000 A 
ATOM     28  C   UNL     1       4.980   3.570  15.256  0.00  0.00    +0.000 A 
ATOM     29  C   UNL     1       4.979   3.906  16.607  0.00  0.00    +0.000 A 
ATOM     30  C   UNL     1       6.023   4.653  17.156  0.00  0.00    +0.000 A 
ATOM     31  C   UNL     1       7.102   5.020  16.339  0.00  0.00    +0.000 A 
ATOM     32  C   UNL     1       7.107   4.681  14.986  0.00  0.00    +0.000 A 
BRANCH  27  34
ATOM     33  C   UNL     1       7.180   4.332  12.243  0.00  0.00    +0.000 C 
ATOM     34  C   UNL     1       5.983   3.712  12.949  0.00  0.00    +0.000 C 
ENDBRANCH  27  34
ENDBRANCH  26  30
ENDBRANCH   1  26
TORSDOF 9
ENDMDL
MODEL 5
REMARK VINA RESULT:      -7.3      3.260      7.274
REMARK  Name = 
REMARK  10 active torsions:
REMARK  status: ('A' for Active; 'I' for Inactive)
REMARK    1  A    between atoms: C_1  and  C_2
REMARK    2  A    between atoms: C_2  and  C_3
REMARK    3  A    between atoms: C_6  and  C_7
REMARK    4  A    between atoms: C_7  and  C_8
REMARK    5  A    between atoms: C_10  and  C_11
REMARK    6  A    between atoms: C_13  and  C_14
REMARK    7  A    between atoms: C_14  and  O_15
REMARK    8  A    between atoms: C_16  and  O_17
REMARK    9  A    between atoms: C_18  and  O_19
REMARK   10  A    between atoms: C_20  and  O_21
REMARK                            x       y       z     vdW  Elec       q    Type
REMARK                         _______ _______ _______ _____ _____    ______ ____
ROOT
ATOM      1  C   UNL     1       2.667   5.188  19.996  0.00  0.00    +0.000 A 
ATOM      2  C   UNL     1       3.897   5.276  19.296  0.00  0.00    +0.000 A 
ATOM      3  C   UNL     1       4.373   4.249  18.458  0.00  0.00    +0.000 A 
ATOM      4  C   UNL     1       3.667   3.061  18.546  0.00  0.00    +0.000 A 
ATOM      5  C   UNL     1       2.414   2.999  19.140  0.00  0.00    +0.000 A 
ATOM      6  C   UNL     1       1.849   4.072  19.791  0.00  0.00    +0.000 A 
ATOM      7 CL   UNL     1       0.246   3.957  20.412  0.00  0.00    +0.000 Cl
ATOM      8  O   UNL     1       1.877   1.743  19.070  0.00  0.00    +0.000 OA
ATOM      9  C   UNL     1       3.085   1.008  18.829  0.00  0.00    +0.000 C 
ATOM     10  O   UNL     1       4.071   1.817  18.151  0.00  0.00    +0.000 OA
ENDROOT
BRANCH   3  11
ATOM     11  C   UNL     1       5.435   4.610  17.434  0.00  0.00    +0.000 C 
ATOM     12  O   UNL     1       4.944   4.445  16.084  0.00  0.00    +0.000 OA
ATOM     13  C   UNL     1       6.036   4.330  15.140  0.00  0.00    +0.000 C 
ATOM     14  C   UNL     1       6.857   5.624  15.111  0.00  0.00    +0.000 C 
ATOM     15  C   UNL     1       7.358   5.946  16.524  0.00  0.00    +0.000 C 
ATOM     16  C   UNL     1       6.218   5.939  17.570  0.00  0.00    +0.000 C 
BRANCH  14  17
ATOM     17  O   UNL     1       7.947   5.496  14.193  0.00  0.00    +0.000 OA
ATOM     18  H   UNL     1       7.609   5.174  13.337  0.00  0.00    +0.000 HD
ENDBRANCH  14  17
BRANCH  15  19
ATOM     19  O   UNL     1       8.072   7.186  16.527  0.00  0.00    +0.000 OA
ATOM     20  H   UNL     1       7.901   7.638  17.372  0.00  0.00    +0.000 HD
ENDBRANCH  15  19
BRANCH  16  21
ATOM     21  O   UNL     1       6.804   6.089  18.872  0.00  0.00    +0.000 OA
ATOM     22  H   UNL     1       7.730   6.369  18.779  0.00  0.00    +0.000 HD
ENDBRANCH  16  21
BRANCH  13  23
ATOM     23  C   UNL     1       5.503   3.996  13.737  0.00  0.00    +0.000 C 
BRANCH  23  24
ATOM     24  O   UNL     1       6.441   3.170  13.047  0.00  0.00    +0.000 OA
ATOM     25  H   UNL     1       7.081   2.880  13.724  0.00  0.00    +0.000 HD
ENDBRANCH  23  24
ENDBRANCH  13  23
ENDBRANCH   3  11
BRANCH   1  26
ATOM     26  C   UNL     1       2.314   6.259  20.992  0.00  0.00    +0.000 C 
BRANCH  26  30
ATOM     27  C   UNL     1       0.545   9.779  19.243  0.00  0.00    +0.000 A 
ATOM     28  C   UNL     1       1.448   8.991  18.510  0.00  0.00    +0.000 A 
ATOM     29  C   UNL     1       2.053   7.886  19.102  0.00  0.00    +0.000 A 
ATOM     30  C   UNL     1       1.767   7.539  20.423  0.00  0.00    +0.000 A 
ATOM     31  C   UNL     1       0.895   8.347  21.167  0.00  0.00    +0.000 A 
ATOM     32  C   UNL     1       0.289   9.457  20.577  0.00  0.00    +0.000 A 
BRANCH  27  34
ATOM     33  C   UNL     1      -1.393  10.357  17.790  0.00  0.00    +0.000 C 
ATOM     34  C   UNL     1      -0.201  10.896  18.567  0.00  0.00    +0.000 C 
ENDBRANCH  27  34
ENDBRANCH  26  30
ENDBRANCH   1  26
TORSDOF 9
ENDMDL
MODEL 6
REMARK VINA RESULT:      -7.2      3.261      7.297
REMARK  Name = 
REMARK  10 active torsions:
REMARK  status: ('A' for Active; 'I' for Inactive)
REMARK    1  A    between atoms: C_1  and  C_2
REMARK    2  A    between atoms: C_2  and  C_3
REMARK    3  A    between atoms: C_6  and  C_7
REMARK    4  A    between atoms: C_7  and  C_8
REMARK    5  A    between atoms: C_10  and  C_11
REMARK    6  A    between atoms: C_13  and  C_14
REMARK    7  A    between atoms: C_14  and  O_15
REMARK    8  A    between atoms: C_16  and  O_17
REMARK    9  A    between atoms: C_18  and  O_19
REMARK   10  A    between atoms: C_20  and  O_21
REMARK                            x       y       z     vdW  Elec       q    Type
REMARK                         _______ _______ _______ _____ _____    ______ ____
ROOT
ATOM      1  C   UNL     1       2.616   5.201  19.925  0.00  0.00    +0.000 A 
ATOM      2  C   UNL     1       3.852   5.295  19.236  0.00  0.00    +0.000 A 
ATOM      3  C   UNL     1       4.363   4.252  18.440  0.00  0.00    +0.000 A 
ATOM      4  C   UNL     1       3.684   3.051  18.560  0.00  0.00    +0.000 A 
ATOM      5  C   UNL     1       2.425   2.979  19.142  0.00  0.00    +0.000 A 
ATOM      6  C   UNL     1       1.827   4.059  19.749  0.00  0.00    +0.000 A 
ATOM      7 CL   UNL     1       0.220   3.927  20.355  0.00  0.00    +0.000 Cl
ATOM      8  O   UNL     1       1.920   1.709  19.109  0.00  0.00    +0.000 OA
ATOM      9  C   UNL     1       3.148   0.996  18.907  0.00  0.00    +0.000 C 
ATOM     10  O   UNL     1       4.122   1.804  18.212  0.00  0.00    +0.000 OA
ENDROOT
BRANCH   3  11
ATOM     11  C   UNL     1       5.428   4.604  17.417  0.00  0.00    +0.000 C 
ATOM     12  O   UNL     1       4.937   4.441  16.067  0.00  0.00    +0.000 OA
ATOM     13  C   UNL     1       6.028   4.317  15.123  0.00  0.00    +0.000 C 
ATOM     14  C   UNL     1       6.859   5.605  15.093  0.00  0.00    +0.000 C 
ATOM     15  C   UNL     1       7.362   5.924  16.507  0.00  0.00    +0.000 C 
ATOM     16  C   UNL     1       6.222   5.927  17.552  0.00  0.00    +0.000 C 
BRANCH  14  17
ATOM     17  O   UNL     1       7.950   5.468  14.176  0.00  0.00    +0.000 OA
ATOM     18  H   UNL     1       8.326   4.572  14.259  0.00  0.00    +0.000 HD
ENDBRANCH  14  17
BRANCH  15  19
ATOM     19  O   UNL     1       8.086   7.158  16.509  0.00  0.00    +0.000 OA
ATOM     20  H   UNL     1       7.747   7.713  17.234  0.00  0.00    +0.000 HD
ENDBRANCH  15  19
BRANCH  16  21
ATOM     21  O   UNL     1       6.808   6.074  18.854  0.00  0.00    +0.000 OA
ATOM     22  H   UNL     1       7.286   6.918  18.899  0.00  0.00    +0.000 HD
ENDBRANCH  16  21
BRANCH  13  23
ATOM     23  C   UNL     1       5.494   3.986  13.720  0.00  0.00    +0.000 C 
BRANCH  23  24
ATOM     24  O   UNL     1       6.436   3.171  13.023  0.00  0.00    +0.000 OA
ATOM     25  H   UNL     1       7.278   3.664  13.050  0.00  0.00    +0.000 HD
ENDBRANCH  23  24
ENDBRANCH  13  23
ENDBRANCH   3  11
BRANCH   1  26
ATOM     26  C   UNL     1       2.226   6.297  20.880  0.00  0.00    +0.000 C 
BRANCH  26  30
ATOM     27  C   UNL     1       0.981  10.070  19.208  0.00  0.00    +0.000 A 
ATOM     28  C   UNL     1       0.630   9.717  20.522  0.00  0.00    +0.000 A 
ATOM     29  C   UNL     1       0.992   8.475  21.034  0.00  0.00    +0.000 A 
ATOM     30  C   UNL     1       1.716   7.567  20.258  0.00  0.00    +0.000 A 
ATOM     31  C   UNL     1       2.033   7.904  18.934  0.00  0.00    +0.000 A 
ATOM     32  C   UNL     1       1.669   9.147  18.418  0.00  0.00    +0.000 A 
BRANCH  27  34
ATOM     33  C   UNL     1       1.975  12.279  18.632  0.00  0.00    +0.000 C 
ATOM     34  C   UNL     1       0.698  11.456  18.699  0.00  0.00    +0.000 C 
ENDBRANCH  27  34
ENDBRANCH  26  30
ENDBRANCH   1  26
TORSDOF 9
ENDMDL
MODEL 7
REMARK VINA RESULT:      -7.2      5.420      8.637
REMARK  Name = 
REMARK  10 active torsions:
REMARK  status: ('A' for Active; 'I' for Inactive)
REMARK    1  A    between atoms: C_1  and  C_2
REMARK    2  A    between atoms: C_2  and  C_3
REMARK    3  A    between atoms: C_6  and  C_7
REMARK    4  A    between atoms: C_7  and  C_8
REMARK    5  A    between atoms: C_10  and  C_11
REMARK    6  A    between atoms: C_13  and  C_14
REMARK    7  A    between atoms: C_14  and  O_15
REMARK    8  A    between atoms: C_16  and  O_17
REMARK    9  A    between atoms: C_18  and  O_19
REMARK   10  A    between atoms: C_20  and  O_21
REMARK                            x       y       z     vdW  Elec       q    Type
REMARK                         _______ _______ _______ _____ _____    ______ ____
ROOT
ATOM      1  C   UNL     1      -1.213  11.417  18.978  0.00  0.00    +0.000 A 
ATOM      2  C   UNL     1      -1.556  12.177  20.125  0.00  0.00    +0.000 A 
ATOM      3  C   UNL     1      -2.886  12.511  20.448  0.00  0.00    +0.000 A 
ATOM      4  C   UNL     1      -3.807  12.237  19.451  0.00  0.00    +0.000 A 
ATOM      5  C   UNL     1      -3.501  11.406  18.382  0.00  0.00    +0.000 A 
ATOM      6  C   UNL     1      -2.236  10.906  18.172  0.00  0.00    +0.000 A 
ATOM      7 CL   UNL     1      -1.951   9.794  16.887  0.00  0.00    +0.000 Cl
ATOM      8  O   UNL     1      -4.570  11.233  17.547  0.00  0.00    +0.000 OA
ATOM      9  C   UNL     1      -5.339  12.376  17.945  0.00  0.00    +0.000 C 
ATOM     10  O   UNL     1      -5.068  12.747  19.315  0.00  0.00    +0.000 OA
ENDROOT
BRANCH   3  11
ATOM     11  C   UNL     1      -3.181  12.920  21.881  0.00  0.00    +0.000 C 
ATOM     12  O   UNL     1      -2.308  13.988  22.314  0.00  0.00    +0.000 OA
ATOM     13  C   UNL     1      -2.252  14.065  23.759  0.00  0.00    +0.000 C 
ATOM     14  C   UNL     1      -3.630  14.420  24.330  0.00  0.00    +0.000 C 
ATOM     15  C   UNL     1      -4.662  13.390  23.855  0.00  0.00    +0.000 C 
ATOM     16  C   UNL     1      -4.640  13.197  22.320  0.00  0.00    +0.000 C 
BRANCH  14  17
ATOM     17  O   UNL     1      -3.573  14.472  25.760  0.00  0.00    +0.000 OA
ATOM     18  H   UNL     1      -4.078  13.723  26.127  0.00  0.00    +0.000 HD
ENDBRANCH  14  17
BRANCH  15  19
ATOM     19  O   UNL     1      -5.967  13.742  24.326  0.00  0.00    +0.000 OA
ATOM     20  H   UNL     1      -5.935  13.814  25.296  0.00  0.00    +0.000 HD
ENDBRANCH  15  19
BRANCH  16  21
ATOM     21  O   UNL     1      -5.518  12.110  21.992  0.00  0.00    +0.000 OA
ATOM     22  H   UNL     1      -5.092  11.269  22.229  0.00  0.00    +0.000 HD
ENDBRANCH  16  21
BRANCH  13  23
ATOM     23  C   UNL     1      -1.201  15.096  24.204  0.00  0.00    +0.000 C 
BRANCH  23  24
ATOM     24  O   UNL     1      -0.041  14.993  23.379  0.00  0.00    +0.000 OA
ATOM     25  H   UNL     1      -0.210  15.579  22.617  0.00  0.00    +0.000 HD
ENDBRANCH  23  24
ENDBRANCH  13  23
ENDBRANCH   3  11
BRANCH   1  26
ATOM     26  C   UNL     1       0.239  11.246  18.622  0.00  0.00    +0.000 C 
BRANCH  26  30
ATOM     27  C   UNL     1       2.174   7.470  19.384  0.00  0.00    +0.000 A 
ATOM     28  C   UNL     1       2.151   8.015  18.089  0.00  0.00    +0.000 A 
ATOM     29  C   UNL     1       1.478   9.209  17.844  0.00  0.00    +0.000 A 
ATOM     30  C   UNL     1       0.828   9.886  18.878  0.00  0.00    +0.000 A 
ATOM     31  C   UNL     1       0.819   9.323  20.162  0.00  0.00    +0.000 A 
ATOM     32  C   UNL     1       1.490   8.125  20.409  0.00  0.00    +0.000 A 
BRANCH  27  34
ATOM     33  C   UNL     1       2.188   5.208  20.424  0.00  0.00    +0.000 C 
ATOM     34  C   UNL     1       3.003   6.249  19.672  0.00  0.00    +0.000 C 
ENDBRANCH  27  34
ENDBRANCH  26  30
ENDBRANCH   1  26
TORSDOF 9
ENDMDL
MODEL 8
REMARK VINA RESULT:      -7.1      5.127      8.599
REMARK  Name = 
REMARK  10 active torsions:
REMARK  status: ('A' for Active; 'I' for Inactive)
REMARK    1  A    between atoms: C_1  and  C_2
REMARK    2  A    between atoms: C_2  and  C_3
REMARK    3  A    between atoms: C_6  and  C_7
REMARK    4  A    between atoms: C_7  and  C_8
REMARK    5  A    between atoms: C_10  and  C_11
REMARK    6  A    between atoms: C_13  and  C_14
REMARK    7  A    between atoms: C_14  and  O_15
REMARK    8  A    between atoms: C_16  and  O_17
REMARK    9  A    between atoms: C_18  and  O_19
REMARK   10  A    between atoms: C_20  and  O_21
REMARK                            x       y       z     vdW  Elec       q    Type
REMARK                         _______ _______ _______ _____ _____    ______ ____
ROOT
ATOM      1  C   UNL     1      -1.051  11.483  19.018  0.00  0.00    +0.000 A 
ATOM      2  C   UNL     1      -1.418  12.282  20.130  0.00  0.00    +0.000 A 
ATOM      3  C   UNL     1      -2.758  12.573  20.452  0.00  0.00    +0.000 A 
ATOM      4  C   UNL     1      -3.675  12.213  19.479  0.00  0.00    +0.000 A 
ATOM      5  C   UNL     1      -3.342  11.345  18.447  0.00  0.00    +0.000 A 
ATOM      6  C   UNL     1      -2.058  10.890  18.248  0.00  0.00    +0.000 A 
ATOM      7 CL   UNL     1      -1.736   9.731  17.014  0.00  0.00    +0.000 Cl
ATOM      8  O   UNL     1      -4.409  11.086  17.633  0.00  0.00    +0.000 OA
ATOM      9  C   UNL     1      -5.224  12.213  17.985  0.00  0.00    +0.000 C 
ATOM     10  O   UNL     1      -4.957  12.660  19.332  0.00  0.00    +0.000 OA
ENDROOT
BRANCH   3  11
ATOM     11  C   UNL     1      -3.057  13.038  21.866  0.00  0.00    +0.000 C 
ATOM     12  O   UNL     1      -2.247  14.179  22.229  0.00  0.00    +0.000 OA
ATOM     13  C   UNL     1      -2.176  14.335  23.667  0.00  0.00    +0.000 C 
ATOM     14  C   UNL     1      -3.565  14.633  24.243  0.00  0.00    +0.000 C 
ATOM     15  C   UNL     1      -4.537  13.517  23.839  0.00  0.00    +0.000 C 
ATOM     16  C   UNL     1      -4.525  13.246  22.316  0.00  0.00    +0.000 C 
BRANCH  14  17
ATOM     17  O   UNL     1      -3.492  14.763  25.666  0.00  0.00    +0.000 OA
ATOM     18  H   UNL     1      -4.357  14.535  26.053  0.00  0.00    +0.000 HD
ENDBRANCH  14  17
BRANCH  15  19
ATOM     19  O   UNL     1      -5.855  13.811  24.314  0.00  0.00    +0.000 OA
ATOM     20  H   UNL     1      -5.888  14.751  24.566  0.00  0.00    +0.000 HD
ENDBRANCH  15  19
BRANCH  16  21
ATOM     21  O   UNL     1      -5.337  12.091  22.059  0.00  0.00    +0.000 OA
ATOM     22  H   UNL     1      -5.040  11.356  22.623  0.00  0.00    +0.000 HD
ENDBRANCH  16  21
BRANCH  13  23
ATOM     23  C   UNL     1      -1.186  15.451  24.040  0.00  0.00    +0.000 C 
BRANCH  23  24
ATOM     24  O   UNL     1      -0.744  15.276  25.386  0.00  0.00    +0.000 OA
ATOM     25  H   UNL     1       0.229  15.350  25.353  0.00  0.00    +0.000 HD
ENDBRANCH  23  24
ENDBRANCH  13  23
ENDBRANCH   3  11
BRANCH   1  26
ATOM     26  C   UNL     1       0.404  11.358  18.654  0.00  0.00    +0.000 C 
BRANCH  26  30
ATOM     27  C   UNL     1       2.029   7.464  19.538  0.00  0.00    +0.000 A 
ATOM     28  C   UNL     1       1.395   8.220  20.538  0.00  0.00    +0.000 A 
ATOM     29  C   UNL     1       0.920   9.498  20.255  0.00  0.00    +0.000 A 
ATOM     30  C   UNL     1       1.056  10.042  18.977  0.00  0.00    +0.000 A 
ATOM     31  C   UNL     1       1.722   9.302  17.988  0.00  0.00    +0.000 A 
ATOM     32  C   UNL     1       2.201   8.023  18.271  0.00  0.00    +0.000 A 
BRANCH  27  34
ATOM     33  C   UNL     1       3.832   5.765  19.291  0.00  0.00    +0.000 C 
ATOM     34  C   UNL     1       2.429   6.041  19.810  0.00  0.00    +0.000 C 
ENDBRANCH  27  34
ENDBRANCH  26  30
ENDBRANCH   1  26
TORSDOF 9
ENDMDL
MODEL 9
REMARK VINA RESULT:      -7.0      5.232      8.288
REMARK  Name = 
REMARK  10 active torsions:
REMARK  status: ('A' for Active; 'I' for Inactive)
REMARK    1  A    between atoms: C_1  and  C_2
REMARK    2  A    between atoms: C_2  and  C_3
REMARK    3  A    between atoms: C_6  and  C_7
REMARK    4  A    between atoms: C_7  and  C_8
REMARK    5  A    between atoms: C_10  and  C_11
REMARK    6  A    between atoms: C_13  and  C_14
REMARK    7  A    between atoms: C_14  and  O_15
REMARK    8  A    between atoms: C_16  and  O_17
REMARK    9  A    between atoms: C_18  and  O_19
REMARK   10  A    between atoms: C_20  and  O_21
REMARK                            x       y       z     vdW  Elec       q    Type
REMARK                         _______ _______ _______ _____ _____    ______ ____
ROOT
ATOM      1  C   UNL     1      -0.924  11.360  18.889  0.00  0.00    +0.000 A 
ATOM      2  C   UNL     1      -1.204  12.295  19.918  0.00  0.00    +0.000 A 
ATOM      3  C   UNL     1      -2.513  12.700  20.244  0.00  0.00    +0.000 A 
ATOM      4  C   UNL     1      -3.483  12.295  19.343  0.00  0.00    +0.000 A 
ATOM      5  C   UNL     1      -3.238  11.302  18.403  0.00  0.00    +0.000 A 
ATOM      6  C   UNL     1      -1.991  10.751  18.218  0.00  0.00    +0.000 A 
ATOM      7 CL   UNL     1      -1.780   9.449  17.109  0.00  0.00    +0.000 Cl
ATOM      8  O   UNL     1      -4.347  11.024  17.654  0.00  0.00    +0.000 OA
ATOM      9  C   UNL     1      -5.081  12.230  17.903  0.00  0.00    +0.000 C 
ATOM     10  O   UNL     1      -4.742  12.802  19.185  0.00  0.00    +0.000 OA
ENDROOT
BRANCH   3  11
ATOM     11  C   UNL     1      -2.735  13.331  21.608  0.00  0.00    +0.000 C 
ATOM     12  O   UNL     1      -3.737  12.613  22.364  0.00  0.00    +0.000 OA
ATOM     13  C   UNL     1      -4.282  13.435  23.423  0.00  0.00    +0.000 C 
ATOM     14  C   UNL     1      -3.192  13.791  24.441  0.00  0.00    +0.000 C 
ATOM     15  C   UNL     1      -2.028  14.485  23.724  0.00  0.00    +0.000 C 
ATOM     16  C   UNL     1      -1.521  13.680  22.504  0.00  0.00    +0.000 C 
BRANCH  14  17
ATOM     17  O   UNL     1      -3.732  14.622  25.473  0.00  0.00    +0.000 OA
ATOM     18  H   UNL     1      -4.665  14.380  25.623  0.00  0.00    +0.000 HD
ENDBRANCH  14  17
BRANCH  15  19
ATOM     19  O   UNL     1      -0.972  14.766  24.648  0.00  0.00    +0.000 OA
ATOM     20  H   UNL     1      -0.408  15.463  24.269  0.00  0.00    +0.000 HD
ENDBRANCH  15  19
BRANCH  16  21
ATOM     21  O   UNL     1      -0.551  14.478  21.811  0.00  0.00    +0.000 OA
ATOM     22  H   UNL     1       0.102  14.817  22.447  0.00  0.00    +0.000 HD
ENDBRANCH  16  21
BRANCH  13  23
ATOM     23  C   UNL     1      -5.453  12.718  24.115  0.00  0.00    +0.000 C 
BRANCH  23  24
ATOM     24  O   UNL     1      -4.972  11.973  25.234  0.00  0.00    +0.000 OA
ATOM     25  H   UNL     1      -5.437  12.338  26.010  0.00  0.00    +0.000 HD
ENDBRANCH  23  24
ENDBRANCH  13  23
ENDBRANCH   3  11
BRANCH   1  26
ATOM     26  C   UNL     1       0.507  11.107  18.499  0.00  0.00    +0.000 C 
BRANCH  26  30
ATOM     27  C   UNL     1       2.293   7.288  19.398  0.00  0.00    +0.000 A 
ATOM     28  C   UNL     1       2.329   7.807  18.093  0.00  0.00    +0.000 A 
ATOM     29  C   UNL     1       1.704   9.017  17.802  0.00  0.00    +0.000 A 
ATOM     30  C   UNL     1       1.043   9.735  18.801  0.00  0.00    +0.000 A 
ATOM     31  C   UNL     1       0.975   9.199  20.095  0.00  0.00    +0.000 A 
ATOM     32  C   UNL     1       1.599   7.986  20.388  0.00  0.00    +0.000 A 
BRANCH  27  34
ATOM     33  C   UNL     1       2.203   5.052  20.489  0.00  0.00    +0.000 C 
ATOM     34  C   UNL     1       3.072   6.048  19.736  0.00  0.00    +0.000 C 
ENDBRANCH  27  34
ENDBRANCH  26  30
ENDBRANCH   1  26
TORSDOF 9
ENDMDL
