MODEL 1
REMARK VINA RESULT:      -9.5      0.000      0.000
REMARK  Name = 
REMARK  8 active torsions:
REMARK  status: ('A' for Active; 'I' for Inactive)
REMARK    1  A    between atoms: C_1  and  C_2
REMARK    2  A    between atoms: C_4  and  C_5
REMARK    3  A    between atoms: C_13  and  C_14
REMARK    4  A    between atoms: C_14  and  N_15
REMARK    5  A    between atoms: C_18  and  C_19
REMARK    6  A    between atoms: N_21  and  C_22
REMARK    7  A    between atoms: C_22  and  C_23
REMARK    8  A    between atoms: C_23  and  C_24
REMARK                            x       y       z     vdW  Elec       q    Type
REMARK                         _______ _______ _______ _____ _____    ______ ____
ROOT
ATOM      1  N   UNL     1       5.086   4.240  18.195  0.00  0.00    +0.000 NA
ATOM      2  C   UNL     1       5.928   4.415  17.002  0.00  0.00    +0.000 C 
ATOM      3  C   UNL     1       7.426   4.595  17.284  0.00  0.00    +0.000 C 
ATOM      4  C   UNL     1       7.749   5.638  18.351  0.00  0.00    +0.000 C 
ATOM      5  C   UNL     1       6.866   5.391  19.579  0.00  0.00    +0.000 C 
ATOM      6  C   UNL     1       5.380   5.225  19.251  0.00  0.00    +0.000 C 
ENDROOT
BRANCH   4   7
ATOM      7  C   UNL     1       7.727   7.105  17.886  0.00  0.00    +0.000 C 
ATOM      8  O   UNL     1       6.953   7.511  17.022  0.00  0.00    +0.000 OA
ATOM      9  N   UNL     1       8.569   7.966  18.576  0.00  0.00    +0.000 N 
ATOM     10  H   UNL     1       9.284   7.589  19.183  0.00  0.00    +0.000 HD
BRANCH   9  11
ATOM     11  C   UNL     1       8.512   9.410  18.340  0.00  0.00    +0.000 C 
BRANCH  11  12
ATOM     12  C   UNL     1       9.222  10.254  19.409  0.00  0.00    +0.000 C 
BRANCH  12  13
ATOM     13  C   UNL     1       9.711  11.587  18.869  0.00  0.00    +0.000 A 
ATOM     14  C   UNL     1       9.400  12.789  19.526  0.00  0.00    +0.000 A 
ATOM     15  C   UNL     1       9.846  14.014  19.017  0.00  0.00    +0.000 A 
ATOM     16  C   UNL     1      10.597  14.056  17.848  0.00  0.00    +0.000 A 
ATOM     17  C   UNL     1      10.919  12.865  17.188  0.00  0.00    +0.000 A 
ATOM     18  C   UNL     1      10.473  11.644  17.698  0.00  0.00    +0.000 A 
ENDBRANCH  12  13
ENDBRANCH  11  12
ENDBRANCH   9  11
ENDBRANCH   4   7
BRANCH   1  19
ATOM     19  C   UNL     1       3.647   4.364  17.834  0.00  0.00    +0.000 C 
BRANCH  19  25
ATOM     20  C   UNL     1       2.186   3.667  20.866  0.00  0.00    +0.000 C 
ATOM     21  C   UNL     1       2.307   4.869  20.027  0.00  0.00    +0.000 A 
ATOM     22  O   UNL     1       1.774   6.003  20.561  0.00  0.00    +0.000 OA
ATOM     23  C   UNL     1       2.023   6.977  19.640  0.00  0.00    +0.000 A 
ATOM     24  N   UNL     1       2.624   6.540  18.549  0.00  0.00    +0.000 NA
ATOM     25  C   UNL     1       2.849   5.192  18.798  0.00  0.00    +0.000 A 
BRANCH  23  26
ATOM     26  C   UNL     1       1.543   8.300  19.992  0.00  0.00    +0.000 A 
ATOM     27  C   UNL     1       1.270   8.623  21.329  0.00  0.00    +0.000 A 
ATOM     28  C   UNL     1       0.845   9.909  21.675  0.00  0.00    +0.000 A 
ATOM     29  C   UNL     1       0.675  10.883  20.690  0.00  0.00    +0.000 A 
ATOM     30  C   UNL     1       0.930  10.571  19.356  0.00  0.00    +0.000 A 
ATOM     31  C   UNL     1       1.358   9.290  19.018  0.00  0.00    +0.000 A 
ATOM     32  F   UNL     1       1.577   9.028  17.720  0.00  0.00    +0.000 F 
ENDBRANCH  23  26
ENDBRANCH  19  25
ENDBRANCH   1  19
TORSDOF 7
ENDMDL
MODEL 2
REMARK VINA RESULT:      -9.1      1.037      1.536
REMARK  Name = 
REMARK  8 active torsions:
REMARK  status: ('A' for Active; 'I' for Inactive)
REMARK    1  A    between atoms: C_1  and  C_2
REMARK    2  A    between atoms: C_4  and  C_5
REMARK    3  A    between atoms: C_13  and  C_14
REMARK    4  A    between atoms: C_14  and  N_15
REMARK    5  A    between atoms: C_18  and  C_19
REMARK    6  A    between atoms: N_21  and  C_22
REMARK    7  A    between atoms: C_22  and  C_23
REMARK    8  A    between atoms: C_23  and  C_24
REMARK                            x       y       z     vdW  Elec       q    Type
REMARK                         _______ _______ _______ _____ _____    ______ ____
ROOT
ATOM      1  N   UNL     1       4.767   4.372  18.049  0.00  0.00    +0.000 NA
ATOM      2  C   UNL     1       5.618   4.445  16.852  0.00  0.00    +0.000 C 
ATOM      3  C   UNL     1       7.127   4.483  17.128  0.00  0.00    +0.000 C 
ATOM      4  C   UNL     1       7.554   5.507  18.177  0.00  0.00    +0.000 C 
ATOM      5  C   UNL     1       6.656   5.367  19.411  0.00  0.00    +0.000 C 
ATOM      6  C   UNL     1       5.159   5.341  19.089  0.00  0.00    +0.000 C 
ENDROOT
BRANCH   4   7
ATOM      7  C   UNL     1       7.673   6.961  17.688  0.00  0.00    +0.000 C 
ATOM      8  O   UNL     1       7.147   7.352  16.648  0.00  0.00    +0.000 OA
ATOM      9  N   UNL     1       8.329   7.832  18.546  0.00  0.00    +0.000 N 
ATOM     10  H   UNL     1       8.863   7.464  19.322  0.00  0.00    +0.000 HD
BRANCH   9  11
ATOM     11  C   UNL     1       8.356   9.270  18.271  0.00  0.00    +0.000 C 
BRANCH  11  12
ATOM     12  C   UNL     1       9.293  10.072  19.186  0.00  0.00    +0.000 C 
BRANCH  12  13
ATOM     13  C   UNL     1       9.864  11.302  18.502  0.00  0.00    +0.000 A 
ATOM     14  C   UNL     1      11.208  11.342  18.095  0.00  0.00    +0.000 A 
ATOM     15  C   UNL     1      11.729  12.483  17.474  0.00  0.00    +0.000 A 
ATOM     16  C   UNL     1      10.923  13.595  17.259  0.00  0.00    +0.000 A 
ATOM     17  C   UNL     1       9.581  13.565  17.655  0.00  0.00    +0.000 A 
ATOM     18  C   UNL     1       9.063  12.425  18.274  0.00  0.00    +0.000 A 
ENDBRANCH  12  13
ENDBRANCH  11  12
ENDBRANCH   9  11
ENDBRANCH   4   7
BRANCH   1  19
ATOM     19  C   UNL     1       3.346   4.630  17.690  0.00  0.00    +0.000 C 
BRANCH  19  25
ATOM     20  C   UNL     1       2.306   4.692  20.965  0.00  0.00    +0.000 C 
ATOM     21  C   UNL     1       2.316   5.666  19.864  0.00  0.00    +0.000 A 
ATOM     22  O   UNL     1       1.863   6.910  20.186  0.00  0.00    +0.000 OA
ATOM     23  C   UNL     1       1.988   7.639  19.041  0.00  0.00    +0.000 A 
ATOM     24  N   UNL     1       2.435   6.945  18.011  0.00  0.00    +0.000 NA
ATOM     25  C   UNL     1       2.688   5.681  18.532  0.00  0.00    +0.000 A 
BRANCH  23  26
ATOM     26  C   UNL     1       1.564   9.023  19.138  0.00  0.00    +0.000 A 
ATOM     27  C   UNL     1       2.090   9.988  18.267  0.00  0.00    +0.000 A 
ATOM     28  C   UNL     1       1.653  11.315  18.334  0.00  0.00    +0.000 A 
ATOM     29  C   UNL     1       0.698  11.695  19.278  0.00  0.00    +0.000 A 
ATOM     30  C   UNL     1       0.178  10.749  20.158  0.00  0.00    +0.000 A 
ATOM     31  C   UNL     1       0.613   9.428  20.084  0.00  0.00    +0.000 A 
ATOM     32  F   UNL     1       0.097   8.552  20.961  0.00  0.00    +0.000 F 
ENDBRANCH  23  26
ENDBRANCH  19  25
ENDBRANCH   1  19
TORSDOF 7
ENDMDL
MODEL 3
REMARK VINA RESULT:      -9.0      1.141      1.735
REMARK  Name = 
REMARK  8 active torsions:
REMARK  status: ('A' for Active; 'I' for Inactive)
REMARK    1  A    between atoms: C_1  and  C_2
REMARK    2  A    between atoms: C_4  and  C_5
REMARK    3  A    between atoms: C_13  and  C_14
REMARK    4  A    between atoms: C_14  and  N_15
REMARK    5  A    between atoms: C_18  and  C_19
REMARK    6  A    between atoms: N_21  and  C_22
REMARK    7  A    between atoms: C_22  and  C_23
REMARK    8  A    between atoms: C_23  and  C_24
REMARK                            x       y       z     vdW  Elec       q    Type
REMARK                         _______ _______ _______ _____ _____    ______ ____
ROOT
ATOM      1  N   UNL     1       5.006   4.348  18.553  0.00  0.00    +0.000 NA
ATOM      2  C   UNL     1       5.647   4.428  17.232  0.00  0.00    +0.000 C 
ATOM      3  C   UNL     1       7.180   4.501  17.256  0.00  0.00    +0.000 C 
ATOM      4  C   UNL     1       7.749   5.544  18.214  0.00  0.00    +0.000 C 
ATOM      5  C   UNL     1       7.069   5.398  19.580  0.00  0.00    +0.000 C 
ATOM      6  C   UNL     1       5.541   5.336  19.508  0.00  0.00    +0.000 C 
ENDROOT
BRANCH   4   7
ATOM      7  C   UNL     1       7.754   6.996  17.703  0.00  0.00    +0.000 C 
ATOM      8  O   UNL     1       7.130   7.344  16.703  0.00  0.00    +0.000 OA
ATOM      9  N   UNL     1       8.426   7.911  18.500  0.00  0.00    +0.000 N 
ATOM     10  H   UNL     1       9.037   7.582  19.236  0.00  0.00    +0.000 HD
BRANCH   9  11
ATOM     11  C   UNL     1       8.356   9.345  18.209  0.00  0.00    +0.000 C 
BRANCH  11  12
ATOM     12  C   UNL     1       9.147  10.228  19.185  0.00  0.00    +0.000 C 
BRANCH  12  13
ATOM     13  C   UNL     1       9.682  11.489  18.528  0.00  0.00    +0.000 A 
ATOM     14  C   UNL     1      10.901  11.475  17.830  0.00  0.00    +0.000 A 
ATOM     15  C   UNL     1      11.392  12.644  17.235  0.00  0.00    +0.000 A 
ATOM     16  C   UNL     1      10.682  13.835  17.337  0.00  0.00    +0.000 A 
ATOM     17  C   UNL     1       9.464  13.859  18.025  0.00  0.00    +0.000 A 
ATOM     18  C   UNL     1       8.975  12.692  18.617  0.00  0.00    +0.000 A 
ENDBRANCH  12  13
ENDBRANCH  11  12
ENDBRANCH   9  11
ENDBRANCH   4   7
BRANCH   1  19
ATOM     19  C   UNL     1       3.539   4.572  18.430  0.00  0.00    +0.000 C 
BRANCH  19  25
ATOM     20  C   UNL     1       4.006   7.449  16.608  0.00  0.00    +0.000 C 
ATOM     21  C   UNL     1       3.311   7.119  17.862  0.00  0.00    +0.000 A 
ATOM     22  O   UNL     1       2.641   8.153  18.443  0.00  0.00    +0.000 OA
ATOM     23  C   UNL     1       2.061   7.618  19.554  0.00  0.00    +0.000 A 
ATOM     24  N   UNL     1       2.350   6.344  19.748  0.00  0.00    +0.000 NA
ATOM     25  C   UNL     1       3.123   5.997  18.646  0.00  0.00    +0.000 A 
BRANCH  23  26
ATOM     26  C   UNL     1       1.277   8.543  20.350  0.00  0.00    +0.000 A 
ATOM     27  C   UNL     1       1.300   8.469  21.750  0.00  0.00    +0.000 A 
ATOM     28  C   UNL     1       0.576   9.384  22.520  0.00  0.00    +0.000 A 
ATOM     29  C   UNL     1      -0.189  10.374  21.902  0.00  0.00    +0.000 A 
ATOM     30  C   UNL     1      -0.231  10.450  20.512  0.00  0.00    +0.000 A 
ATOM     31  C   UNL     1       0.497   9.539  19.750  0.00  0.00    +0.000 A 
ATOM     32  F   UNL     1       0.415   9.639  18.413  0.00  0.00    +0.000 F 
ENDBRANCH  23  26
ENDBRANCH  19  25
ENDBRANCH   1  19
TORSDOF 7
ENDMDL
MODEL 4
REMARK VINA RESULT:      -8.9      1.120      1.425
REMARK  Name = 
REMARK  8 active torsions:
REMARK  status: ('A' for Active; 'I' for Inactive)
REMARK    1  A    between atoms: C_1  and  C_2
REMARK    2  A    between atoms: C_4  and  C_5
REMARK    3  A    between atoms: C_13  and  C_14
REMARK    4  A    between atoms: C_14  and  N_15
REMARK    5  A    between atoms: C_18  and  C_19
REMARK    6  A    between atoms: N_21  and  C_22
REMARK    7  A    between atoms: C_22  and  C_23
REMARK    8  A    between atoms: C_23  and  C_24
REMARK                            x       y       z     vdW  Elec       q    Type
REMARK                         _______ _______ _______ _____ _____    ______ ____
ROOT
ATOM      1  N   UNL     1       5.232   3.775  18.404  0.00  0.00    +0.000 NA
ATOM      2  C   UNL     1       4.443   4.585  17.464  0.00  0.00    +0.000 C 
ATOM      3  C   UNL     1       5.213   5.093  16.238  0.00  0.00    +0.000 C 
ATOM      4  C   UNL     1       6.548   5.760  16.560  0.00  0.00    +0.000 C 
ATOM      5  C   UNL     1       7.340   4.862  17.517  0.00  0.00    +0.000 C 
ATOM      6  C   UNL     1       6.535   4.385  18.728  0.00  0.00    +0.000 C 
ENDROOT
BRANCH   4   7
ATOM      7  C   UNL     1       6.474   7.221  17.037  0.00  0.00    +0.000 C 
ATOM      8  O   UNL     1       5.414   7.758  17.350  0.00  0.00    +0.000 OA
ATOM      9  N   UNL     1       7.693   7.866  17.190  0.00  0.00    +0.000 N 
ATOM     10  H   UNL     1       8.531   7.452  16.804  0.00  0.00    +0.000 HD
BRANCH   9  11
ATOM     11  C   UNL     1       7.760   9.196  17.798  0.00  0.00    +0.000 C 
BRANCH  11  12
ATOM     12  C   UNL     1       8.883   9.363  18.833  0.00  0.00    +0.000 C 
BRANCH  12  13
ATOM     13  C   UNL     1       9.440  10.776  18.866  0.00  0.00    +0.000 A 
ATOM     14  C   UNL     1      10.343  11.171  19.867  0.00  0.00    +0.000 A 
ATOM     15  C   UNL     1      10.844  12.478  19.896  0.00  0.00    +0.000 A 
ATOM     16  C   UNL     1      10.447  13.403  18.937  0.00  0.00    +0.000 A 
ATOM     17  C   UNL     1       9.554  13.019  17.931  0.00  0.00    +0.000 A 
ATOM     18  C   UNL     1       9.055  11.715  17.904  0.00  0.00    +0.000 A 
ENDBRANCH  12  13
ENDBRANCH  11  12
ENDBRANCH   9  11
ENDBRANCH   4   7
BRANCH   1  19
ATOM     19  C   UNL     1       4.483   3.582  19.676  0.00  0.00    +0.000 C 
BRANCH  19  25
ATOM     20  C   UNL     1       1.311   3.164  20.932  0.00  0.00    +0.000 C 
ATOM     21  C   UNL     1       2.066   4.302  20.385  0.00  0.00    +0.000 A 
ATOM     22  O   UNL     1       1.413   5.497  20.410  0.00  0.00    +0.000 OA
ATOM     23  C   UNL     1       2.298   6.394  19.890  0.00  0.00    +0.000 A 
ATOM     24  N   UNL     1       3.437   5.854  19.496  0.00  0.00    +0.000 NA
ATOM     25  C   UNL     1       3.320   4.514  19.842  0.00  0.00    +0.000 A 
BRANCH  23  26
ATOM     26  C   UNL     1       1.822   7.762  19.816  0.00  0.00    +0.000 A 
ATOM     27  C   UNL     1       1.267   8.383  20.944  0.00  0.00    +0.000 A 
ATOM     28  C   UNL     1       0.844   9.714  20.884  0.00  0.00    +0.000 A 
ATOM     29  C   UNL     1       0.956  10.435  19.695  0.00  0.00    +0.000 A 
ATOM     30  C   UNL     1       1.492   9.826  18.563  0.00  0.00    +0.000 A 
ATOM     31  C   UNL     1       1.917   8.501  18.630  0.00  0.00    +0.000 A 
ATOM     32  F   UNL     1       2.413   7.949  17.511  0.00  0.00    +0.000 F 
ENDBRANCH  23  26
ENDBRANCH  19  25
ENDBRANCH   1  19
TORSDOF 7
ENDMDL
MODEL 5
REMARK VINA RESULT:      -8.8      1.126      1.729
REMARK  Name = 
REMARK  8 active torsions:
REMARK  status: ('A' for Active; 'I' for Inactive)
REMARK    1  A    between atoms: C_1  and  C_2
REMARK    2  A    between atoms: C_4  and  C_5
REMARK    3  A    between atoms: C_13  and  C_14
REMARK    4  A    between atoms: C_14  and  N_15
REMARK    5  A    between atoms: C_18  and  C_19
REMARK    6  A    between atoms: N_21  and  C_22
REMARK    7  A    between atoms: C_22  and  C_23
REMARK    8  A    between atoms: C_23  and  C_24
REMARK                            x       y       z     vdW  Elec       q    Type
REMARK                         _______ _______ _______ _____ _____    ______ ____
ROOT
ATOM      1  N   UNL     1       5.140   4.153  18.205  0.00  0.00    +0.000 NA
ATOM      2  C   UNL     1       5.887   4.376  16.958  0.00  0.00    +0.000 C 
ATOM      3  C   UNL     1       7.382   4.671  17.140  0.00  0.00    +0.000 C 
ATOM      4  C   UNL     1       7.693   5.749  18.176  0.00  0.00    +0.000 C 
ATOM      5  C   UNL     1       6.913   5.453  19.461  0.00  0.00    +0.000 C 
ATOM      6  C   UNL     1       5.426   5.171  19.232  0.00  0.00    +0.000 C 
ENDROOT
BRANCH   4   7
ATOM      7  C   UNL     1       7.531   7.205  17.702  0.00  0.00    +0.000 C 
ATOM      8  O   UNL     1       6.678   7.539  16.882  0.00  0.00    +0.000 OA
ATOM      9  N   UNL     1       8.342   8.136  18.334  0.00  0.00    +0.000 N 
ATOM     10  H   UNL     1       9.119   7.822  18.900  0.00  0.00    +0.000 HD
BRANCH   9  11
ATOM     11  C   UNL     1       8.160   9.569  18.091  0.00  0.00    +0.000 C 
BRANCH  11  12
ATOM     12  C   UNL     1       9.451  10.394  18.178  0.00  0.00    +0.000 C 
BRANCH  12  13
ATOM     13  C   UNL     1       9.369  11.499  19.218  0.00  0.00    +0.000 A 
ATOM     14  C   UNL     1       9.076  12.820  18.844  0.00  0.00    +0.000 A 
ATOM     15  C   UNL     1       9.011  13.834  19.808  0.00  0.00    +0.000 A 
ATOM     16  C   UNL     1       9.244  13.544  21.147  0.00  0.00    +0.000 A 
ATOM     17  C   UNL     1       9.531  12.230  21.533  0.00  0.00    +0.000 A 
ATOM     18  C   UNL     1       9.594  11.221  20.570  0.00  0.00    +0.000 A 
ENDBRANCH  12  13
ENDBRANCH  11  12
ENDBRANCH   9  11
ENDBRANCH   4   7
BRANCH   1  19
ATOM     19  C   UNL     1       3.675   4.165  17.938  0.00  0.00    +0.000 C 
BRANCH  19  25
ATOM     20  C   UNL     1       2.284   4.017  21.078  0.00  0.00    +0.000 C 
ATOM     21  C   UNL     1       2.401   5.058  20.045  0.00  0.00    +0.000 A 
ATOM     22  O   UNL     1       1.899   6.276  20.391  0.00  0.00    +0.000 OA
ATOM     23  C   UNL     1       2.137   7.075  19.314  0.00  0.00    +0.000 A 
ATOM     24  N   UNL     1       2.704   6.449  18.298  0.00  0.00    +0.000 NA
ATOM     25  C   UNL     1       2.915   5.158  18.766  0.00  0.00    +0.000 A 
BRANCH  23  26
ATOM     26  C   UNL     1       1.687   8.447  19.448  0.00  0.00    +0.000 A 
ATOM     27  C   UNL     1       1.700   9.309  18.341  0.00  0.00    +0.000 A 
ATOM     28  C   UNL     1       1.229  10.620  18.460  0.00  0.00    +0.000 A 
ATOM     29  C   UNL     1       0.754  11.090  19.685  0.00  0.00    +0.000 A 
ATOM     30  C   UNL     1       0.749  10.248  20.795  0.00  0.00    +0.000 A 
ATOM     31  C   UNL     1       1.213   8.941  20.670  0.00  0.00    +0.000 A 
ATOM     32  F   UNL     1       1.205   8.169  21.768  0.00  0.00    +0.000 F 
ENDBRANCH  23  26
ENDBRANCH  19  25
ENDBRANCH   1  19
TORSDOF 7
ENDMDL
MODEL 6
REMARK VINA RESULT:      -8.8      1.312      1.705
REMARK  Name = 
REMARK  8 active torsions:
REMARK  status: ('A' for Active; 'I' for Inactive)
REMARK    1  A    between atoms: C_1  and  C_2
REMARK    2  A    between atoms: C_4  and  C_5
REMARK    3  A    between atoms: C_13  and  C_14
REMARK    4  A    between atoms: C_14  and  N_15
REMARK    5  A    between atoms: C_18  and  C_19
REMARK    6  A    between atoms: N_21  and  C_22
REMARK    7  A    between atoms: C_22  and  C_23
REMARK    8  A    between atoms: C_23  and  C_24
REMARK                            x       y       z     vdW  Elec       q    Type
REMARK                         _______ _______ _______ _____ _____    ______ ____
ROOT
ATOM      1  N   UNL     1       5.651   3.990  18.753  0.00  0.00    +0.000 NA
ATOM      2  C   UNL     1       5.441   4.423  17.363  0.00  0.00    +0.000 C 
ATOM      3  C   UNL     1       6.720   4.763  16.588  0.00  0.00    +0.000 C 
ATOM      4  C   UNL     1       7.676   5.701  17.323  0.00  0.00    +0.000 C 
ATOM      5  C   UNL     1       7.881   5.189  18.753  0.00  0.00    +0.000 C 
ATOM      6  C   UNL     1       6.579   4.868  19.490  0.00  0.00    +0.000 C 
ENDROOT
BRANCH   4   7
ATOM      7  C   UNL     1       7.323   7.198  17.271  0.00  0.00    +0.000 C 
ATOM      8  O   UNL     1       6.225   7.603  16.897  0.00  0.00    +0.000 OA
ATOM      9  N   UNL     1       8.289   8.060  17.768  0.00  0.00    +0.000 N 
ATOM     10  H   UNL     1       9.225   7.718  17.943  0.00  0.00    +0.000 HD
BRANCH   9  11
ATOM     11  C   UNL     1       8.003   9.487  17.929  0.00  0.00    +0.000 C 
BRANCH  11  12
ATOM     12  C   UNL     1       8.884  10.197  18.966  0.00  0.00    +0.000 C 
BRANCH  12  13
ATOM     13  C   UNL     1       9.636  11.381  18.380  0.00  0.00    +0.000 A 
ATOM     14  C   UNL     1       8.957  12.551  18.005  0.00  0.00    +0.000 A 
ATOM     15  C   UNL     1       9.655  13.634  17.457  0.00  0.00    +0.000 A 
ATOM     16  C   UNL     1      11.031  13.559  17.270  0.00  0.00    +0.000 A 
ATOM     17  C   UNL     1      11.719  12.400  17.646  0.00  0.00    +0.000 A 
ATOM     18  C   UNL     1      11.020  11.322  18.193  0.00  0.00    +0.000 A 
ENDBRANCH  12  13
ENDBRANCH  11  12
ENDBRANCH   9  11
ENDBRANCH   4   7
BRANCH   1  19
ATOM     19  C   UNL     1       4.356   3.966  19.488  0.00  0.00    +0.000 C 
BRANCH  19  25
ATOM     20  C   UNL     1       1.615   3.816  17.419  0.00  0.00    +0.000 C 
ATOM     21  C   UNL     1       2.262   4.877  18.205  0.00  0.00    +0.000 A 
ATOM     22  O   UNL     1       1.633   6.085  18.175  0.00  0.00    +0.000 OA
ATOM     23  C   UNL     1       2.379   6.892  18.982  0.00  0.00    +0.000 A 
ATOM     24  N   UNL     1       3.454   6.306  19.478  0.00  0.00    +0.000 NA
ATOM     25  C   UNL     1       3.373   4.997  19.019  0.00  0.00    +0.000 A 
BRANCH  23  26
ATOM     26  C   UNL     1       1.897   8.254  19.113  0.00  0.00    +0.000 A 
ATOM     27  C   UNL     1       1.987   9.145  18.033  0.00  0.00    +0.000 A 
ATOM     28  C   UNL     1       1.488  10.446  18.145  0.00  0.00    +0.000 A 
ATOM     29  C   UNL     1       0.906  10.876  19.339  0.00  0.00    +0.000 A 
ATOM     30  C   UNL     1       0.824  10.006  20.423  0.00  0.00    +0.000 A 
ATOM     31  C   UNL     1       1.318   8.709  20.304  0.00  0.00    +0.000 A 
ATOM     32  F   UNL     1       1.232   7.908  21.378  0.00  0.00    +0.000 F 
ENDBRANCH  23  26
ENDBRANCH  19  25
ENDBRANCH   1  19
TORSDOF 7
ENDMDL
MODEL 7
REMARK VINA RESULT:      -8.7      1.275      1.676
REMARK  Name = 
REMARK  8 active torsions:
REMARK  status: ('A' for Active; 'I' for Inactive)
REMARK    1  A    between atoms: C_1  and  C_2
REMARK    2  A    between atoms: C_4  and  C_5
REMARK    3  A    between atoms: C_13  and  C_14
REMARK    4  A    between atoms: C_14  and  N_15
REMARK    5  A    between atoms: C_18  and  C_19
REMARK    6  A    between atoms: N_21  and  C_22
REMARK    7  A    between atoms: C_22  and  C_23
REMARK    8  A    between atoms: C_23  and  C_24
REMARK                            x       y       z     vdW  Elec       q    Type
REMARK                         _______ _______ _______ _____ _____    ______ ____
ROOT
ATOM      1  N   UNL     1       5.481   3.893  18.366  0.00  0.00    +0.000 NA
ATOM      2  C   UNL     1       6.198   4.139  17.105  0.00  0.00    +0.000 C 
ATOM      3  C   UNL     1       7.651   4.604  17.263  0.00  0.00    +0.000 C 
ATOM      4  C   UNL     1       7.844   5.757  18.246  0.00  0.00    +0.000 C 
ATOM      5  C   UNL     1       7.103   5.436  19.548  0.00  0.00    +0.000 C 
ATOM      6  C   UNL     1       5.656   4.983  19.343  0.00  0.00    +0.000 C 
ENDROOT
BRANCH   4   7
ATOM      7  C   UNL     1       7.522   7.162  17.707  0.00  0.00    +0.000 C 
ATOM      8  O   UNL     1       6.619   7.366  16.899  0.00  0.00    +0.000 OA
ATOM      9  N   UNL     1       8.250   8.201  18.267  0.00  0.00    +0.000 N 
ATOM     10  H   UNL     1       9.069   7.997  18.824  0.00  0.00    +0.000 HD
BRANCH   9  11
ATOM     11  C   UNL     1       7.917   9.594  17.960  0.00  0.00    +0.000 C 
BRANCH  11  12
ATOM     12  C   UNL     1       9.102  10.434  17.464  0.00  0.00    +0.000 C 
BRANCH  12  13
ATOM     13  C   UNL     1       9.914  11.027  18.604  0.00  0.00    +0.000 A 
ATOM     14  C   UNL     1       9.353  11.185  19.882  0.00  0.00    +0.000 A 
ATOM     15  C   UNL     1      10.105  11.740  20.924  0.00  0.00    +0.000 A 
ATOM     16  C   UNL     1      11.415  12.151  20.703  0.00  0.00    +0.000 A 
ATOM     17  C   UNL     1      11.986  11.993  19.435  0.00  0.00    +0.000 A 
ATOM     18  C   UNL     1      11.235  11.438  18.398  0.00  0.00    +0.000 A 
ENDBRANCH  12  13
ENDBRANCH  11  12
ENDBRANCH   9  11
ENDBRANCH   4   7
BRANCH   1  19
ATOM     19  C   UNL     1       4.023   3.732  18.109  0.00  0.00    +0.000 C 
BRANCH  19  25
ATOM     20  C   UNL     1       2.326   3.659  21.097  0.00  0.00    +0.000 C 
ATOM     21  C   UNL     1       2.528   4.668  20.045  0.00  0.00    +0.000 A 
ATOM     22  O   UNL     1       1.973   5.886  20.296  0.00  0.00    +0.000 OA
ATOM     23  C   UNL     1       2.305   6.654  19.220  0.00  0.00    +0.000 A 
ATOM     24  N   UNL     1       2.982   6.006  18.289  0.00  0.00    +0.000 NA
ATOM     25  C   UNL     1       3.167   4.736  18.821  0.00  0.00    +0.000 A 
BRANCH  23  26
ATOM     26  C   UNL     1       1.819   8.020  19.260  0.00  0.00    +0.000 A 
ATOM     27  C   UNL     1       1.801   8.800  18.095  0.00  0.00    +0.000 A 
ATOM     28  C   UNL     1       1.297  10.104  18.124  0.00  0.00    +0.000 A 
ATOM     29  C   UNL     1       0.819  10.648  19.317  0.00  0.00    +0.000 A 
ATOM     30  C   UNL     1       0.845   9.889  20.484  0.00  0.00    +0.000 A 
ATOM     31  C   UNL     1       1.343   8.588  20.449  0.00  0.00    +0.000 A 
ATOM     32  F   UNL     1       1.363   7.897  21.599  0.00  0.00    +0.000 F 
ENDBRANCH  23  26
ENDBRANCH  19  25
ENDBRANCH   1  19
TORSDOF 7
ENDMDL
MODEL 8
REMARK VINA RESULT:      -8.7      3.801      5.673
REMARK  Name = 
REMARK  8 active torsions:
REMARK  status: ('A' for Active; 'I' for Inactive)
REMARK    1  A    between atoms: C_1  and  C_2
REMARK    2  A    between atoms: C_4  and  C_5
REMARK    3  A    between atoms: C_13  and  C_14
REMARK    4  A    between atoms: C_14  and  N_15
REMARK    5  A    between atoms: C_18  and  C_19
REMARK    6  A    between atoms: N_21  and  C_22
REMARK    7  A    between atoms: C_22  and  C_23
REMARK    8  A    between atoms: C_23  and  C_24
REMARK                            x       y       z     vdW  Elec       q    Type
REMARK                         _______ _______ _______ _____ _____    ______ ____
ROOT
ATOM      1  N   UNL     1       1.860   5.429  19.730  0.00  0.00    +0.000 NA
ATOM      2  C   UNL     1       1.971   5.368  18.265  0.00  0.00    +0.000 C 
ATOM      3  C   UNL     1       1.469   4.066  17.628  0.00  0.00    +0.000 C 
ATOM      4  C   UNL     1       2.008   2.794  18.279  0.00  0.00    +0.000 C 
ATOM      5  C   UNL     1       1.842   2.898  19.799  0.00  0.00    +0.000 C 
ATOM      6  C   UNL     1       2.362   4.209  20.391  0.00  0.00    +0.000 C 
ENDROOT
BRANCH   4   7
ATOM      7  C   UNL     1       3.429   2.374  17.862  0.00  0.00    +0.000 C 
ATOM      8  O   UNL     1       3.904   1.279  18.154  0.00  0.00    +0.000 OA
ATOM      9  N   UNL     1       4.104   3.271  17.047  0.00  0.00    +0.000 N 
ATOM     10  H   UNL     1       3.749   4.211  16.932  0.00  0.00    +0.000 HD
BRANCH   9  11
ATOM     11  C   UNL     1       5.391   2.909  16.448  0.00  0.00    +0.000 C 
BRANCH  11  12
ATOM     12  C   UNL     1       6.109   4.069  15.743  0.00  0.00    +0.000 C 
BRANCH  12  13
ATOM     13  C   UNL     1       6.731   5.050  16.722  0.00  0.00    +0.000 A 
ATOM     14  C   UNL     1       7.461   4.595  17.832  0.00  0.00    +0.000 A 
ATOM     15  C   UNL     1       8.024   5.506  18.734  0.00  0.00    +0.000 A 
ATOM     16  C   UNL     1       7.858   6.873  18.545  0.00  0.00    +0.000 A 
ATOM     17  C   UNL     1       7.138   7.339  17.439  0.00  0.00    +0.000 A 
ATOM     18  C   UNL     1       6.579   6.428  16.540  0.00  0.00    +0.000 A 
ENDBRANCH  12  13
ENDBRANCH  11  12
ENDBRANCH   9  11
ENDBRANCH   4   7
BRANCH   1  19
ATOM     19  C   UNL     1       2.627   6.590  20.260  0.00  0.00    +0.000 C 
BRANCH  19  25
ATOM     20  C   UNL     1       2.321   8.861  17.698  0.00  0.00    +0.000 C 
ATOM     21  C   UNL     1       1.790   8.766  19.066  0.00  0.00    +0.000 A 
ATOM     22  O   UNL     1       0.933   9.762  19.425  0.00  0.00    +0.000 OA
ATOM     23  C   UNL     1       0.552   9.458  20.698  0.00  0.00    +0.000 A 
ATOM     24  N   UNL     1       1.136   8.380  21.188  0.00  0.00    +0.000 NA
ATOM     25  C   UNL     1       1.907   7.899  20.137  0.00  0.00    +0.000 A 
BRANCH  23  26
ATOM     26  C   UNL     1      -0.380  10.390  21.305  0.00  0.00    +0.000 A 
ATOM     27  C   UNL     1      -1.084  11.307  20.512  0.00  0.00    +0.000 A 
ATOM     28  C   UNL     1      -2.011  12.179  21.091  0.00  0.00    +0.000 A 
ATOM     29  C   UNL     1      -2.235  12.154  22.468  0.00  0.00    +0.000 A 
ATOM     30  C   UNL     1      -1.532  11.258  23.269  0.00  0.00    +0.000 A 
ATOM     31  C   UNL     1      -0.614  10.387  22.686  0.00  0.00    +0.000 A 
ATOM     32  F   UNL     1       0.053   9.550  23.497  0.00  0.00    +0.000 F 
ENDBRANCH  23  26
ENDBRANCH  19  25
ENDBRANCH   1  19
TORSDOF 7
ENDMDL
MODEL 9
REMARK VINA RESULT:      -8.6      1.076      1.232
REMARK  Name = 
REMARK  8 active torsions:
REMARK  status: ('A' for Active; 'I' for Inactive)
REMARK    1  A    between atoms: C_1  and  C_2
REMARK    2  A    between atoms: C_4  and  C_5
REMARK    3  A    between atoms: C_13  and  C_14
REMARK    4  A    between atoms: C_14  and  N_15
REMARK    5  A    between atoms: C_18  and  C_19
REMARK    6  A    between atoms: N_21  and  C_22
REMARK    7  A    between atoms: C_22  and  C_23
REMARK    8  A    between atoms: C_23  and  C_24
REMARK                            x       y       z     vdW  Elec       q    Type
REMARK                         _______ _______ _______ _____ _____    ______ ____
ROOT
ATOM      1  N   UNL     1       5.635   3.878  18.715  0.00  0.00    +0.000 NA
ATOM      2  C   UNL     1       5.256   4.351  17.375  0.00  0.00    +0.000 C 
ATOM      3  C   UNL     1       6.430   4.677  16.444  0.00  0.00    +0.000 C 
ATOM      4  C   UNL     1       7.503   5.569  17.066  0.00  0.00    +0.000 C 
ATOM      5  C   UNL     1       7.880   5.016  18.444  0.00  0.00    +0.000 C 
ATOM      6  C   UNL     1       6.678   4.711  19.341  0.00  0.00    +0.000 C 
ENDROOT
BRANCH   4   7
ATOM      7  C   UNL     1       7.191   7.076  17.093  0.00  0.00    +0.000 C 
ATOM      8  O   UNL     1       6.106   7.531  16.738  0.00  0.00    +0.000 OA
ATOM      9  N   UNL     1       8.178   7.883  17.641  0.00  0.00    +0.000 N 
ATOM     10  H   UNL     1       9.103   7.507  17.800  0.00  0.00    +0.000 HD
BRANCH   9  11
ATOM     11  C   UNL     1       7.929   9.307  17.877  0.00  0.00    +0.000 C 
BRANCH  11  12
ATOM     12  C   UNL     1       8.897   9.962  18.873  0.00  0.00    +0.000 C 
BRANCH  12  13
ATOM     13  C   UNL     1       9.484  11.261  18.348  0.00  0.00    +0.000 A 
ATOM     14  C   UNL     1       8.733  12.448  18.362  0.00  0.00    +0.000 A 
ATOM     15  C   UNL     1       9.278  13.639  17.868  0.00  0.00    +0.000 A 
ATOM     16  C   UNL     1      10.567  13.659  17.348  0.00  0.00    +0.000 A 
ATOM     17  C   UNL     1      11.327  12.483  17.334  0.00  0.00    +0.000 A 
ATOM     18  C   UNL     1      10.782  11.297  17.829  0.00  0.00    +0.000 A 
ENDBRANCH  12  13
ENDBRANCH  11  12
ENDBRANCH   9  11
ENDBRANCH   4   7
BRANCH   1  19
ATOM     19  C   UNL     1       4.448   3.869  19.615  0.00  0.00    +0.000 C 
BRANCH  19  25
ATOM     20  C   UNL     1       1.510   3.565  17.858  0.00  0.00    +0.000 C 
ATOM     21  C   UNL     1       2.198   4.671  18.541  0.00  0.00    +0.000 A 
ATOM     22  O   UNL     1       1.527   5.857  18.545  0.00  0.00    +0.000 OA
ATOM     23  C   UNL     1       2.326   6.712  19.243  0.00  0.00    +0.000 A 
ATOM     24  N   UNL     1       3.467   6.177  19.637  0.00  0.00    +0.000 NA
ATOM     25  C   UNL     1       3.385   4.852  19.226  0.00  0.00    +0.000 A 
BRANCH  23  26
ATOM     26  C   UNL     1       1.812   8.061  19.387  0.00  0.00    +0.000 A 
ATOM     27  C   UNL     1       1.242   8.477  20.599  0.00  0.00    +0.000 A 
ATOM     28  C   UNL     1       0.783   9.789  20.752  0.00  0.00    +0.000 A 
ATOM     29  C   UNL     1       0.874  10.695  19.695  0.00  0.00    +0.000 A 
ATOM     30  C   UNL     1       1.426  10.290  18.481  0.00  0.00    +0.000 A 
ATOM     31  C   UNL     1       1.887   8.984  18.336  0.00  0.00    +0.000 A 
ATOM     32  F   UNL     1       2.397   8.632  17.145  0.00  0.00    +0.000 F 
ENDBRANCH  23  26
ENDBRANCH  19  25
ENDBRANCH   1  19
TORSDOF 7
ENDMDL
