MODEL 1
REMARK VINA RESULT:      -7.5      0.000      0.000
REMARK  Name = 
REMARK  5 active torsions:
REMARK  status: ('A' for Active; 'I' for Inactive)
REMARK    1  A    between atoms: C_1  and  C_2
REMARK    2  A    between atoms: C_2  and  C_3
REMARK    3  A    between atoms: N_8  and  C_9
REMARK    4  A    between atoms: C_9  and  C_10
REMARK    5  A    between atoms: C_18  and  C_19
REMARK                            x       y       z     vdW  Elec       q    Type
REMARK                         _______ _______ _______ _____ _____    ______ ____
ROOT
ATOM      1  C   UNL     1      -1.934  11.023  18.035  0.00  0.00    +0.000 A 
ATOM      2  C   UNL     1      -1.823  10.343  16.804  0.00  0.00    +0.000 A 
ATOM      3  C   UNL     1      -2.904  10.276  15.933  0.00  0.00    +0.000 A 
ATOM      4  F   UNL     1      -2.755   9.687  14.740  0.00  0.00    +0.000 F 
ATOM      5  C   UNL     1      -4.132  10.818  16.277  0.00  0.00    +0.000 A 
ATOM      6  C   UNL     1      -4.296  11.405  17.535  0.00  0.00    +0.000 A 
ATOM      7  C   UNL     1      -3.196  11.528  18.400  0.00  0.00    +0.000 A 
ATOM      8  O   UNL     1      -3.330  12.089  19.642  0.00  0.00    +0.000 OA
ATOM      9  C   UNL     1      -4.608  12.700  19.893  0.00  0.00    +0.000 C 
ATOM     10  O   UNL     1      -5.706  11.952  19.373  0.00  0.00    +0.000 OA
ATOM     11  C   UNL     1      -5.639  11.905  17.959  0.00  0.00    +0.000 C 
ENDROOT
BRANCH   9  12
ATOM     12  C   UNL     1      -4.816  12.866  21.378  0.00  0.00    +0.000 A 
ATOM     13  C   UNL     1      -3.774  12.734  22.360  0.00  0.00    +0.000 A 
ATOM     14  C   UNL     1      -4.232  12.879  23.650  0.00  0.00    +0.000 A 
ATOM     15  S   UNL     1      -5.911  13.192  23.698  0.00  0.00    +0.000 S 
ATOM     16  C   UNL     1      -6.030  13.122  21.993  0.00  0.00    +0.000 A 
ENDBRANCH   9  12
BRANCH   1  17
ATOM     17  C   UNL     1      -0.693  11.187  18.907  0.00  0.00    +0.000 C 
BRANCH  17  23
ATOM     18  C   UNL     1       1.118   9.603  19.513  0.00  0.00    +0.000 C 
ATOM     19  C   UNL     1       1.471   8.385  20.402  0.00  0.00    +0.000 C 
ATOM     20  C   UNL     1       1.234   8.657  21.875  0.00  0.00    +0.000 C 
ATOM     21  C   UNL     1      -0.197   9.096  22.082  0.00  0.00    +0.000 C 
ATOM     22  C   UNL     1      -0.560  10.259  21.162  0.00  0.00    +0.000 C 
ATOM     23  N   UNL     1      -0.313   9.997  19.725  0.00  0.00    +0.000 NA
BRANCH  18  25
ATOM     24  C   UNL     1       2.374   8.034  17.897  0.00  0.00    +0.000 C 
ATOM     25  C   UNL     1       1.467   9.258  18.041  0.00  0.00    +0.000 C 
ENDBRANCH  18  25
ENDBRANCH  17  23
ENDBRANCH   1  17
TORSDOF 4
ENDMDL
MODEL 2
REMARK VINA RESULT:      -7.2      6.580     10.428
REMARK  Name = 
REMARK  5 active torsions:
REMARK  status: ('A' for Active; 'I' for Inactive)
REMARK    1  A    between atoms: C_1  and  C_2
REMARK    2  A    between atoms: C_2  and  C_3
REMARK    3  A    between atoms: N_8  and  C_9
REMARK    4  A    between atoms: C_9  and  C_10
REMARK    5  A    between atoms: C_18  and  C_19
REMARK                            x       y       z     vdW  Elec       q    Type
REMARK                         _______ _______ _______ _____ _____    ______ ____
ROOT
ATOM      1  C   UNL     1       2.590   4.946  20.246  0.00  0.00    +0.000 A 
ATOM      2  C   UNL     1       1.611   4.421  21.117  0.00  0.00    +0.000 A 
ATOM      3  C   UNL     1       1.368   3.054  21.166  0.00  0.00    +0.000 A 
ATOM      4  F   UNL     1       0.486   2.572  22.049  0.00  0.00    +0.000 F 
ATOM      5  C   UNL     1       2.031   2.181  20.319  0.00  0.00    +0.000 A 
ATOM      6  C   UNL     1       2.928   2.688  19.374  0.00  0.00    +0.000 A 
ATOM      7  C   UNL     1       3.224   4.061  19.354  0.00  0.00    +0.000 A 
ATOM      8  O   UNL     1       4.091   4.586  18.433  0.00  0.00    +0.000 OA
ATOM      9  C   UNL     1       4.798   3.611  17.647  0.00  0.00    +0.000 C 
ATOM     10  O   UNL     1       3.988   2.506  17.250  0.00  0.00    +0.000 OA
ATOM     11  C   UNL     1       3.576   1.770  18.388  0.00  0.00    +0.000 C 
ENDROOT
BRANCH   9  12
ATOM     12  C   UNL     1       5.349   4.258  16.400  0.00  0.00    +0.000 A 
ATOM     13  C   UNL     1       5.100   5.622  16.019  0.00  0.00    +0.000 A 
ATOM     14  C   UNL     1       5.671   5.955  14.813  0.00  0.00    +0.000 A 
ATOM     15  S   UNL     1       6.527   4.643  14.130  0.00  0.00    +0.000 S 
ATOM     16  C   UNL     1       6.124   3.624  15.444  0.00  0.00    +0.000 A 
ENDBRANCH   9  12
BRANCH   1  17
ATOM     17  C   UNL     1       2.921   6.434  20.311  0.00  0.00    +0.000 C 
BRANCH  17  23
ATOM     18  C   UNL     1       1.547   8.497  20.416  0.00  0.00    +0.000 C 
ATOM     19  C   UNL     1       0.608   9.419  19.599  0.00  0.00    +0.000 C 
ATOM     20  C   UNL     1       1.262   9.936  18.332  0.00  0.00    +0.000 C 
ATOM     21  C   UNL     1       1.748   8.768  17.505  0.00  0.00    +0.000 C 
ATOM     22  C   UNL     1       2.625   7.829  18.328  0.00  0.00    +0.000 C 
ATOM     23  N   UNL     1       1.989   7.338  19.573  0.00  0.00    +0.000 NA
BRANCH  18  25
ATOM     24  C   UNL     1      -0.238   9.092  22.179  0.00  0.00    +0.000 C 
ATOM     25  C   UNL     1       0.821   8.086  21.725  0.00  0.00    +0.000 C 
ENDBRANCH  18  25
ENDBRANCH  17  23
ENDBRANCH   1  17
TORSDOF 4
ENDMDL
MODEL 3
REMARK VINA RESULT:      -7.2      6.120      9.872
REMARK  Name = 
REMARK  5 active torsions:
REMARK  status: ('A' for Active; 'I' for Inactive)
REMARK    1  A    between atoms: C_1  and  C_2
REMARK    2  A    between atoms: C_2  and  C_3
REMARK    3  A    between atoms: N_8  and  C_9
REMARK    4  A    between atoms: C_9  and  C_10
REMARK    5  A    between atoms: C_18  and  C_19
REMARK                            x       y       z     vdW  Elec       q    Type
REMARK                         _______ _______ _______ _____ _____    ______ ____
ROOT
ATOM      1  C   UNL     1       1.988   5.211  20.175  0.00  0.00    +0.000 A 
ATOM      2  C   UNL     1       0.827   4.409  20.153  0.00  0.00    +0.000 A 
ATOM      3  C   UNL     1       0.882   3.095  19.702  0.00  0.00    +0.000 A 
ATOM      4  F   UNL     1      -0.215   2.332  19.756  0.00  0.00    +0.000 F 
ATOM      5  C   UNL     1       2.060   2.562  19.205  0.00  0.00    +0.000 A 
ATOM      6  C   UNL     1       3.199   3.369  19.119  0.00  0.00    +0.000 A 
ATOM      7  C   UNL     1       3.168   4.680  19.624  0.00  0.00    +0.000 A 
ATOM      8  O   UNL     1       4.265   5.495  19.544  0.00  0.00    +0.000 OA
ATOM      9  C   UNL     1       5.467   4.847  19.095  0.00  0.00    +0.000 C 
ATOM     10  O   UNL     1       5.248   3.913  18.037  0.00  0.00    +0.000 OA
ATOM     11  C   UNL     1       4.449   2.838  18.495  0.00  0.00    +0.000 C 
ENDROOT
BRANCH   9  12
ATOM     12  C   UNL     1       6.457   5.878  18.609  0.00  0.00    +0.000 A 
ATOM     13  C   UNL     1       7.736   6.121  19.220  0.00  0.00    +0.000 A 
ATOM     14  C   UNL     1       8.429   7.148  18.621  0.00  0.00    +0.000 A 
ATOM     15  S   UNL     1       7.564   7.820  17.310  0.00  0.00    +0.000 S 
ATOM     16  C   UNL     1       6.255   6.745  17.549  0.00  0.00    +0.000 A 
ENDBRANCH   9  12
BRANCH   1  17
ATOM     17  C   UNL     1       1.916   6.603  20.796  0.00  0.00    +0.000 C 
BRANCH  17  23
ATOM     18  C   UNL     1       0.882   8.857  20.752  0.00  0.00    +0.000 C 
ATOM     19  C   UNL     1       0.264   9.934  19.826  0.00  0.00    +0.000 C 
ATOM     20  C   UNL     1       1.214  10.363  18.725  0.00  0.00    +0.000 C 
ATOM     21  C   UNL     1       1.658   9.149  17.941  0.00  0.00    +0.000 C 
ATOM     22  C   UNL     1       2.212   8.066  18.863  0.00  0.00    +0.000 C 
ATOM     23  N   UNL     1       1.289   7.659  19.947  0.00  0.00    +0.000 NA
BRANCH  18  25
ATOM     24  C   UNL     1      -0.047   9.514  23.066  0.00  0.00    +0.000 C 
ATOM     25  C   UNL     1      -0.129   8.543  21.887  0.00  0.00    +0.000 C 
ENDBRANCH  18  25
ENDBRANCH  17  23
ENDBRANCH   1  17
TORSDOF 4
ENDMDL
MODEL 4
REMARK VINA RESULT:      -7.0      8.961     12.259
REMARK  Name = 
REMARK  5 active torsions:
REMARK  status: ('A' for Active; 'I' for Inactive)
REMARK    1  A    between atoms: C_1  and  C_2
REMARK    2  A    between atoms: C_2  and  C_3
REMARK    3  A    between atoms: N_8  and  C_9
REMARK    4  A    between atoms: C_9  and  C_10
REMARK    5  A    between atoms: C_18  and  C_19
REMARK                            x       y       z     vdW  Elec       q    Type
REMARK                         _______ _______ _______ _____ _____    ______ ____
ROOT
ATOM      1  C   UNL     1       5.213   4.220  17.632  0.00  0.00    +0.000 A 
ATOM      2  C   UNL     1       5.818   4.644  18.834  0.00  0.00    +0.000 A 
ATOM      3  C   UNL     1       6.924   5.486  18.811  0.00  0.00    +0.000 A 
ATOM      4  F   UNL     1       7.438   5.932  19.963  0.00  0.00    +0.000 F 
ATOM      5  C   UNL     1       7.498   5.875  17.612  0.00  0.00    +0.000 A 
ATOM      6  C   UNL     1       6.981   5.383  16.410  0.00  0.00    +0.000 A 
ATOM      7  C   UNL     1       5.829   4.579  16.419  0.00  0.00    +0.000 A 
ATOM      8  O   UNL     1       5.307   4.075  15.258  0.00  0.00    +0.000 OA
ATOM      9  C   UNL     1       5.905   4.590  14.055  0.00  0.00    +0.000 C 
ATOM     10  O   UNL     1       7.322   4.738  14.144  0.00  0.00    +0.000 OA
ATOM     11  C   UNL     1       7.649   5.716  15.115  0.00  0.00    +0.000 C 
ENDROOT
BRANCH   9  12
ATOM     12  C   UNL     1       5.604   3.670  12.897  0.00  0.00    +0.000 A 
ATOM     13  C   UNL     1       4.372   3.679  12.156  0.00  0.00    +0.000 A 
ATOM     14  C   UNL     1       4.325   2.709  11.183  0.00  0.00    +0.000 A 
ATOM     15  S   UNL     1       5.762   1.786  11.133  0.00  0.00    +0.000 S 
ATOM     16  C   UNL     1       6.445   2.678  12.422  0.00  0.00    +0.000 A 
ENDBRANCH   9  12
BRANCH   1  17
ATOM     17  C   UNL     1       3.925   3.404  17.697  0.00  0.00    +0.000 C 
BRANCH  17  23
ATOM     18  C   UNL     1       1.892   4.380  18.730  0.00  0.00    +0.000 C 
ATOM     19  C   UNL     1       1.082   4.483  20.047  0.00  0.00    +0.000 C 
ATOM     20  C   UNL     1       0.691   3.124  20.593  0.00  0.00    +0.000 C 
ATOM     21  C   UNL     1       1.930   2.277  20.771  0.00  0.00    +0.000 C 
ATOM     22  C   UNL     1       2.757   2.225  19.489  0.00  0.00    +0.000 C 
ATOM     23  N   UNL     1       3.125   3.555  18.948  0.00  0.00    +0.000 NA
BRANCH  18  25
ATOM     24  C   UNL     1       2.570   6.799  19.313  0.00  0.00    +0.000 C 
ATOM     25  C   UNL     1       2.175   5.815  18.210  0.00  0.00    +0.000 C 
ENDBRANCH  18  25
ENDBRANCH  17  23
ENDBRANCH   1  17
TORSDOF 4
ENDMDL
MODEL 5
REMARK VINA RESULT:      -7.0      0.861      1.209
REMARK  Name = 
REMARK  5 active torsions:
REMARK  status: ('A' for Active; 'I' for Inactive)
REMARK    1  A    between atoms: C_1  and  C_2
REMARK    2  A    between atoms: C_2  and  C_3
REMARK    3  A    between atoms: N_8  and  C_9
REMARK    4  A    between atoms: C_9  and  C_10
REMARK    5  A    between atoms: C_18  and  C_19
REMARK                            x       y       z     vdW  Elec       q    Type
REMARK                         _______ _______ _______ _____ _____    ______ ____
ROOT
ATOM      1  C   UNL     1      -2.218  11.422  18.381  0.00  0.00    +0.000 A 
ATOM      2  C   UNL     1      -1.883  10.830  17.144  0.00  0.00    +0.000 A 
ATOM      3  C   UNL     1      -2.844  10.671  16.153  0.00  0.00    +0.000 A 
ATOM      4  F   UNL     1      -2.489  10.172  14.963  0.00  0.00    +0.000 F 
ATOM      5  C   UNL     1      -4.164  11.027  16.376  0.00  0.00    +0.000 A 
ATOM      6  C   UNL     1      -4.542  11.517  17.630  0.00  0.00    +0.000 A 
ATOM      7  C   UNL     1      -3.568  11.736  18.619  0.00  0.00    +0.000 A 
ATOM      8  O   UNL     1      -3.911  12.206  19.859  0.00  0.00    +0.000 OA
ATOM      9  C   UNL     1      -5.279  12.629  19.987  0.00  0.00    +0.000 C 
ATOM     10  O   UNL     1      -6.203  11.773  19.315  0.00  0.00    +0.000 OA
ATOM     11  C   UNL     1      -5.978  11.813  17.918  0.00  0.00    +0.000 C 
ENDROOT
BRANCH   9  12
ATOM     12  C   UNL     1      -5.667  12.683  21.444  0.00  0.00    +0.000 A 
ATOM     13  C   UNL     1      -7.009  12.509  21.930  0.00  0.00    +0.000 A 
ATOM     14  C   UNL     1      -7.108  12.656  23.294  0.00  0.00    +0.000 A 
ATOM     15  S   UNL     1      -5.593  12.987  24.011  0.00  0.00    +0.000 S 
ATOM     16  C   UNL     1      -4.804  12.945  22.494  0.00  0.00    +0.000 A 
ENDBRANCH   9  12
BRANCH   1  17
ATOM     17  C   UNL     1      -1.111  11.699  19.395  0.00  0.00    +0.000 C 
BRANCH  17  23
ATOM     18  C   UNL     1       0.574  10.011  20.075  0.00  0.00    +0.000 C 
ATOM     19  C   UNL     1       0.871   8.873  21.083  0.00  0.00    +0.000 C 
ATOM     20  C   UNL     1       0.774   9.337  22.524  0.00  0.00    +0.000 C 
ATOM     21  C   UNL     1      -0.587   9.948  22.765  0.00  0.00    +0.000 C 
ATOM     22  C   UNL     1      -0.902  11.029  21.734  0.00  0.00    +0.000 C 
ATOM     23  N   UNL     1      -0.791  10.577  20.327  0.00  0.00    +0.000 NA
BRANCH  18  25
ATOM     24  C   UNL     1       2.046   9.975  17.958  0.00  0.00    +0.000 C 
ATOM     25  C   UNL     1       0.776   9.462  18.637  0.00  0.00    +0.000 C 
ENDBRANCH  18  25
ENDBRANCH  17  23
ENDBRANCH   1  17
TORSDOF 4
ENDMDL
MODEL 6
REMARK VINA RESULT:      -6.9      2.371      5.479
REMARK  Name = 
REMARK  5 active torsions:
REMARK  status: ('A' for Active; 'I' for Inactive)
REMARK    1  A    between atoms: C_1  and  C_2
REMARK    2  A    between atoms: C_2  and  C_3
REMARK    3  A    between atoms: N_8  and  C_9
REMARK    4  A    between atoms: C_9  and  C_10
REMARK    5  A    between atoms: C_18  and  C_19
REMARK                            x       y       z     vdW  Elec       q    Type
REMARK                         _______ _______ _______ _____ _____    ______ ____
ROOT
ATOM      1  C   UNL     1       0.183  10.119  19.571  0.00  0.00    +0.000 A 
ATOM      2  C   UNL     1       1.149   9.182  19.145  0.00  0.00    +0.000 A 
ATOM      3  C   UNL     1       1.668   8.247  20.033  0.00  0.00    +0.000 A 
ATOM      4  F   UNL     1       2.530   7.324  19.590  0.00  0.00    +0.000 F 
ATOM      5  C   UNL     1       1.300   8.252  21.368  0.00  0.00    +0.000 A 
ATOM      6  C   UNL     1       0.425   9.236  21.837  0.00  0.00    +0.000 A 
ATOM      7  C   UNL     1      -0.149  10.150  20.937  0.00  0.00    +0.000 A 
ATOM      8  O   UNL     1      -1.001  11.130  21.371  0.00  0.00    +0.000 OA
ATOM      9  C   UNL     1      -1.398  11.019  22.749  0.00  0.00    +0.000 C 
ATOM     10  O   UNL     1      -0.334  10.624  23.615  0.00  0.00    +0.000 OA
ATOM     11  C   UNL     1       0.096   9.314  23.293  0.00  0.00    +0.000 C 
ENDROOT
BRANCH   9  12
ATOM     12  C   UNL     1      -1.932  12.343  23.239  0.00  0.00    +0.000 A 
ATOM     13  C   UNL     1      -1.161  13.554  23.296  0.00  0.00    +0.000 A 
ATOM     14  C   UNL     1      -1.862  14.611  23.830  0.00  0.00    +0.000 A 
ATOM     15  S   UNL     1      -3.457  14.169  24.252  0.00  0.00    +0.000 S 
ATOM     16  C   UNL     1      -3.208  12.558  23.731  0.00  0.00    +0.000 A 
ENDBRANCH   9  12
BRANCH   1  17
ATOM     17  C   UNL     1      -0.459  11.044  18.541  0.00  0.00    +0.000 C 
BRANCH  17  23
ATOM     18  C   UNL     1      -2.764  11.879  18.164  0.00  0.00    +0.000 C 
ATOM     19  C   UNL     1      -4.186  11.469  17.704  0.00  0.00    +0.000 C 
ATOM     20  C   UNL     1      -4.191  10.866  16.313  0.00  0.00    +0.000 C 
ATOM     21  C   UNL     1      -3.236   9.695  16.268  0.00  0.00    +0.000 C 
ATOM     22  C   UNL     1      -1.852  10.087  16.778  0.00  0.00    +0.000 C 
ATOM     23  N   UNL     1      -1.850  10.690  18.131  0.00  0.00    +0.000 NA
BRANCH  18  25
ATOM     24  C   UNL     1      -4.299  12.606  20.105  0.00  0.00    +0.000 C 
ATOM     25  C   UNL     1      -2.872  12.554  19.557  0.00  0.00    +0.000 C 
ENDBRANCH  18  25
ENDBRANCH  17  23
ENDBRANCH   1  17
TORSDOF 4
ENDMDL
MODEL 7
REMARK VINA RESULT:      -6.8      9.045     12.190
REMARK  Name = 
REMARK  5 active torsions:
REMARK  status: ('A' for Active; 'I' for Inactive)
REMARK    1  A    between atoms: C_1  and  C_2
REMARK    2  A    between atoms: C_2  and  C_3
REMARK    3  A    between atoms: N_8  and  C_9
REMARK    4  A    between atoms: C_9  and  C_10
REMARK    5  A    between atoms: C_18  and  C_19
REMARK                            x       y       z     vdW  Elec       q    Type
REMARK                         _______ _______ _______ _____ _____    ______ ____
ROOT
ATOM      1  C   UNL     1       5.470   4.244  18.034  0.00  0.00    +0.000 A 
ATOM      2  C   UNL     1       6.103   4.663  19.224  0.00  0.00    +0.000 A 
ATOM      3  C   UNL     1       7.137   5.591  19.186  0.00  0.00    +0.000 A 
ATOM      4  F   UNL     1       7.675   6.025  20.332  0.00  0.00    +0.000 F 
ATOM      5  C   UNL     1       7.614   6.078  17.980  0.00  0.00    +0.000 A 
ATOM      6  C   UNL     1       7.073   5.600  16.783  0.00  0.00    +0.000 A 
ATOM      7  C   UNL     1       5.990   4.705  16.811  0.00  0.00    +0.000 A 
ATOM      8  O   UNL     1       5.448   4.213  15.654  0.00  0.00    +0.000 OA
ATOM      9  C   UNL     1       5.938   4.826  14.449  0.00  0.00    +0.000 C 
ATOM     10  O   UNL     1       7.342   5.085  14.475  0.00  0.00    +0.000 OA
ATOM     11  C   UNL     1       7.643   6.042  15.474  0.00  0.00    +0.000 C 
ENDROOT
BRANCH   9  12
ATOM     12  C   UNL     1       5.649   3.937  13.265  0.00  0.00    +0.000 A 
ATOM     13  C   UNL     1       6.631   3.114  12.613  0.00  0.00    +0.000 A 
ATOM     14  C   UNL     1       6.127   2.438  11.526  0.00  0.00    +0.000 A 
ATOM     15  S   UNL     1       4.469   2.769  11.283  0.00  0.00    +0.000 S 
ATOM     16  C   UNL     1       4.425   3.826  12.627  0.00  0.00    +0.000 A 
ENDBRANCH   9  12
BRANCH   1  17
ATOM     17  C   UNL     1       4.255   3.325  18.124  0.00  0.00    +0.000 C 
BRANCH  17  23
ATOM     18  C   UNL     1       1.910   3.714  18.833  0.00  0.00    +0.000 C 
ATOM     19  C   UNL     1       0.994   3.943  20.061  0.00  0.00    +0.000 C 
ATOM     20  C   UNL     1       1.102   2.824  21.079  0.00  0.00    +0.000 C 
ATOM     21  C   UNL     1       2.547   2.655  21.490  0.00  0.00    +0.000 C 
ATOM     22  C   UNL     1       3.455   2.489  20.274  0.00  0.00    +0.000 C 
ATOM     23  N   UNL     1       3.337   3.575  19.274  0.00  0.00    +0.000 NA
BRANCH  18  25
ATOM     24  C   UNL     1       2.285   6.198  18.248  0.00  0.00    +0.000 C 
ATOM     25  C   UNL     1       1.672   4.864  17.818  0.00  0.00    +0.000 C 
ENDBRANCH  18  25
ENDBRANCH  17  23
ENDBRANCH   1  17
TORSDOF 4
ENDMDL
MODEL 8
REMARK VINA RESULT:      -6.7      1.816      2.782
REMARK  Name = 
REMARK  5 active torsions:
REMARK  status: ('A' for Active; 'I' for Inactive)
REMARK    1  A    between atoms: C_1  and  C_2
REMARK    2  A    between atoms: C_2  and  C_3
REMARK    3  A    between atoms: N_8  and  C_9
REMARK    4  A    between atoms: C_9  and  C_10
REMARK    5  A    between atoms: C_18  and  C_19
REMARK                            x       y       z     vdW  Elec       q    Type
REMARK                         _______ _______ _______ _____ _____    ______ ____
ROOT
ATOM      1  C   UNL     1      -2.258  10.778  18.131  0.00  0.00    +0.000 A 
ATOM      2  C   UNL     1      -1.976  10.170  16.889  0.00  0.00    +0.000 A 
ATOM      3  C   UNL     1      -2.847  10.314  15.816  0.00  0.00    +0.000 A 
ATOM      4  F   UNL     1      -2.525   9.788  14.629  0.00  0.00    +0.000 F 
ATOM      5  C   UNL     1      -4.041  11.002  15.956  0.00  0.00    +0.000 A 
ATOM      6  C   UNL     1      -4.393  11.524  17.205  0.00  0.00    +0.000 A 
ATOM      7  C   UNL     1      -3.494  11.433  18.280  0.00  0.00    +0.000 A 
ATOM      8  O   UNL     1      -3.816  11.927  19.516  0.00  0.00    +0.000 OA
ATOM      9  C   UNL     1      -5.030  12.696  19.561  0.00  0.00    +0.000 C 
ATOM     10  O   UNL     1      -6.080  12.147  18.764  0.00  0.00    +0.000 OA
ATOM     11  C   UNL     1      -5.721  12.182  17.395  0.00  0.00    +0.000 C 
ENDROOT
BRANCH   9  12
ATOM     12  C   UNL     1      -5.526  12.793  20.983  0.00  0.00    +0.000 A 
ATOM     13  C   UNL     1      -4.680  13.044  22.118  0.00  0.00    +0.000 A 
ATOM     14  C   UNL     1      -5.367  13.034  23.311  0.00  0.00    +0.000 A 
ATOM     15  S   UNL     1      -7.035  12.739  23.083  0.00  0.00    +0.000 S 
ATOM     16  C   UNL     1      -6.838  12.615  21.388  0.00  0.00    +0.000 A 
ENDBRANCH   9  12
BRANCH   1  17
ATOM     17  C   UNL     1      -1.218  10.707  19.246  0.00  0.00    +0.000 C 
BRANCH  17  23
ATOM     18  C   UNL     1      -0.133  11.990  21.071  0.00  0.00    +0.000 C 
ATOM     19  C   UNL     1       0.513  13.351  21.433  0.00  0.00    +0.000 C 
ATOM     20  C   UNL     1       1.668  13.704  20.516  0.00  0.00    +0.000 C 
ATOM     21  C   UNL     1       1.195  13.681  19.080  0.00  0.00    +0.000 C 
ATOM     22  C   UNL     1       0.507  12.362  18.743  0.00  0.00    +0.000 C 
ATOM     23  N   UNL     1      -0.611  12.010  19.650  0.00  0.00    +0.000 NA
BRANCH  18  25
ATOM     24  C   UNL     1      -0.907  10.513  23.038  0.00  0.00    +0.000 C 
ATOM     25  C   UNL     1      -1.245  11.680  22.108  0.00  0.00    +0.000 C 
ENDBRANCH  18  25
ENDBRANCH  17  23
ENDBRANCH   1  17
TORSDOF 4
ENDMDL
MODEL 9
REMARK VINA RESULT:      -6.6      1.394      2.185
REMARK  Name = 
REMARK  5 active torsions:
REMARK  status: ('A' for Active; 'I' for Inactive)
REMARK    1  A    between atoms: C_1  and  C_2
REMARK    2  A    between atoms: C_2  and  C_3
REMARK    3  A    between atoms: N_8  and  C_9
REMARK    4  A    between atoms: C_9  and  C_10
REMARK    5  A    between atoms: C_18  and  C_19
REMARK                            x       y       z     vdW  Elec       q    Type
REMARK                         _______ _______ _______ _____ _____    ______ ____
ROOT
ATOM      1  C   UNL     1      -2.400  10.658  18.094  0.00  0.00    +0.000 A 
ATOM      2  C   UNL     1      -2.049  10.102  16.845  0.00  0.00    +0.000 A 
ATOM      3  C   UNL     1      -2.818  10.356  15.716  0.00  0.00    +0.000 A 
ATOM      4  F   UNL     1      -2.426   9.876  14.530  0.00  0.00    +0.000 F 
ATOM      5  C   UNL     1      -3.981  11.104  15.799  0.00  0.00    +0.000 A 
ATOM      6  C   UNL     1      -4.407  11.577  17.044  0.00  0.00    +0.000 A 
ATOM      7  C   UNL     1      -3.608  11.375  18.181  0.00  0.00    +0.000 A 
ATOM      8  O   UNL     1      -4.005  11.819  19.414  0.00  0.00    +0.000 OA
ATOM      9  C   UNL     1      -5.176  12.655  19.406  0.00  0.00    +0.000 C 
ATOM     10  O   UNL     1      -6.183  12.212  18.496  0.00  0.00    +0.000 OA
ATOM     11  C   UNL     1      -5.709  12.301  17.165  0.00  0.00    +0.000 C 
ENDROOT
BRANCH   9  12
ATOM     12  C   UNL     1      -5.783  12.703  20.787  0.00  0.00    +0.000 A 
ATOM     13  C   UNL     1      -5.052  13.033  21.980  0.00  0.00    +0.000 A 
ATOM     14  C   UNL     1      -5.821  12.956  23.118  0.00  0.00    +0.000 A 
ATOM     15  S   UNL     1      -7.432  12.505  22.769  0.00  0.00    +0.000 S 
ATOM     16  C   UNL     1      -7.099  12.402  21.094  0.00  0.00    +0.000 A 
ENDBRANCH   9  12
BRANCH   1  17
ATOM     17  C   UNL     1      -1.463  10.466  19.283  0.00  0.00    +0.000 C 
BRANCH  17  23
ATOM     18  C   UNL     1       0.851  10.887  18.496  0.00  0.00    +0.000 C 
ATOM     19  C   UNL     1       2.034  11.886  18.560  0.00  0.00    +0.000 C 
ATOM     20  C   UNL     1       1.640  13.278  18.105  0.00  0.00    +0.000 C 
ATOM     21  C   UNL     1       0.464  13.760  18.923  0.00  0.00    +0.000 C 
ATOM     22  C   UNL     1      -0.678  12.747  18.906  0.00  0.00    +0.000 C 
ATOM     23  N   UNL     1      -0.287  11.384  19.336  0.00  0.00    +0.000 NA
BRANCH  18  25
ATOM     24  C   UNL     1       2.107   8.753  17.776  0.00  0.00    +0.000 C 
ATOM     25  C   UNL     1       1.369   9.481  18.901  0.00  0.00    +0.000 C 
ENDBRANCH  18  25
ENDBRANCH  17  23
ENDBRANCH   1  17
TORSDOF 4
ENDMDL
