MODEL 1
REMARK VINA RESULT:      -7.5      0.000      0.000
REMARK  Name = 
REMARK  10 active torsions:
REMARK  status: ('A' for Active; 'I' for Inactive)
REMARK    1  A    between atoms: C_1  and  O_2
REMARK    2  A    between atoms: O_2  and  C_3
REMARK    3  A    between atoms: C_6  and  C_7
REMARK    4  A    between atoms: C_7  and  N_8
REMARK    5  A    between atoms: C_9  and  C_11
REMARK    6  A    between atoms: C_11  and  S_12
REMARK    7  A    between atoms: S_12  and  C_13
REMARK    8  A    between atoms: C_13  and  C_14
REMARK    9  A    between atoms: N_17  and  C_18
REMARK   10  A    between atoms: C_24  and  N_25
REMARK                            x       y       z     vdW  Elec       q    Type
REMARK                         _______ _______ _______ _____ _____    ______ ____
ROOT
ATOM      1  C   UNL     1       2.472   6.257  20.113  0.00  0.00    +0.000 C 
ENDROOT
BRANCH   1   2
ATOM      2  C   UNL     1       2.220   7.519  19.339  0.00  0.00    +0.000 A 
ATOM      3  C   UNL     1       2.451   7.778  17.969  0.00  0.00    +0.000 A 
ATOM      4  N   UNL     1       1.912   8.911  17.531  0.00  0.00    +0.000 NA
ATOM      5  N   UNL     1       1.418   9.496  18.647  0.00  0.00    +0.000 N 
ATOM      6  C   UNL     1       1.538   8.657  19.741  0.00  0.00    +0.000 A 
BRANCH   5   7
ATOM      7  C   UNL     1       0.968  10.843  18.582  0.00  0.00    +0.000 A 
ATOM      8  C   UNL     1      -0.403  11.101  18.504  0.00  0.00    +0.000 A 
ATOM      9  C   UNL     1      -0.846  12.420  18.521  0.00  0.00    +0.000 A 
ATOM     10  C   UNL     1       0.063  13.477  18.583  0.00  0.00    +0.000 A 
ATOM     11  C   UNL     1       1.423  13.226  18.646  0.00  0.00    +0.000 A 
ATOM     12  C   UNL     1       1.884  11.902  18.630  0.00  0.00    +0.000 A 
ENDBRANCH   5   7
BRANCH   6  13
ATOM     13  N   UNL     1       0.941   8.885  20.974  0.00  0.00    +0.000 N 
ATOM     14  C   UNL     1       1.574   9.290  22.131  0.00  0.00    +0.000 A 
ATOM     15  C   UNL     1       0.640   9.415  23.134  0.00  0.00    +0.000 A 
ATOM     16  C   UNL     1      -0.608   9.051  22.592  0.00  0.00    +0.000 A 
ATOM     17  C   UNL     1      -0.399   8.732  21.277  0.00  0.00    +0.000 A 
ENDBRANCH   6  13
ENDBRANCH   1   2
BRANCH   1  18
ATOM     18  S   UNL     1       0.923   5.379  20.507  0.00  0.00    +0.000 S 
BRANCH  18  19
ATOM     19  C   UNL     1       1.360   3.679  20.042  0.00  0.00    +0.000 C 
BRANCH  19  21
ATOM     20  N   UNL     1       3.192   3.258  18.465  0.00  0.00    +0.000 N 
ATOM     21  C   UNL     1       1.888   3.696  18.615  0.00  0.00    +0.000 C 
ATOM     22  O   UNL     1       1.213   4.102  17.670  0.00  0.00    +0.000 OA
ATOM     23  H   UNL     1       3.639   2.746  19.216  0.00  0.00    +0.000 HD
BRANCH  20  24
ATOM     24  C   UNL     1       3.784   3.234  17.146  0.00  0.00    +0.000 C 
BRANCH  24  28
ATOM     25  C   UNL     1       6.956   6.138  16.645  0.00  0.00    +0.000 A 
ATOM     26  C   UNL     1       6.143   6.145  17.776  0.00  0.00    +0.000 A 
ATOM     27  C   UNL     1       5.128   5.196  17.922  0.00  0.00    +0.000 A 
ATOM     28  C   UNL     1       4.878   4.246  16.918  0.00  0.00    +0.000 A 
ATOM     29  C   UNL     1       5.713   4.235  15.793  0.00  0.00    +0.000 A 
ATOM     30  C   UNL     1       6.734   5.184  15.651  0.00  0.00    +0.000 A 
BRANCH  25  32
ATOM     31  C   UNL     1       7.805   8.119  17.604  0.00  0.00    +0.000 C 
ATOM     32  O   UNL     1       7.919   7.108  16.608  0.00  0.00    +0.000 OA
ENDBRANCH  25  32
ENDBRANCH  24  28
ENDBRANCH  20  24
ENDBRANCH  19  21
ENDBRANCH  18  19
ENDBRANCH   1  18
TORSDOF 9
ENDMDL
MODEL 2
REMARK VINA RESULT:      -7.5      1.051      1.425
REMARK  Name = 
REMARK  10 active torsions:
REMARK  status: ('A' for Active; 'I' for Inactive)
REMARK    1  A    between atoms: C_1  and  O_2
REMARK    2  A    between atoms: O_2  and  C_3
REMARK    3  A    between atoms: C_6  and  C_7
REMARK    4  A    between atoms: C_7  and  N_8
REMARK    5  A    between atoms: C_9  and  C_11
REMARK    6  A    between atoms: C_11  and  S_12
REMARK    7  A    between atoms: S_12  and  C_13
REMARK    8  A    between atoms: C_13  and  C_14
REMARK    9  A    between atoms: N_17  and  C_18
REMARK   10  A    between atoms: C_24  and  N_25
REMARK                            x       y       z     vdW  Elec       q    Type
REMARK                         _______ _______ _______ _____ _____    ______ ____
ROOT
ATOM      1  C   UNL     1       2.574   6.355  20.183  0.00  0.00    +0.000 C 
ENDROOT
BRANCH   1   2
ATOM      2  C   UNL     1       2.224   7.591  19.406  0.00  0.00    +0.000 A 
ATOM      3  C   UNL     1       2.421   7.859  18.033  0.00  0.00    +0.000 A 
ATOM      4  N   UNL     1       1.797   8.949  17.597  0.00  0.00    +0.000 NA
ATOM      5  N   UNL     1       1.274   9.502  18.715  0.00  0.00    +0.000 N 
ATOM      6  C   UNL     1       1.465   8.679  19.811  0.00  0.00    +0.000 A 
BRANCH   5   7
ATOM      7  C   UNL     1       0.727  10.813  18.650  0.00  0.00    +0.000 A 
ATOM      8  C   UNL     1       1.584  11.914  18.717  0.00  0.00    +0.000 A 
ATOM      9  C   UNL     1       1.055  13.193  18.572  0.00  0.00    +0.000 A 
ATOM     10  C   UNL     1      -0.316  13.383  18.393  0.00  0.00    +0.000 A 
ATOM     11  C   UNL     1      -1.170  12.294  18.340  0.00  0.00    +0.000 A 
ATOM     12  C   UNL     1      -0.652  11.000  18.484  0.00  0.00    +0.000 A 
ENDBRANCH   5   7
BRANCH   6  13
ATOM     13  N   UNL     1       0.866   8.869  21.050  0.00  0.00    +0.000 N 
ATOM     14  C   UNL     1       1.469   9.366  22.187  0.00  0.00    +0.000 A 
ATOM     15  C   UNL     1       0.543   9.412  23.203  0.00  0.00    +0.000 A 
ATOM     16  C   UNL     1      -0.666   8.904  22.691  0.00  0.00    +0.000 A 
ATOM     17  C   UNL     1      -0.444   8.579  21.380  0.00  0.00    +0.000 A 
ENDBRANCH   6  13
ENDBRANCH   1   2
BRANCH   1  18
ATOM     18  S   UNL     1       1.200   5.157  20.212  0.00  0.00    +0.000 S 
BRANCH  18  19
ATOM     19  C   UNL     1       2.031   3.691  20.889  0.00  0.00    +0.000 C 
BRANCH  19  21
ATOM     20  N   UNL     1       2.955   3.609  18.618  0.00  0.00    +0.000 N 
ATOM     21  C   UNL     1       3.170   3.314  19.952  0.00  0.00    +0.000 C 
ATOM     22  O   UNL     1       4.191   2.756  20.351  0.00  0.00    +0.000 OA
ATOM     23  H   UNL     1       2.208   4.242  18.358  0.00  0.00    +0.000 HD
BRANCH  20  24
ATOM     24  C   UNL     1       3.979   3.291  17.648  0.00  0.00    +0.000 C 
BRANCH  24  28
ATOM     25  C   UNL     1       6.822   6.496  17.022  0.00  0.00    +0.000 A 
ATOM     26  C   UNL     1       5.552   6.537  16.453  0.00  0.00    +0.000 A 
ATOM     27  C   UNL     1       4.647   5.495  16.671  0.00  0.00    +0.000 A 
ATOM     28  C   UNL     1       5.009   4.369  17.429  0.00  0.00    +0.000 A 
ATOM     29  C   UNL     1       6.283   4.346  18.013  0.00  0.00    +0.000 A 
ATOM     30  C   UNL     1       7.187   5.395  17.798  0.00  0.00    +0.000 A 
BRANCH  25  32
ATOM     31  C   UNL     1       7.922   8.408  17.857  0.00  0.00    +0.000 C 
ATOM     32  O   UNL     1       7.624   7.568  16.747  0.00  0.00    +0.000 OA
ENDBRANCH  25  32
ENDBRANCH  24  28
ENDBRANCH  20  24
ENDBRANCH  19  21
ENDBRANCH  18  19
ENDBRANCH   1  18
TORSDOF 9
ENDMDL
MODEL 3
REMARK VINA RESULT:      -7.4      1.283      1.671
REMARK  Name = 
REMARK  10 active torsions:
REMARK  status: ('A' for Active; 'I' for Inactive)
REMARK    1  A    between atoms: C_1  and  O_2
REMARK    2  A    between atoms: O_2  and  C_3
REMARK    3  A    between atoms: C_6  and  C_7
REMARK    4  A    between atoms: C_7  and  N_8
REMARK    5  A    between atoms: C_9  and  C_11
REMARK    6  A    between atoms: C_11  and  S_12
REMARK    7  A    between atoms: S_12  and  C_13
REMARK    8  A    between atoms: C_13  and  C_14
REMARK    9  A    between atoms: N_17  and  C_18
REMARK   10  A    between atoms: C_24  and  N_25
REMARK                            x       y       z     vdW  Elec       q    Type
REMARK                         _______ _______ _______ _____ _____    ______ ____
ROOT
ATOM      1  C   UNL     1       2.575   6.120  20.152  0.00  0.00    +0.000 C 
ENDROOT
BRANCH   1   2
ATOM      2  C   UNL     1       2.314   7.365  19.354  0.00  0.00    +0.000 A 
ATOM      3  C   UNL     1       2.561   7.606  17.984  0.00  0.00    +0.000 A 
ATOM      4  N   UNL     1       2.010   8.724  17.521  0.00  0.00    +0.000 NA
ATOM      5  N   UNL     1       1.490   9.317  18.619  0.00  0.00    +0.000 N 
ATOM      6  C   UNL     1       1.606   8.498  19.728  0.00  0.00    +0.000 A 
BRANCH   5   7
ATOM      7  C   UNL     1       1.018  10.656  18.526  0.00  0.00    +0.000 A 
ATOM      8  C   UNL     1      -0.359  10.894  18.505  0.00  0.00    +0.000 A 
ATOM      9  C   UNL     1      -0.819  12.207  18.495  0.00  0.00    +0.000 A 
ATOM     10  C   UNL     1       0.077  13.277  18.474  0.00  0.00    +0.000 A 
ATOM     11  C   UNL     1       1.443  13.044  18.481  0.00  0.00    +0.000 A 
ATOM     12  C   UNL     1       1.920  11.727  18.492  0.00  0.00    +0.000 A 
ENDBRANCH   5   7
BRANCH   6  13
ATOM     13  N   UNL     1       0.988   8.735  20.949  0.00  0.00    +0.000 N 
ATOM     14  C   UNL     1      -0.309   8.410  21.290  0.00  0.00    +0.000 A 
ATOM     15  C   UNL     1      -0.541   8.798  22.589  0.00  0.00    +0.000 A 
ATOM     16  C   UNL     1       0.637   9.406  23.063  0.00  0.00    +0.000 A 
ATOM     17  C   UNL     1       1.553   9.356  22.047  0.00  0.00    +0.000 A 
ENDBRANCH   6  13
ENDBRANCH   1   2
BRANCH   1  18
ATOM     18  S   UNL     1       1.619   4.699  19.528  0.00  0.00    +0.000 S 
BRANCH  18  19
ATOM     19  C   UNL     1       2.643   3.313  20.103  0.00  0.00    +0.000 C 
BRANCH  19  21
ATOM     20  N   UNL     1       3.916   3.998  18.121  0.00  0.00    +0.000 N 
ATOM     21  C   UNL     1       3.959   3.344  19.339  0.00  0.00    +0.000 C 
ATOM     22  O   UNL     1       4.976   2.796  19.761  0.00  0.00    +0.000 OA
ATOM     23  H   UNL     1       3.133   4.603  17.904  0.00  0.00    +0.000 HD
BRANCH  20  24
ATOM     24  C   UNL     1       5.116   4.084  17.320  0.00  0.00    +0.000 C 
BRANCH  24  28
ATOM     25  C   UNL     1       7.805   7.351  18.237  0.00  0.00    +0.000 A 
ATOM     26  C   UNL     1       7.909   6.126  18.891  0.00  0.00    +0.000 A 
ATOM     27  C   UNL     1       7.034   5.082  18.577  0.00  0.00    +0.000 A 
ATOM     28  C   UNL     1       6.011   5.257  17.632  0.00  0.00    +0.000 A 
ATOM     29  C   UNL     1       5.927   6.487  16.965  0.00  0.00    +0.000 A 
ATOM     30  C   UNL     1       6.808   7.530  17.277  0.00  0.00    +0.000 A 
BRANCH  25  32
ATOM     31  C   UNL     1       8.473   9.611  18.119  0.00  0.00    +0.000 C 
ATOM     32  O   UNL     1       8.713   8.300  18.619  0.00  0.00    +0.000 OA
ENDBRANCH  25  32
ENDBRANCH  24  28
ENDBRANCH  20  24
ENDBRANCH  19  21
ENDBRANCH  18  19
ENDBRANCH   1  18
TORSDOF 9
ENDMDL
MODEL 4
REMARK VINA RESULT:      -7.2      0.647      1.020
REMARK  Name = 
REMARK  10 active torsions:
REMARK  status: ('A' for Active; 'I' for Inactive)
REMARK    1  A    between atoms: C_1  and  O_2
REMARK    2  A    between atoms: O_2  and  C_3
REMARK    3  A    between atoms: C_6  and  C_7
REMARK    4  A    between atoms: C_7  and  N_8
REMARK    5  A    between atoms: C_9  and  C_11
REMARK    6  A    between atoms: C_11  and  S_12
REMARK    7  A    between atoms: S_12  and  C_13
REMARK    8  A    between atoms: C_13  and  C_14
REMARK    9  A    between atoms: N_17  and  C_18
REMARK   10  A    between atoms: C_24  and  N_25
REMARK                            x       y       z     vdW  Elec       q    Type
REMARK                         _______ _______ _______ _____ _____    ______ ____
ROOT
ATOM      1  C   UNL     1       2.537   6.432  19.939  0.00  0.00    +0.000 C 
ENDROOT
BRANCH   1   2
ATOM      2  C   UNL     1       2.218   7.713  19.223  0.00  0.00    +0.000 A 
ATOM      3  C   UNL     1       2.406   8.035  17.860  0.00  0.00    +0.000 A 
ATOM      4  N   UNL     1       1.813   9.163  17.481  0.00  0.00    +0.000 NA
ATOM      5  N   UNL     1       1.323   9.682  18.630  0.00  0.00    +0.000 N 
ATOM      6  C   UNL     1       1.501   8.805  19.686  0.00  0.00    +0.000 A 
BRANCH   5   7
ATOM      7  C   UNL     1       0.819  11.012  18.630  0.00  0.00    +0.000 A 
ATOM      8  C   UNL     1      -0.506  11.239  18.249  0.00  0.00    +0.000 A 
ATOM      9  C   UNL     1      -1.021  12.529  18.326  0.00  0.00    +0.000 A 
ATOM     10  C   UNL     1      -0.222  13.592  18.748  0.00  0.00    +0.000 A 
ATOM     11  C   UNL     1       1.096  13.374  19.113  0.00  0.00    +0.000 A 
ATOM     12  C   UNL     1       1.628  12.079  19.041  0.00  0.00    +0.000 A 
ENDBRANCH   5   7
BRANCH   6  13
ATOM     13  N   UNL     1       0.925   8.959  20.940  0.00  0.00    +0.000 N 
ATOM     14  C   UNL     1      -0.416   8.856  21.248  0.00  0.00    +0.000 A 
ATOM     15  C   UNL     1      -0.584   9.064  22.597  0.00  0.00    +0.000 A 
ATOM     16  C   UNL     1       0.686   9.330  23.142  0.00  0.00    +0.000 A 
ATOM     17  C   UNL     1       1.588   9.262  22.115  0.00  0.00    +0.000 A 
ENDBRANCH   6  13
ENDBRANCH   1   2
BRANCH   1  18
ATOM     18  S   UNL     1       1.031   5.574  20.504  0.00  0.00    +0.000 S 
BRANCH  18  19
ATOM     19  C   UNL     1       1.401   3.865  20.014  0.00  0.00    +0.000 C 
BRANCH  19  21
ATOM     20  N   UNL     1       3.408   3.439  18.669  0.00  0.00    +0.000 N 
ATOM     21  C   UNL     1       2.103   3.898  18.663  0.00  0.00    +0.000 C 
ATOM     22  O   UNL     1       1.557   4.334  17.651  0.00  0.00    +0.000 OA
ATOM     23  H   UNL     1       3.750   2.906  19.459  0.00  0.00    +0.000 HD
BRANCH  20  24
ATOM     24  C   UNL     1       4.160   3.428  17.433  0.00  0.00    +0.000 C 
BRANCH  24  28
ATOM     25  C   UNL     1       6.965   6.702  17.039  0.00  0.00    +0.000 A 
ATOM     26  C   UNL     1       5.711   6.750  16.435  0.00  0.00    +0.000 A 
ATOM     27  C   UNL     1       4.818   5.685  16.578  0.00  0.00    +0.000 A 
ATOM     28  C   UNL     1       5.178   4.531  17.294  0.00  0.00    +0.000 A 
ATOM     29  C   UNL     1       6.434   4.501  17.914  0.00  0.00    +0.000 A 
ATOM     30  C   UNL     1       7.326   5.572  17.774  0.00  0.00    +0.000 A 
BRANCH  25  32
ATOM     31  C   UNL     1       8.178   8.473  18.018  0.00  0.00    +0.000 C 
ATOM     32  O   UNL     1       7.756   7.799  16.837  0.00  0.00    +0.000 OA
ENDBRANCH  25  32
ENDBRANCH  24  28
ENDBRANCH  20  24
ENDBRANCH  19  21
ENDBRANCH  18  19
ENDBRANCH   1  18
TORSDOF 9
ENDMDL
MODEL 5
REMARK VINA RESULT:      -7.1      1.284      1.529
REMARK  Name = 
REMARK  10 active torsions:
REMARK  status: ('A' for Active; 'I' for Inactive)
REMARK    1  A    between atoms: C_1  and  O_2
REMARK    2  A    between atoms: O_2  and  C_3
REMARK    3  A    between atoms: C_6  and  C_7
REMARK    4  A    between atoms: C_7  and  N_8
REMARK    5  A    between atoms: C_9  and  C_11
REMARK    6  A    between atoms: C_11  and  S_12
REMARK    7  A    between atoms: S_12  and  C_13
REMARK    8  A    between atoms: C_13  and  C_14
REMARK    9  A    between atoms: N_17  and  C_18
REMARK   10  A    between atoms: C_24  and  N_25
REMARK                            x       y       z     vdW  Elec       q    Type
REMARK                         _______ _______ _______ _____ _____    ______ ____
ROOT
ATOM      1  C   UNL     1       2.112   5.765  20.919  0.00  0.00    +0.000 C 
ENDROOT
BRANCH   1   2
ATOM      2  C   UNL     1       2.080   6.948  19.995  0.00  0.00    +0.000 A 
ATOM      3  C   UNL     1       2.467   7.022  18.638  0.00  0.00    +0.000 A 
ATOM      4  N   UNL     1       2.105   8.147  18.030  0.00  0.00    +0.000 NA
ATOM      5  N   UNL     1       1.579   8.904  19.020  0.00  0.00    +0.000 N 
ATOM      6  C   UNL     1       1.498   8.189  20.202  0.00  0.00    +0.000 A 
BRANCH   5   7
ATOM      7  C   UNL     1       1.294  10.274  18.767  0.00  0.00    +0.000 A 
ATOM      8  C   UNL     1       0.008  10.761  19.015  0.00  0.00    +0.000 A 
ATOM      9  C   UNL     1      -0.248  12.118  18.844  0.00  0.00    +0.000 A 
ATOM     10  C   UNL     1       0.754  12.982  18.400  0.00  0.00    +0.000 A 
ATOM     11  C   UNL     1       2.027  12.501  18.140  0.00  0.00    +0.000 A 
ATOM     12  C   UNL     1       2.299  11.136  18.309  0.00  0.00    +0.000 A 
ENDBRANCH   5   7
BRANCH   6  13
ATOM     13  N   UNL     1       0.818   8.618  21.334  0.00  0.00    +0.000 N 
ATOM     14  C   UNL     1      -0.525   8.445  21.603  0.00  0.00    +0.000 A 
ATOM     15  C   UNL     1      -0.812   9.000  22.828  0.00  0.00    +0.000 A 
ATOM     16  C   UNL     1       0.380   9.559  23.326  0.00  0.00    +0.000 A 
ATOM     17  C   UNL     1       1.358   9.315  22.399  0.00  0.00    +0.000 A 
ENDBRANCH   6  13
ENDBRANCH   1   2
BRANCH   1  18
ATOM     18  S   UNL     1       1.328   4.297  20.174  0.00  0.00    +0.000 S 
BRANCH  18  19
ATOM     19  C   UNL     1       2.420   2.977  20.774  0.00  0.00    +0.000 C 
BRANCH  19  21
ATOM     20  N   UNL     1       3.501   3.632  18.671  0.00  0.00    +0.000 N 
ATOM     21  C   UNL     1       3.500   2.738  19.727  0.00  0.00    +0.000 C 
ATOM     22  O   UNL     1       4.289   1.798  19.801  0.00  0.00    +0.000 OA
ATOM     23  H   UNL     1       2.981   4.498  18.746  0.00  0.00    +0.000 HD
BRANCH  20  24
ATOM     24  C   UNL     1       4.489   3.492  17.625  0.00  0.00    +0.000 C 
BRANCH  24  28
ATOM     25  C   UNL     1       7.059   6.948  17.184  0.00  0.00    +0.000 A 
ATOM     26  C   UNL     1       5.805   6.899  16.580  0.00  0.00    +0.000 A 
ATOM     27  C   UNL     1       4.989   5.776  16.738  0.00  0.00    +0.000 A 
ATOM     28  C   UNL     1       5.427   4.661  17.470  0.00  0.00    +0.000 A 
ATOM     29  C   UNL     1       6.682   4.727  18.091  0.00  0.00    +0.000 A 
ATOM     30  C   UNL     1       7.497   5.856  17.935  0.00  0.00    +0.000 A 
BRANCH  25  32
ATOM     31  C   UNL     1       8.348   8.685  18.127  0.00  0.00    +0.000 C 
ATOM     32  O   UNL     1       7.772   8.094  16.966  0.00  0.00    +0.000 OA
ENDBRANCH  25  32
ENDBRANCH  24  28
ENDBRANCH  20  24
ENDBRANCH  19  21
ENDBRANCH  18  19
ENDBRANCH   1  18
TORSDOF 9
ENDMDL
MODEL 6
REMARK VINA RESULT:      -7.1      0.898      1.448
REMARK  Name = 
REMARK  10 active torsions:
REMARK  status: ('A' for Active; 'I' for Inactive)
REMARK    1  A    between atoms: C_1  and  O_2
REMARK    2  A    between atoms: O_2  and  C_3
REMARK    3  A    between atoms: C_6  and  C_7
REMARK    4  A    between atoms: C_7  and  N_8
REMARK    5  A    between atoms: C_9  and  C_11
REMARK    6  A    between atoms: C_11  and  S_12
REMARK    7  A    between atoms: S_12  and  C_13
REMARK    8  A    between atoms: C_13  and  C_14
REMARK    9  A    between atoms: N_17  and  C_18
REMARK   10  A    between atoms: C_24  and  N_25
REMARK                            x       y       z     vdW  Elec       q    Type
REMARK                         _______ _______ _______ _____ _____    ______ ____
ROOT
ATOM      1  C   UNL     1       2.646   6.425  19.836  0.00  0.00    +0.000 C 
ENDROOT
BRANCH   1   2
ATOM      2  C   UNL     1       2.263   7.694  19.131  0.00  0.00    +0.000 A 
ATOM      3  C   UNL     1       2.406   8.026  17.765  0.00  0.00    +0.000 A 
ATOM      4  N   UNL     1       1.763   9.131  17.404  0.00  0.00    +0.000 NA
ATOM      5  N   UNL     1       1.282   9.630  18.566  0.00  0.00    +0.000 N 
ATOM      6  C   UNL     1       1.518   8.759  19.615  0.00  0.00    +0.000 A 
BRANCH   5   7
ATOM      7  C   UNL     1       0.730  10.941  18.582  0.00  0.00    +0.000 A 
ATOM      8  C   UNL     1       1.585  12.041  18.680  0.00  0.00    +0.000 A 
ATOM      9  C   UNL     1       1.049  13.323  18.614  0.00  0.00    +0.000 A 
ATOM     10  C   UNL     1      -0.327  13.516  18.484  0.00  0.00    +0.000 A 
ATOM     11  C   UNL     1      -1.179  12.428  18.401  0.00  0.00    +0.000 A 
ATOM     12  C   UNL     1      -0.653  11.130  18.464  0.00  0.00    +0.000 A 
ENDBRANCH   5   7
BRANCH   6  13
ATOM     13  N   UNL     1       0.967   8.890  20.883  0.00  0.00    +0.000 N 
ATOM     14  C   UNL     1      -0.359   8.723  21.225  0.00  0.00    +0.000 A 
ATOM     15  C   UNL     1      -0.503   8.927  22.578  0.00  0.00    +0.000 A 
ATOM     16  C   UNL     1       0.767   9.256  23.089  0.00  0.00    +0.000 A 
ATOM     17  C   UNL     1       1.644   9.228  22.039  0.00  0.00    +0.000 A 
ENDBRANCH   6  13
ENDBRANCH   1   2
BRANCH   1  18
ATOM     18  S   UNL     1       1.209   5.620  20.619  0.00  0.00    +0.000 S 
BRANCH  18  19
ATOM     19  C   UNL     1       1.148   4.052  19.705  0.00  0.00    +0.000 C 
BRANCH  19  21
ATOM     20  N   UNL     1       2.844   3.660  17.977  0.00  0.00    +0.000 N 
ATOM     21  C   UNL     1       2.572   3.663  19.332  0.00  0.00    +0.000 C 
ATOM     22  O   UNL     1       3.407   3.341  20.177  0.00  0.00    +0.000 OA
ATOM     23  H   UNL     1       2.209   4.120  17.336  0.00  0.00    +0.000 HD
BRANCH  20  24
ATOM     24  C   UNL     1       4.170   3.306  17.521  0.00  0.00    +0.000 C 
BRANCH  24  28
ATOM     25  C   UNL     1       6.996   6.538  16.963  0.00  0.00    +0.000 A 
ATOM     26  C   UNL     1       7.344   5.389  17.669  0.00  0.00    +0.000 A 
ATOM     27  C   UNL     1       6.419   4.355  17.834  0.00  0.00    +0.000 A 
ATOM     28  C   UNL     1       5.113   4.467  17.331  0.00  0.00    +0.000 A 
ATOM     29  C   UNL     1       4.778   5.619  16.607  0.00  0.00    +0.000 A 
ATOM     30  C   UNL     1       5.709   6.652  16.438  0.00  0.00    +0.000 A 
BRANCH  25  32
ATOM     31  C   UNL     1       7.872   8.576  17.767  0.00  0.00    +0.000 C 
ATOM     32  O   UNL     1       7.979   7.484  16.859  0.00  0.00    +0.000 OA
ENDBRANCH  25  32
ENDBRANCH  24  28
ENDBRANCH  20  24
ENDBRANCH  19  21
ENDBRANCH  18  19
ENDBRANCH   1  18
TORSDOF 9
ENDMDL
MODEL 7
REMARK VINA RESULT:      -6.8      1.646      2.220
REMARK  Name = 
REMARK  10 active torsions:
REMARK  status: ('A' for Active; 'I' for Inactive)
REMARK    1  A    between atoms: C_1  and  O_2
REMARK    2  A    between atoms: O_2  and  C_3
REMARK    3  A    between atoms: C_6  and  C_7
REMARK    4  A    between atoms: C_7  and  N_8
REMARK    5  A    between atoms: C_9  and  C_11
REMARK    6  A    between atoms: C_11  and  S_12
REMARK    7  A    between atoms: S_12  and  C_13
REMARK    8  A    between atoms: C_13  and  C_14
REMARK    9  A    between atoms: N_17  and  C_18
REMARK   10  A    between atoms: C_24  and  N_25
REMARK                            x       y       z     vdW  Elec       q    Type
REMARK                         _______ _______ _______ _____ _____    ______ ____
ROOT
ATOM      1  C   UNL     1       2.011   5.945  20.418  0.00  0.00    +0.000 C 
ENDROOT
BRANCH   1   2
ATOM      2  C   UNL     1       1.951   7.190  19.580  0.00  0.00    +0.000 A 
ATOM      3  C   UNL     1       2.245   7.347  18.206  0.00  0.00    +0.000 A 
ATOM      4  N   UNL     1       1.876   8.520  17.703  0.00  0.00    +0.000 NA
ATOM      5  N   UNL     1       1.442   9.220  18.776  0.00  0.00    +0.000 N 
ATOM      6  C   UNL     1       1.421   8.428  19.910  0.00  0.00    +0.000 A 
BRANCH   5   7
ATOM      7  C   UNL     1       1.180  10.611  18.636  0.00  0.00    +0.000 A 
ATOM      8  C   UNL     1      -0.134  11.072  18.740  0.00  0.00    +0.000 A 
ATOM      9  C   UNL     1      -0.378  12.441  18.684  0.00  0.00    +0.000 A 
ATOM     10  C   UNL     1       0.668  13.345  18.494  0.00  0.00    +0.000 A 
ATOM     11  C   UNL     1       1.970  12.891  18.376  0.00  0.00    +0.000 A 
ATOM     12  C   UNL     1       2.231  11.515  18.432  0.00  0.00    +0.000 A 
ENDBRANCH   5   7
BRANCH   6  13
ATOM     13  N   UNL     1       0.834   8.794  21.114  0.00  0.00    +0.000 N 
ATOM     14  C   UNL     1      -0.514   8.780  21.409  0.00  0.00    +0.000 A 
ATOM     15  C   UNL     1      -0.693   9.203  22.706  0.00  0.00    +0.000 A 
ATOM     16  C   UNL     1       0.578   9.514  23.226  0.00  0.00    +0.000 A 
ATOM     17  C   UNL     1       1.491   9.258  22.238  0.00  0.00    +0.000 A 
ENDBRANCH   6  13
ENDBRANCH   1   2
BRANCH   1  18
ATOM     18  S   UNL     1       1.841   4.436  19.409  0.00  0.00    +0.000 S 
BRANCH  18  19
ATOM     19  C   UNL     1       2.830   3.258  20.376  0.00  0.00    +0.000 C 
BRANCH  19  21
ATOM     20  N   UNL     1       4.639   4.480  19.258  0.00  0.00    +0.000 N 
ATOM     21  C   UNL     1       4.258   3.290  19.849  0.00  0.00    +0.000 C 
ATOM     22  O   UNL     1       5.003   2.313  19.915  0.00  0.00    +0.000 OA
ATOM     23  H   UNL     1       4.083   5.314  19.402  0.00  0.00    +0.000 HD
BRANCH  20  24
ATOM     24  C   UNL     1       5.978   4.610  18.728  0.00  0.00    +0.000 C 
BRANCH  24  28
ATOM     25  C   UNL     1       6.438   4.291  14.435  0.00  0.00    +0.000 A 
ATOM     26  C   UNL     1       7.445   4.831  15.230  0.00  0.00    +0.000 A 
ATOM     27  C   UNL     1       7.280   4.921  16.615  0.00  0.00    +0.000 A 
ATOM     28  C   UNL     1       6.085   4.511  17.227  0.00  0.00    +0.000 A 
ATOM     29  C   UNL     1       5.085   3.951  16.421  0.00  0.00    +0.000 A 
ATOM     30  C   UNL     1       5.255   3.857  15.034  0.00  0.00    +0.000 A 
BRANCH  25  32
ATOM     31  C   UNL     1       7.702   5.161  12.642  0.00  0.00    +0.000 C 
ATOM     32  O   UNL     1       6.707   4.248  13.095  0.00  0.00    +0.000 OA
ENDBRANCH  25  32
ENDBRANCH  24  28
ENDBRANCH  20  24
ENDBRANCH  19  21
ENDBRANCH  18  19
ENDBRANCH   1  18
TORSDOF 9
ENDMDL
MODEL 8
REMARK VINA RESULT:      -6.7      2.696      4.396
REMARK  Name = 
REMARK  10 active torsions:
REMARK  status: ('A' for Active; 'I' for Inactive)
REMARK    1  A    between atoms: C_1  and  O_2
REMARK    2  A    between atoms: O_2  and  C_3
REMARK    3  A    between atoms: C_6  and  C_7
REMARK    4  A    between atoms: C_7  and  N_8
REMARK    5  A    between atoms: C_9  and  C_11
REMARK    6  A    between atoms: C_11  and  S_12
REMARK    7  A    between atoms: S_12  and  C_13
REMARK    8  A    between atoms: C_13  and  C_14
REMARK    9  A    between atoms: N_17  and  C_18
REMARK   10  A    between atoms: C_24  and  N_25
REMARK                            x       y       z     vdW  Elec       q    Type
REMARK                         _______ _______ _______ _____ _____    ______ ____
ROOT
ATOM      1  C   UNL     1       1.883  11.045  18.271  0.00  0.00    +0.000 C 
ENDROOT
BRANCH   1   2
ATOM      2  C   UNL     1       1.123  11.560  19.460  0.00  0.00    +0.000 A 
ATOM      3  C   UNL     1       1.614  12.242  20.596  0.00  0.00    +0.000 A 
ATOM      4  N   UNL     1       0.666  12.770  21.364  0.00  0.00    +0.000 NA
ATOM      5  N   UNL     1      -0.489  12.331  20.815  0.00  0.00    +0.000 N 
ATOM      6  C   UNL     1      -0.249  11.648  19.635  0.00  0.00    +0.000 A 
BRANCH   5   7
ATOM      7  C   UNL     1      -1.709  12.520  21.521  0.00  0.00    +0.000 A 
ATOM      8  C   UNL     1      -2.759  13.199  20.899  0.00  0.00    +0.000 A 
ATOM      9  C   UNL     1      -3.978  13.314  21.561  0.00  0.00    +0.000 A 
ATOM     10  C   UNL     1      -4.146  12.788  22.842  0.00  0.00    +0.000 A 
ATOM     11  C   UNL     1      -3.102  12.126  23.468  0.00  0.00    +0.000 A 
ATOM     12  C   UNL     1      -1.869  12.002  22.813  0.00  0.00    +0.000 A 
ENDBRANCH   5   7
BRANCH   6  13
ATOM     13  N   UNL     1      -1.235  11.258  18.739  0.00  0.00    +0.000 N 
ATOM     14  C   UNL     1      -1.721  11.997  17.679  0.00  0.00    +0.000 A 
ATOM     15  C   UNL     1      -2.682  11.262  17.023  0.00  0.00    +0.000 A 
ATOM     16  C   UNL     1      -2.817  10.041  17.710  0.00  0.00    +0.000 A 
ATOM     17  C   UNL     1      -1.928  10.062  18.750  0.00  0.00    +0.000 A 
ENDBRANCH   6  13
ENDBRANCH   1   2
BRANCH   1  18
ATOM     18  S   UNL     1       1.675   9.246  18.056  0.00  0.00    +0.000 S 
BRANCH  18  19
ATOM     19  C   UNL     1       1.457   8.713  19.779  0.00  0.00    +0.000 C 
BRANCH  19  21
ATOM     20  N   UNL     1       3.038   7.009  18.996  0.00  0.00    +0.000 N 
ATOM     21  C   UNL     1       2.069   7.327  19.929  0.00  0.00    +0.000 C 
ATOM     22  O   UNL     1       1.700   6.538  20.798  0.00  0.00    +0.000 OA
ATOM     23  H   UNL     1       3.456   7.742  18.435  0.00  0.00    +0.000 HD
BRANCH  20  24
ATOM     24  C   UNL     1       3.682   5.715  19.055  0.00  0.00    +0.000 C 
BRANCH  24  28
ATOM     25  C   UNL     1       6.815   5.242  16.105  0.00  0.00    +0.000 A 
ATOM     26  C   UNL     1       5.585   5.803  15.769  0.00  0.00    +0.000 A 
ATOM     27  C   UNL     1       4.588   5.952  16.736  0.00  0.00    +0.000 A 
ATOM     28  C   UNL     1       4.787   5.503  18.052  0.00  0.00    +0.000 A 
ATOM     29  C   UNL     1       6.034   4.957  18.386  0.00  0.00    +0.000 A 
ATOM     30  C   UNL     1       7.034   4.815  17.415  0.00  0.00    +0.000 A 
BRANCH  25  32
ATOM     31  C   UNL     1       7.168   4.810  13.813  0.00  0.00    +0.000 C 
ATOM     32  O   UNL     1       7.717   5.148  15.082  0.00  0.00    +0.000 OA
ENDBRANCH  25  32
ENDBRANCH  24  28
ENDBRANCH  20  24
ENDBRANCH  19  21
ENDBRANCH  18  19
ENDBRANCH   1  18
TORSDOF 9
ENDMDL
MODEL 9
REMARK VINA RESULT:      -6.7      2.755      8.709
REMARK  Name = 
REMARK  10 active torsions:
REMARK  status: ('A' for Active; 'I' for Inactive)
REMARK    1  A    between atoms: C_1  and  O_2
REMARK    2  A    between atoms: O_2  and  C_3
REMARK    3  A    between atoms: C_6  and  C_7
REMARK    4  A    between atoms: C_7  and  N_8
REMARK    5  A    between atoms: C_9  and  C_11
REMARK    6  A    between atoms: C_11  and  S_12
REMARK    7  A    between atoms: S_12  and  C_13
REMARK    8  A    between atoms: C_13  and  C_14
REMARK    9  A    between atoms: N_17  and  C_18
REMARK   10  A    between atoms: C_24  and  N_25
REMARK                            x       y       z     vdW  Elec       q    Type
REMARK                         _______ _______ _______ _____ _____    ______ ____
ROOT
ATOM      1  C   UNL     1       4.100   4.955  19.736  0.00  0.00    +0.000 C 
ENDROOT
BRANCH   1   2
ATOM      2  C   UNL     1       4.346   4.492  18.329  0.00  0.00    +0.000 A 
ATOM      3  C   UNL     1       3.566   3.622  17.534  0.00  0.00    +0.000 A 
ATOM      4  N   UNL     1       3.924   3.588  16.254  0.00  0.00    +0.000 NA
ATOM      5  N   UNL     1       5.044   4.344  16.203  0.00  0.00    +0.000 N 
ATOM      6  C   UNL     1       5.292   4.948  17.423  0.00  0.00    +0.000 A 
BRANCH   5   7
ATOM      7  C   UNL     1       5.829   4.340  15.017  0.00  0.00    +0.000 A 
ATOM      8  C   UNL     1       5.407   3.583  13.922  0.00  0.00    +0.000 A 
ATOM      9  C   UNL     1       6.132   3.643  12.736  0.00  0.00    +0.000 A 
ATOM     10  C   UNL     1       7.286   4.423  12.645  0.00  0.00    +0.000 A 
ATOM     11  C   UNL     1       7.717   5.163  13.733  0.00  0.00    +0.000 A 
ATOM     12  C   UNL     1       6.995   5.113  14.933  0.00  0.00    +0.000 A 
ENDBRANCH   5   7
BRANCH   6  13
ATOM     13  N   UNL     1       6.241   5.940  17.630  0.00  0.00    +0.000 N 
ATOM     14  C   UNL     1       6.210   7.226  17.130  0.00  0.00    +0.000 A 
ATOM     15  C   UNL     1       7.324   7.905  17.568  0.00  0.00    +0.000 A 
ATOM     16  C   UNL     1       8.084   7.008  18.342  0.00  0.00    +0.000 A 
ATOM     17  C   UNL     1       7.406   5.819  18.365  0.00  0.00    +0.000 A 
ENDBRANCH   6  13
ENDBRANCH   1   2
BRANCH   1  18
ATOM     18  S   UNL     1       2.414   5.613  19.951  0.00  0.00    +0.000 S 
BRANCH  18  19
ATOM     19  C   UNL     1       2.415   6.973  18.746  0.00  0.00    +0.000 C 
BRANCH  19  21
ATOM     20  N   UNL     1       1.579   9.272  18.564  0.00  0.00    +0.000 N 
ATOM     21  C   UNL     1       1.780   8.191  19.403  0.00  0.00    +0.000 C 
ATOM     22  O   UNL     1       1.500   8.220  20.600  0.00  0.00    +0.000 OA
ATOM     23  H   UNL     1       1.629   9.145  17.561  0.00  0.00    +0.000 HD
BRANCH  20  24
ATOM     24  C   UNL     1       0.979  10.477  19.093  0.00  0.00    +0.000 C 
BRANCH  24  28
ATOM     25  C   UNL     1      -3.102  11.320  17.922  0.00  0.00    +0.000 A 
ATOM     26  C   UNL     1      -2.488  12.023  18.956  0.00  0.00    +0.000 A 
ATOM     27  C   UNL     1      -1.168  11.739  19.316  0.00  0.00    +0.000 A 
ATOM     28  C   UNL     1      -0.449  10.717  18.676  0.00  0.00    +0.000 A 
ATOM     29  C   UNL     1      -1.069  10.029  17.624  0.00  0.00    +0.000 A 
ATOM     30  C   UNL     1      -2.391  10.319  17.261  0.00  0.00    +0.000 A 
BRANCH  25  32
ATOM     31  C   UNL     1      -5.392  10.944  18.349  0.00  0.00    +0.000 C 
ATOM     32  O   UNL     1      -4.393  11.682  17.652  0.00  0.00    +0.000 OA
ENDBRANCH  25  32
ENDBRANCH  24  28
ENDBRANCH  20  24
ENDBRANCH  19  21
ENDBRANCH  18  19
ENDBRANCH   1  18
TORSDOF 9
ENDMDL
