MODEL 1
REMARK VINA RESULT:      -7.5      0.000      0.000
REMARK  Name = 
REMARK  9 active torsions:
REMARK  status: ('A' for Active; 'I' for Inactive)
REMARK    1  A    between atoms: C_1  and  O_2
REMARK    2  A    between atoms: O_2  and  C_3
REMARK    3  A    between atoms: N_8  and  C_9
REMARK    4  A    between atoms: C_9  and  C_10
REMARK    5  A    between atoms: N_12  and  C_13
REMARK    6  A    between atoms: C_13  and  C_14
REMARK    7  A    between atoms: C_13  and  C_15
REMARK    8  A    between atoms: C_18  and  O_19
REMARK    9  A    between atoms: O_19  and  C_20
REMARK                            x       y       z     vdW  Elec       q    Type
REMARK                         _______ _______ _______ _____ _____    ______ ____
ROOT
ATOM      1  C   UNL     1       3.391   3.708  17.582  0.00  0.00    +0.000 C 
ATOM      2  O   UNL     1       2.329   3.369  17.061  0.00  0.00    +0.000 OA
ATOM      3  N   UNL     1       3.447   4.435  18.747  0.00  0.00    +0.000 N 
ATOM      4  H   UNL     1       4.370   4.686  19.095  0.00  0.00    +0.000 HD
ENDROOT
BRANCH   3   5
ATOM      5  C   UNL     1       2.265   4.738  19.536  0.00  0.00    +0.000 C 
ATOM      6  C   UNL     1       2.414   4.209  20.964  0.00  0.00    +0.000 C 
BRANCH   5   7
ATOM      7  C   UNL     1       1.974   6.227  19.506  0.00  0.00    +0.000 A 
ATOM      8  C   UNL     1       2.253   6.972  18.353  0.00  0.00    +0.000 A 
ATOM      9  C   UNL     1       2.028   8.350  18.327  0.00  0.00    +0.000 A 
ATOM     10  C   UNL     1       1.514   9.016  19.443  0.00  0.00    +0.000 A 
ATOM     11  C   UNL     1       1.251   8.287  20.600  0.00  0.00    +0.000 A 
ATOM     12  C   UNL     1       1.460   6.902  20.624  0.00  0.00    +0.000 A 
BRANCH  10  13
ATOM     13  O   UNL     1       1.371  10.358  19.277  0.00  0.00    +0.000 OA
BRANCH  13  14
ATOM     14  C   UNL     1       0.081  10.927  19.111  0.00  0.00    +0.000 C 
ATOM     15  F   UNL     1      -0.718  10.821  20.193  0.00  0.00    +0.000 F 
ATOM     16  F   UNL     1       0.203  12.232  18.785  0.00  0.00    +0.000 F 
ATOM     17  F   UNL     1      -0.532  10.294  18.086  0.00  0.00    +0.000 F 
ENDBRANCH  13  14
ENDBRANCH  10  13
ENDBRANCH   5   7
ENDBRANCH   3   5
BRANCH   1  18
ATOM     18  C   UNL     1       4.730   3.505  16.878  0.00  0.00    +0.000 C 
BRANCH  18  24
ATOM     19  C   UNL     1       8.017   8.312  17.875  0.00  0.00    +0.000 A 
ATOM     20  C   UNL     1       8.533   7.496  18.966  0.00  0.00    +0.000 A 
ATOM     21  C   UNL     1       8.103   6.239  19.177  0.00  0.00    +0.000 A 
ATOM     22  C   UNL     1       7.098   5.691  18.243  0.00  0.00    +0.000 A 
ATOM     23  N   UNL     1       6.537   4.521  18.270  0.00  0.00    +0.000 NA
ATOM     24  N   UNL     1       5.674   4.553  17.184  0.00  0.00    +0.000 N 
ATOM     25  C   UNL     1       5.762   5.782  16.514  0.00  0.00    +0.000 A 
ATOM     26  O   UNL     1       5.129   6.136  15.532  0.00  0.00    +0.000 OA
ATOM     27  N   UNL     1       6.698   6.497  17.223  0.00  0.00    +0.000 N 
ATOM     28  C   UNL     1       7.123   7.777  17.022  0.00  0.00    +0.000 A 
BRANCH  19  30
ATOM     29  C   UNL     1       9.166  10.008  19.067  0.00  0.00    +0.000 C 
ATOM     30  O   UNL     1       8.502   9.595  17.874  0.00  0.00    +0.000 OA
ENDBRANCH  19  30
ENDBRANCH  18  24
ENDBRANCH   1  18
TORSDOF 7
ENDMDL
MODEL 2
REMARK VINA RESULT:      -7.3      3.327      6.578
REMARK  Name = 
REMARK  9 active torsions:
REMARK  status: ('A' for Active; 'I' for Inactive)
REMARK    1  A    between atoms: C_1  and  O_2
REMARK    2  A    between atoms: O_2  and  C_3
REMARK    3  A    between atoms: N_8  and  C_9
REMARK    4  A    between atoms: C_9  and  C_10
REMARK    5  A    between atoms: N_12  and  C_13
REMARK    6  A    between atoms: C_13  and  C_14
REMARK    7  A    between atoms: C_13  and  C_15
REMARK    8  A    between atoms: C_18  and  O_19
REMARK    9  A    between atoms: O_19  and  C_20
REMARK                            x       y       z     vdW  Elec       q    Type
REMARK                         _______ _______ _______ _____ _____    ______ ____
ROOT
ATOM      1  C   UNL     1       4.731   3.786  18.600  0.00  0.00    +0.000 C 
ATOM      2  O   UNL     1       5.530   3.452  19.474  0.00  0.00    +0.000 OA
ATOM      3  N   UNL     1       5.127   4.316  17.395  0.00  0.00    +0.000 N 
ATOM      4  H   UNL     1       4.395   4.580  16.740  0.00  0.00    +0.000 HD
ENDROOT
BRANCH   3   5
ATOM      5  C   UNL     1       6.522   4.390  16.996  0.00  0.00    +0.000 C 
ATOM      6  C   UNL     1       6.664   4.218  15.482  0.00  0.00    +0.000 C 
BRANCH   5   7
ATOM      7  C   UNL     1       7.146   5.684  17.485  0.00  0.00    +0.000 A 
ATOM      8  C   UNL     1       7.854   5.708  18.694  0.00  0.00    +0.000 A 
ATOM      9  C   UNL     1       8.397   6.901  19.174  0.00  0.00    +0.000 A 
ATOM     10  C   UNL     1       8.256   8.095  18.460  0.00  0.00    +0.000 A 
ATOM     11  C   UNL     1       7.538   8.084  17.267  0.00  0.00    +0.000 A 
ATOM     12  C   UNL     1       7.006   6.886  16.774  0.00  0.00    +0.000 A 
BRANCH  10  13
ATOM     13  O   UNL     1       8.817   9.176  19.063  0.00  0.00    +0.000 OA
BRANCH  13  14
ATOM     14  C   UNL     1       8.896  10.418  18.381  0.00  0.00    +0.000 C 
ATOM     15  F   UNL     1       7.816  10.708  17.626  0.00  0.00    +0.000 F 
ATOM     16  F   UNL     1       9.083  11.413  19.275  0.00  0.00    +0.000 F 
ATOM     17  F   UNL     1       9.971  10.383  17.562  0.00  0.00    +0.000 F 
ENDBRANCH  13  14
ENDBRANCH  10  13
ENDBRANCH   5   7
ENDBRANCH   3   5
BRANCH   1  18
ATOM     18  C   UNL     1       3.227   3.809  18.857  0.00  0.00    +0.000 C 
BRANCH  18  24
ATOM     19  C   UNL     1       1.372   9.307  19.964  0.00  0.00    +0.000 A 
ATOM     20  C   UNL     1       1.678   9.488  18.552  0.00  0.00    +0.000 A 
ATOM     21  C   UNL     1       2.138   8.479  17.791  0.00  0.00    +0.000 A 
ATOM     22  C   UNL     1       2.303   7.157  18.429  0.00  0.00    +0.000 A 
ATOM     23  N   UNL     1       2.745   6.061  17.893  0.00  0.00    +0.000 NA
ATOM     24  N   UNL     1       2.706   5.151  18.940  0.00  0.00    +0.000 N 
ATOM     25  C   UNL     1       2.210   5.756  20.105  0.00  0.00    +0.000 A 
ATOM     26  O   UNL     1       2.062   5.238  21.201  0.00  0.00    +0.000 OA
ATOM     27  N   UNL     1       1.954   7.056  19.740  0.00  0.00    +0.000 N 
ATOM     28  C   UNL     1       1.504   8.085  20.513  0.00  0.00    +0.000 A 
BRANCH  19  30
ATOM     29  C   UNL     1      -0.208  10.408  21.347  0.00  0.00    +0.000 C 
ATOM     30  O   UNL     1       1.005  10.468  20.598  0.00  0.00    +0.000 OA
ENDBRANCH  19  30
ENDBRANCH  18  24
ENDBRANCH   1  18
TORSDOF 7
ENDMDL
MODEL 3
REMARK VINA RESULT:      -7.1      3.219      5.402
REMARK  Name = 
REMARK  9 active torsions:
REMARK  status: ('A' for Active; 'I' for Inactive)
REMARK    1  A    between atoms: C_1  and  O_2
REMARK    2  A    between atoms: O_2  and  C_3
REMARK    3  A    between atoms: N_8  and  C_9
REMARK    4  A    between atoms: C_9  and  C_10
REMARK    5  A    between atoms: N_12  and  C_13
REMARK    6  A    between atoms: C_13  and  C_14
REMARK    7  A    between atoms: C_13  and  C_15
REMARK    8  A    between atoms: C_18  and  O_19
REMARK    9  A    between atoms: O_19  and  C_20
REMARK                            x       y       z     vdW  Elec       q    Type
REMARK                         _______ _______ _______ _____ _____    ______ ____
ROOT
ATOM      1  C   UNL     1       1.548   8.217  20.451  0.00  0.00    +0.000 C 
ATOM      2  O   UNL     1       1.612   8.791  21.537  0.00  0.00    +0.000 OA
ATOM      3  N   UNL     1       1.199   8.863  19.289  0.00  0.00    +0.000 N 
ATOM      4  H   UNL     1       1.154   8.302  18.441  0.00  0.00    +0.000 HD
ENDROOT
BRANCH   3   5
ATOM      5  C   UNL     1       1.018  10.303  19.220  0.00  0.00    +0.000 C 
ATOM      6  C   UNL     1       2.040  10.934  18.272  0.00  0.00    +0.000 C 
BRANCH   5   7
ATOM      7  C   UNL     1      -0.409  10.641  18.830  0.00  0.00    +0.000 A 
ATOM      8  C   UNL     1      -0.996  10.021  17.719  0.00  0.00    +0.000 A 
ATOM      9  C   UNL     1      -2.294  10.354  17.325  0.00  0.00    +0.000 A 
ATOM     10  C   UNL     1      -3.039  11.304  18.031  0.00  0.00    +0.000 A 
ATOM     11  C   UNL     1      -2.456  11.939  19.125  0.00  0.00    +0.000 A 
ATOM     12  C   UNL     1      -1.160  11.595  19.532  0.00  0.00    +0.000 A 
BRANCH  10  13
ATOM     13  O   UNL     1      -4.275  11.540  17.517  0.00  0.00    +0.000 OA
BRANCH  13  14
ATOM     14  C   UNL     1      -5.437  11.191  18.253  0.00  0.00    +0.000 C 
ATOM     15  F   UNL     1      -5.548  11.811  19.446  0.00  0.00    +0.000 F 
ATOM     16  F   UNL     1      -6.536  11.463  17.516  0.00  0.00    +0.000 F 
ATOM     17  F   UNL     1      -5.407   9.859  18.485  0.00  0.00    +0.000 F 
ENDBRANCH  13  14
ENDBRANCH  10  13
ENDBRANCH   5   7
ENDBRANCH   3   5
BRANCH   1  18
ATOM     18  C   UNL     1       1.674   6.700  20.338  0.00  0.00    +0.000 C 
BRANCH  18  24
ATOM     19  C   UNL     1       5.336   4.379  16.325  0.00  0.00    +0.000 A 
ATOM     20  C   UNL     1       5.457   5.771  15.914  0.00  0.00    +0.000 A 
ATOM     21  C   UNL     1       4.804   6.759  16.552  0.00  0.00    +0.000 A 
ATOM     22  C   UNL     1       3.969   6.391  17.714  0.00  0.00    +0.000 A 
ATOM     23  N   UNL     1       3.246   7.172  18.457  0.00  0.00    +0.000 NA
ATOM     24  N   UNL     1       2.670   6.304  19.373  0.00  0.00    +0.000 N 
ATOM     25  C   UNL     1       3.097   4.987  19.145  0.00  0.00    +0.000 A 
ATOM     26  O   UNL     1       2.768   3.986  19.762  0.00  0.00    +0.000 OA
ATOM     27  N   UNL     1       3.942   5.078  18.064  0.00  0.00    +0.000 N 
ATOM     28  C   UNL     1       4.591   4.077  17.405  0.00  0.00    +0.000 A 
BRANCH  19  30
ATOM     29  C   UNL     1       6.232   3.964  14.170  0.00  0.00    +0.000 C 
ATOM     30  O   UNL     1       5.998   3.505  15.500  0.00  0.00    +0.000 OA
ENDBRANCH  19  30
ENDBRANCH  18  24
ENDBRANCH   1  18
TORSDOF 7
ENDMDL
MODEL 4
REMARK VINA RESULT:      -7.0      4.932      8.979
REMARK  Name = 
REMARK  9 active torsions:
REMARK  status: ('A' for Active; 'I' for Inactive)
REMARK    1  A    between atoms: C_1  and  O_2
REMARK    2  A    between atoms: O_2  and  C_3
REMARK    3  A    between atoms: N_8  and  C_9
REMARK    4  A    between atoms: C_9  and  C_10
REMARK    5  A    between atoms: N_12  and  C_13
REMARK    6  A    between atoms: C_13  and  C_14
REMARK    7  A    between atoms: C_13  and  C_15
REMARK    8  A    between atoms: C_18  and  O_19
REMARK    9  A    between atoms: O_19  and  C_20
REMARK                            x       y       z     vdW  Elec       q    Type
REMARK                         _______ _______ _______ _____ _____    ______ ____
ROOT
ATOM      1  C   UNL     1       1.301   9.021  20.636  0.00  0.00    +0.000 C 
ATOM      2  O   UNL     1       1.149   8.831  21.842  0.00  0.00    +0.000 OA
ATOM      3  N   UNL     1       1.856   8.082  19.801  0.00  0.00    +0.000 N 
ATOM      4  H   UNL     1       1.959   8.333  18.820  0.00  0.00    +0.000 HD
ENDROOT
BRANCH   3   5
ATOM      5  C   UNL     1       2.176   6.735  20.243  0.00  0.00    +0.000 C 
ATOM      6  C   UNL     1       0.905   5.897  20.396  0.00  0.00    +0.000 C 
BRANCH   5   7
ATOM      7  C   UNL     1       3.175   6.090  19.301  0.00  0.00    +0.000 A 
ATOM      8  C   UNL     1       3.380   6.627  18.023  0.00  0.00    +0.000 A 
ATOM      9  C   UNL     1       4.267   6.017  17.132  0.00  0.00    +0.000 A 
ATOM     10  C   UNL     1       4.975   4.868  17.495  0.00  0.00    +0.000 A 
ATOM     11  C   UNL     1       4.763   4.317  18.755  0.00  0.00    +0.000 A 
ATOM     12  C   UNL     1       3.887   4.934  19.658  0.00  0.00    +0.000 A 
BRANCH  10  13
ATOM     13  O   UNL     1       5.782   4.377  16.517  0.00  0.00    +0.000 OA
BRANCH  13  14
ATOM     14  C   UNL     1       7.122   4.829  16.398  0.00  0.00    +0.000 C 
ATOM     15  F   UNL     1       7.280   6.157  16.574  0.00  0.00    +0.000 F 
ATOM     16  F   UNL     1       7.899   4.175  17.288  0.00  0.00    +0.000 F 
ATOM     17  F   UNL     1       7.561   4.525  15.156  0.00  0.00    +0.000 F 
ENDBRANCH  13  14
ENDBRANCH  10  13
ENDBRANCH   5   7
ENDBRANCH   3   5
BRANCH   1  18
ATOM     18  C   UNL     1       1.051  10.387  20.003  0.00  0.00    +0.000 C 
BRANCH  18  24
ATOM     19  C   UNL     1      -4.143  11.355  17.359  0.00  0.00    +0.000 A 
ATOM     20  C   UNL     1      -3.569  10.483  16.343  0.00  0.00    +0.000 A 
ATOM     21  C   UNL     1      -2.344   9.945  16.480  0.00  0.00    +0.000 A 
ATOM     22  C   UNL     1      -1.595  10.246  17.717  0.00  0.00    +0.000 A 
ATOM     23  N   UNL     1      -0.403   9.851  18.045  0.00  0.00    +0.000 NA
ATOM     24  N   UNL     1      -0.200  10.438  19.286  0.00  0.00    +0.000 N 
ATOM     25  C   UNL     1      -1.325  11.178  19.676  0.00  0.00    +0.000 A 
ATOM     26  O   UNL     1      -1.466  11.825  20.702  0.00  0.00    +0.000 OA
ATOM     27  N   UNL     1      -2.215  11.030  18.639  0.00  0.00    +0.000 N 
ATOM     28  C   UNL     1      -3.450  11.588  18.490  0.00  0.00    +0.000 A 
BRANCH  19  30
ATOM     29  C   UNL     1      -6.447  11.573  17.873  0.00  0.00    +0.000 C 
ATOM     30  O   UNL     1      -5.358  11.883  17.005  0.00  0.00    +0.000 OA
ENDBRANCH  19  30
ENDBRANCH  18  24
ENDBRANCH   1  18
TORSDOF 7
ENDMDL
MODEL 5
REMARK VINA RESULT:      -7.0      4.943      9.119
REMARK  Name = 
REMARK  9 active torsions:
REMARK  status: ('A' for Active; 'I' for Inactive)
REMARK    1  A    between atoms: C_1  and  O_2
REMARK    2  A    between atoms: O_2  and  C_3
REMARK    3  A    between atoms: N_8  and  C_9
REMARK    4  A    between atoms: C_9  and  C_10
REMARK    5  A    between atoms: N_12  and  C_13
REMARK    6  A    between atoms: C_13  and  C_14
REMARK    7  A    between atoms: C_13  and  C_15
REMARK    8  A    between atoms: C_18  and  O_19
REMARK    9  A    between atoms: O_19  and  C_20
REMARK                            x       y       z     vdW  Elec       q    Type
REMARK                         _______ _______ _______ _____ _____    ______ ____
ROOT
ATOM      1  C   UNL     1       2.093   8.446  18.624  0.00  0.00    +0.000 C 
ATOM      2  O   UNL     1       1.823   8.180  19.794  0.00  0.00    +0.000 OA
ATOM      3  N   UNL     1       2.864   7.627  17.835  0.00  0.00    +0.000 N 
ATOM      4  H   UNL     1       3.051   7.937  16.884  0.00  0.00    +0.000 HD
ENDROOT
BRANCH   3   5
ATOM      5  C   UNL     1       3.303   6.312  18.271  0.00  0.00    +0.000 C 
ATOM      6  C   UNL     1       2.109   5.451  18.690  0.00  0.00    +0.000 C 
BRANCH   5   7
ATOM      7  C   UNL     1       4.136   5.645  17.191  0.00  0.00    +0.000 A 
ATOM      8  C   UNL     1       4.180   4.248  17.103  0.00  0.00    +0.000 A 
ATOM      9  C   UNL     1       4.976   3.623  16.140  0.00  0.00    +0.000 A 
ATOM     10  C   UNL     1       5.737   4.373  15.239  0.00  0.00    +0.000 A 
ATOM     11  C   UNL     1       5.714   5.762  15.331  0.00  0.00    +0.000 A 
ATOM     12  C   UNL     1       4.904   6.392  16.285  0.00  0.00    +0.000 A 
BRANCH  10  13
ATOM     13  O   UNL     1       6.477   3.627  14.376  0.00  0.00    +0.000 OA
BRANCH  13  14
ATOM     14  C   UNL     1       6.263   3.726  12.976  0.00  0.00    +0.000 C 
ATOM     15  F   UNL     1       6.906   4.755  12.387  0.00  0.00    +0.000 F 
ATOM     16  F   UNL     1       6.644   2.574  12.380  0.00  0.00    +0.000 F 
ATOM     17  F   UNL     1       4.939   3.891  12.762  0.00  0.00    +0.000 F 
ENDBRANCH  13  14
ENDBRANCH  10  13
ENDBRANCH   5   7
ENDBRANCH   3   5
BRANCH   1  18
ATOM     18  C   UNL     1       1.743   9.798  18.009  0.00  0.00    +0.000 C 
BRANCH  18  24
ATOM     19  C   UNL     1      -3.454  12.194  19.477  0.00  0.00    +0.000 A 
ATOM     20  C   UNL     1      -3.934  11.334  18.404  0.00  0.00    +0.000 A 
ATOM     21  C   UNL     1      -3.107  10.523  17.721  0.00  0.00    +0.000 A 
ATOM     22  C   UNL     1      -1.682  10.509  18.110  0.00  0.00    +0.000 A 
ATOM     23  N   UNL     1      -0.716   9.823  17.579  0.00  0.00    +0.000 NA
ATOM     24  N   UNL     1       0.395  10.208  18.316  0.00  0.00    +0.000 N 
ATOM     25  C   UNL     1       0.037  11.134  19.307  0.00  0.00    +0.000 A 
ATOM     26  O   UNL     1       0.776  11.678  20.113  0.00  0.00    +0.000 OA
ATOM     27  N   UNL     1      -1.318  11.305  19.150  0.00  0.00    +0.000 N 
ATOM     28  C   UNL     1      -2.155  12.139  19.829  0.00  0.00    +0.000 A 
BRANCH  19  30
ATOM     29  C   UNL     1      -3.972  13.985  20.940  0.00  0.00    +0.000 C 
ATOM     30  O   UNL     1      -4.422  13.017  19.994  0.00  0.00    +0.000 OA
ENDBRANCH  19  30
ENDBRANCH  18  24
ENDBRANCH   1  18
TORSDOF 7
ENDMDL
MODEL 6
REMARK VINA RESULT:      -7.0      4.880      9.055
REMARK  Name = 
REMARK  9 active torsions:
REMARK  status: ('A' for Active; 'I' for Inactive)
REMARK    1  A    between atoms: C_1  and  O_2
REMARK    2  A    between atoms: O_2  and  C_3
REMARK    3  A    between atoms: N_8  and  C_9
REMARK    4  A    between atoms: C_9  and  C_10
REMARK    5  A    between atoms: N_12  and  C_13
REMARK    6  A    between atoms: C_13  and  C_14
REMARK    7  A    between atoms: C_13  and  C_15
REMARK    8  A    between atoms: C_18  and  O_19
REMARK    9  A    between atoms: O_19  and  C_20
REMARK                            x       y       z     vdW  Elec       q    Type
REMARK                         _______ _______ _______ _____ _____    ______ ____
ROOT
ATOM      1  C   UNL     1       1.630   8.692  19.565  0.00  0.00    +0.000 C 
ATOM      2  O   UNL     1       1.343   8.587  20.757  0.00  0.00    +0.000 OA
ATOM      3  N   UNL     1       2.345   7.733  18.887  0.00  0.00    +0.000 N 
ATOM      4  H   UNL     1       2.551   7.913  17.907  0.00  0.00    +0.000 HD
ENDROOT
BRANCH   3   5
ATOM      5  C   UNL     1       2.695   6.454  19.482  0.00  0.00    +0.000 C 
ATOM      6  C   UNL     1       1.441   5.702  19.930  0.00  0.00    +0.000 C 
BRANCH   5   7
ATOM      7  C   UNL     1       3.539   5.636  18.522  0.00  0.00    +0.000 A 
ATOM      8  C   UNL     1       4.815   6.085  18.154  0.00  0.00    +0.000 A 
ATOM      9  C   UNL     1       5.584   5.362  17.240  0.00  0.00    +0.000 A 
ATOM     10  C   UNL     1       5.107   4.174  16.678  0.00  0.00    +0.000 A 
ATOM     11  C   UNL     1       3.833   3.731  17.023  0.00  0.00    +0.000 A 
ATOM     12  C   UNL     1       3.065   4.445  17.953  0.00  0.00    +0.000 A 
BRANCH  10  13
ATOM     13  O   UNL     1       5.957   3.595  15.789  0.00  0.00    +0.000 OA
BRANCH  13  14
ATOM     14  C   UNL     1       6.194   4.197  14.526  0.00  0.00    +0.000 C 
ATOM     15  F   UNL     1       5.238   5.065  14.135  0.00  0.00    +0.000 F 
ATOM     16  F   UNL     1       7.383   4.839  14.549  0.00  0.00    +0.000 F 
ATOM     17  F   UNL     1       6.264   3.218  13.597  0.00  0.00    +0.000 F 
ENDBRANCH  13  14
ENDBRANCH  10  13
ENDBRANCH   5   7
ENDBRANCH   3   5
BRANCH   1  18
ATOM     18  C   UNL     1       1.371   9.979  18.788  0.00  0.00    +0.000 C 
BRANCH  18  24
ATOM     19  C   UNL     1      -4.254  11.529  17.861  0.00  0.00    +0.000 A 
ATOM     20  C   UNL     1      -4.127  10.591  16.753  0.00  0.00    +0.000 A 
ATOM     21  C   UNL     1      -2.987   9.915  16.523  0.00  0.00    +0.000 A 
ATOM     22  C   UNL     1      -1.859  10.134  17.451  0.00  0.00    +0.000 A 
ATOM     23  N   UNL     1      -0.675   9.606  17.407  0.00  0.00    +0.000 NA
ATOM     24  N   UNL     1      -0.028  10.171  18.497  0.00  0.00    +0.000 N 
ATOM     25  C   UNL     1      -0.887  11.040  19.187  0.00  0.00    +0.000 A 
ATOM     26  O   UNL     1      -0.626  11.704  20.178  0.00  0.00    +0.000 OA
ATOM     27  N   UNL     1      -2.069  10.990  18.487  0.00  0.00    +0.000 N 
ATOM     28  C   UNL     1      -3.219  11.687  18.708  0.00  0.00    +0.000 A 
BRANCH  19  30
ATOM     29  C   UNL     1      -6.601  11.392  18.165  0.00  0.00    +0.000 C 
ATOM     30  O   UNL     1      -5.454  12.193  17.882  0.00  0.00    +0.000 OA
ENDBRANCH  19  30
ENDBRANCH  18  24
ENDBRANCH   1  18
TORSDOF 7
ENDMDL
MODEL 7
REMARK VINA RESULT:      -6.9      5.225      9.723
REMARK  Name = 
REMARK  9 active torsions:
REMARK  status: ('A' for Active; 'I' for Inactive)
REMARK    1  A    between atoms: C_1  and  O_2
REMARK    2  A    between atoms: O_2  and  C_3
REMARK    3  A    between atoms: N_8  and  C_9
REMARK    4  A    between atoms: C_9  and  C_10
REMARK    5  A    between atoms: N_12  and  C_13
REMARK    6  A    between atoms: C_13  and  C_14
REMARK    7  A    between atoms: C_13  and  C_15
REMARK    8  A    between atoms: C_18  and  O_19
REMARK    9  A    between atoms: O_19  and  C_20
REMARK                            x       y       z     vdW  Elec       q    Type
REMARK                         _______ _______ _______ _____ _____    ______ ____
ROOT
ATOM      1  C   UNL     1       0.688  11.067  20.084  0.00  0.00    +0.000 C 
ATOM      2  O   UNL     1       1.232  11.635  21.030  0.00  0.00    +0.000 OA
ATOM      3  N   UNL     1       0.637   9.699  19.970  0.00  0.00    +0.000 N 
ATOM      4  H   UNL     1       0.182   9.317  19.143  0.00  0.00    +0.000 HD
ENDROOT
BRANCH   3   5
ATOM      5  C   UNL     1       1.092   8.810  21.026  0.00  0.00    +0.000 C 
ATOM      6  C   UNL     1      -0.027   8.549  22.037  0.00  0.00    +0.000 C 
BRANCH   5   7
ATOM      7  C   UNL     1       1.640   7.523  20.437  0.00  0.00    +0.000 A 
ATOM      8  C   UNL     1       2.370   7.555  19.241  0.00  0.00    +0.000 A 
ATOM      9  C   UNL     1       2.844   6.373  18.668  0.00  0.00    +0.000 A 
ATOM     10  C   UNL     1       2.611   5.135  19.275  0.00  0.00    +0.000 A 
ATOM     11  C   UNL     1       1.871   5.092  20.453  0.00  0.00    +0.000 A 
ATOM     12  C   UNL     1       1.408   6.277  21.040  0.00  0.00    +0.000 A 
BRANCH  10  13
ATOM     13  O   UNL     1       3.113   4.074  18.590  0.00  0.00    +0.000 OA
BRANCH  13  14
ATOM     14  C   UNL     1       2.327   3.416  17.608  0.00  0.00    +0.000 C 
ATOM     15  F   UNL     1       2.125   2.104  17.844  0.00  0.00    +0.000 F 
ATOM     16  F   UNL     1       1.128   4.031  17.506  0.00  0.00    +0.000 F 
ATOM     17  F   UNL     1       2.957   3.527  16.418  0.00  0.00    +0.000 F 
ENDBRANCH  13  14
ENDBRANCH  10  13
ENDBRANCH   5   7
ENDBRANCH   3   5
BRANCH   1  18
ATOM     18  C   UNL     1       0.185  11.839  18.867  0.00  0.00    +0.000 C 
BRANCH  18  24
ATOM     19  C   UNL     1      -5.712  12.172  18.751  0.00  0.00    +0.000 A 
ATOM     20  C   UNL     1      -5.523  11.641  17.407  0.00  0.00    +0.000 A 
ATOM     21  C   UNL     1      -4.301  11.355  16.924  0.00  0.00    +0.000 A 
ATOM     22  C   UNL     1      -3.141  11.572  17.814  0.00  0.00    +0.000 A 
ATOM     23  N   UNL     1      -1.885  11.381  17.549  0.00  0.00    +0.000 NA
ATOM     24  N   UNL     1      -1.248  11.759  18.722  0.00  0.00    +0.000 N 
ATOM     25  C   UNL     1      -2.183  12.164  19.687  0.00  0.00    +0.000 A 
ATOM     26  O   UNL     1      -1.952  12.568  20.816  0.00  0.00    +0.000 OA
ATOM     27  N   UNL     1      -3.402  12.027  19.068  0.00  0.00    +0.000 N 
ATOM     28  C   UNL     1      -4.641  12.333  19.549  0.00  0.00    +0.000 A 
BRANCH  19  30
ATOM     29  C   UNL     1      -7.703  13.239  18.033  0.00  0.00    +0.000 C 
ATOM     30  O   UNL     1      -7.016  12.492  19.034  0.00  0.00    +0.000 OA
ENDBRANCH  19  30
ENDBRANCH  18  24
ENDBRANCH   1  18
TORSDOF 7
ENDMDL
MODEL 8
REMARK VINA RESULT:      -6.9      5.499      9.967
REMARK  Name = 
REMARK  9 active torsions:
REMARK  status: ('A' for Active; 'I' for Inactive)
REMARK    1  A    between atoms: C_1  and  O_2
REMARK    2  A    between atoms: O_2  and  C_3
REMARK    3  A    between atoms: N_8  and  C_9
REMARK    4  A    between atoms: C_9  and  C_10
REMARK    5  A    between atoms: N_12  and  C_13
REMARK    6  A    between atoms: C_13  and  C_14
REMARK    7  A    between atoms: C_13  and  C_15
REMARK    8  A    between atoms: C_18  and  O_19
REMARK    9  A    between atoms: O_19  and  C_20
REMARK                            x       y       z     vdW  Elec       q    Type
REMARK                         _______ _______ _______ _____ _____    ______ ____
ROOT
ATOM      1  C   UNL     1       0.410  11.182  19.207  0.00  0.00    +0.000 C 
ATOM      2  O   UNL     1       1.472  11.777  19.387  0.00  0.00    +0.000 OA
ATOM      3  N   UNL     1       0.157   9.939  19.737  0.00  0.00    +0.000 N 
ATOM      4  H   UNL     1      -0.742   9.515  19.520  0.00  0.00    +0.000 HD
ENDROOT
BRANCH   3   5
ATOM      5  C   UNL     1       1.062   9.289  20.670  0.00  0.00    +0.000 C 
ATOM      6  C   UNL     1       0.385   9.077  22.025  0.00  0.00    +0.000 C 
BRANCH   5   7
ATOM      7  C   UNL     1       1.586   7.990  20.084  0.00  0.00    +0.000 A 
ATOM      8  C   UNL     1       1.485   6.801  20.817  0.00  0.00    +0.000 A 
ATOM      9  C   UNL     1       2.001   5.607  20.305  0.00  0.00    +0.000 A 
ATOM     10  C   UNL     1       2.619   5.569  19.052  0.00  0.00    +0.000 A 
ATOM     11  C   UNL     1       2.740   6.750  18.326  0.00  0.00    +0.000 A 
ATOM     12  C   UNL     1       2.210   7.946  18.828  0.00  0.00    +0.000 A 
BRANCH  10  13
ATOM     13  O   UNL     1       3.090   4.344  18.699  0.00  0.00    +0.000 OA
BRANCH  13  14
ATOM     14  C   UNL     1       2.344   3.513  17.823  0.00  0.00    +0.000 C 
ATOM     15  F   UNL     1       1.093   3.949  17.573  0.00  0.00    +0.000 F 
ATOM     16  F   UNL     1       3.005   3.386  16.651  0.00  0.00    +0.000 F 
ATOM     17  F   UNL     1       2.247   2.287  18.384  0.00  0.00    +0.000 F 
ENDBRANCH  13  14
ENDBRANCH  10  13
ENDBRANCH   5   7
ENDBRANCH   3   5
BRANCH   1  18
ATOM     18  C   UNL     1      -0.642  11.698  18.230  0.00  0.00    +0.000 C 
BRANCH  18  24
ATOM     19  C   UNL     1      -6.061  12.304  20.506  0.00  0.00    +0.000 A 
ATOM     20  C   UNL     1      -5.313  12.793  21.656  0.00  0.00    +0.000 A 
ATOM     21  C   UNL     1      -3.971  12.881  21.644  0.00  0.00    +0.000 A 
ATOM     22  C   UNL     1      -3.267  12.485  20.407  0.00  0.00    +0.000 A 
ATOM     23  N   UNL     1      -1.988  12.473  20.185  0.00  0.00    +0.000 NA
ATOM     24  N   UNL     1      -1.892  12.003  18.883  0.00  0.00    +0.000 N 
ATOM     25  C   UNL     1      -3.165  11.755  18.349  0.00  0.00    +0.000 A 
ATOM     26  O   UNL     1      -3.430  11.324  17.237  0.00  0.00    +0.000 OA
ATOM     27  N   UNL     1      -4.036  12.082  19.361  0.00  0.00    +0.000 N 
ATOM     28  C   UNL     1      -5.395  11.977  19.381  0.00  0.00    +0.000 A 
BRANCH  19  30
ATOM     29  C   UNL     1      -7.884  10.886  21.037  0.00  0.00    +0.000 C 
ATOM     30  O   UNL     1      -7.409  12.196  20.735  0.00  0.00    +0.000 OA
ENDBRANCH  19  30
ENDBRANCH  18  24
ENDBRANCH   1  18
TORSDOF 7
ENDMDL
MODEL 9
REMARK VINA RESULT:      -6.9      5.424      9.869
REMARK  Name = 
REMARK  9 active torsions:
REMARK  status: ('A' for Active; 'I' for Inactive)
REMARK    1  A    between atoms: C_1  and  O_2
REMARK    2  A    between atoms: O_2  and  C_3
REMARK    3  A    between atoms: N_8  and  C_9
REMARK    4  A    between atoms: C_9  and  C_10
REMARK    5  A    between atoms: N_12  and  C_13
REMARK    6  A    between atoms: C_13  and  C_14
REMARK    7  A    between atoms: C_13  and  C_15
REMARK    8  A    between atoms: C_18  and  O_19
REMARK    9  A    between atoms: O_19  and  C_20
REMARK                            x       y       z     vdW  Elec       q    Type
REMARK                         _______ _______ _______ _____ _____    ______ ____
ROOT
ATOM      1  C   UNL     1       0.629  11.385  20.331  0.00  0.00    +0.000 C 
ATOM      2  O   UNL     1       1.322  11.807  21.255  0.00  0.00    +0.000 OA
ATOM      3  N   UNL     1       0.490  10.045  20.059  0.00  0.00    +0.000 N 
ATOM      4  H   UNL     1      -0.089   9.789  19.262  0.00  0.00    +0.000 HD
ENDROOT
BRANCH   3   5
ATOM      5  C   UNL     1       1.031   9.012  20.926  0.00  0.00    +0.000 C 
ATOM      6  C   UNL     1      -0.043   8.486  21.881  0.00  0.00    +0.000 C 
BRANCH   5   7
ATOM      7  C   UNL     1       1.656   7.901  20.103  0.00  0.00    +0.000 A 
ATOM      8  C   UNL     1       2.151   8.174  18.821  0.00  0.00    +0.000 A 
ATOM      9  C   UNL     1       2.692   7.151  18.037  0.00  0.00    +0.000 A 
ATOM     10  C   UNL     1       2.759   5.839  18.514  0.00  0.00    +0.000 A 
ATOM     11  C   UNL     1       2.252   5.555  19.779  0.00  0.00    +0.000 A 
ATOM     12  C   UNL     1       1.724   6.581  20.574  0.00  0.00    +0.000 A 
BRANCH  10  13
ATOM     13  O   UNL     1       3.288   4.950  17.631  0.00  0.00    +0.000 OA
BRANCH  13  14
ATOM     14  C   UNL     1       4.559   4.367  17.874  0.00  0.00    +0.000 C 
ATOM     15  F   UNL     1       5.226   4.000  16.761  0.00  0.00    +0.000 F 
ATOM     16  F   UNL     1       5.325   5.232  18.576  0.00  0.00    +0.000 F 
ATOM     17  F   UNL     1       4.379   3.260  18.628  0.00  0.00    +0.000 F 
ENDBRANCH  13  14
ENDBRANCH  10  13
ENDBRANCH   5   7
ENDBRANCH   3   5
BRANCH   1  18
ATOM     18  C   UNL     1       0.013  12.324  19.298  0.00  0.00    +0.000 C 
BRANCH  18  24
ATOM     19  C   UNL     1      -5.865  11.997  18.797  0.00  0.00    +0.000 A 
ATOM     20  C   UNL     1      -5.527  11.254  17.590  0.00  0.00    +0.000 A 
ATOM     21  C   UNL     1      -4.251  11.018  17.237  0.00  0.00    +0.000 A 
ATOM     22  C   UNL     1      -3.186  11.516  18.132  0.00  0.00    +0.000 A 
ATOM     23  N   UNL     1      -1.902  11.416  17.978  0.00  0.00    +0.000 NA
ATOM     24  N   UNL     1      -1.392  12.066  19.092  0.00  0.00    +0.000 N 
ATOM     25  C   UNL     1      -2.429  12.537  19.911  0.00  0.00    +0.000 A 
ATOM     26  O   UNL     1      -2.322  13.160  20.955  0.00  0.00    +0.000 OA
ATOM     27  N   UNL     1      -3.581  12.160  19.263  0.00  0.00    +0.000 N 
ATOM     28  C   UNL     1      -4.875  12.414  19.609  0.00  0.00    +0.000 A 
BRANCH  19  30
ATOM     29  C   UNL     1      -7.750  13.286  18.164  0.00  0.00    +0.000 C 
ATOM     30  O   UNL     1      -7.211  12.221  18.944  0.00  0.00    +0.000 OA
ENDBRANCH  19  30
ENDBRANCH  18  24
ENDBRANCH   1  18
TORSDOF 7
ENDMDL
