MODEL 1
REMARK VINA RESULT:      -8.4      0.000      0.000
REMARK  Name = 
REMARK  4 active torsions:
REMARK  status: ('A' for Active; 'I' for Inactive)
REMARK    1  A    between atoms: C_1  and  C_2
REMARK    2  A    between atoms: C_2  and  N_3
REMARK    3  A    between atoms: N_6  and  C_7
REMARK    4  A    between atoms: C_7  and  C_8
REMARK                            x       y       z     vdW  Elec       q    Type
REMARK                         _______ _______ _______ _____ _____    ______ ____
ROOT
ATOM      1  C   UNL     1       1.471   7.835  20.844  0.00  0.00    +0.000 A 
ATOM      2  N   UNL     1       0.992   6.680  21.269  0.00  0.00    +0.000 NA
ATOM      3  C   UNL     1       1.597   5.719  20.501  0.00  0.00    +0.000 A 
ATOM      4  C   UNL     1       1.434   4.323  20.505  0.00  0.00    +0.000 A 
ATOM      5  C   UNL     1       2.161   3.555  19.582  0.00  0.00    +0.000 A 
ATOM      6  C   UNL     1       3.019   4.165  18.656  0.00  0.00    +0.000 A 
ATOM      7  C   UNL     1       3.176   5.553  18.638  0.00  0.00    +0.000 A 
ATOM      8  C   UNL     1       2.470   6.294  19.588  0.00  0.00    +0.000 A 
ATOM      9  N   UNL     1       2.414   7.640  19.863  0.00  0.00    +0.000 N 
ATOM     10  C   UNL     1       4.029   6.218  17.640  0.00  0.00    +0.000 C 
ATOM     11  O   UNL     1       4.141   7.439  17.642  0.00  0.00    +0.000 OA
ATOM     12  C   UNL     1       4.733   5.389  16.644  0.00  0.00    +0.000 A 
ATOM     13  C   UNL     1       5.519   6.006  15.664  0.00  0.00    +0.000 A 
ATOM     14  C   UNL     1       6.220   5.228  14.741  0.00  0.00    +0.000 A 
ATOM     15  C   UNL     1       6.138   3.838  14.797  0.00  0.00    +0.000 A 
ATOM     16  C   UNL     1       5.342   3.220  15.762  0.00  0.00    +0.000 A 
ATOM     17  C   UNL     1       4.629   3.998  16.685  0.00  0.00    +0.000 A 
ATOM     18  C   UNL     1       3.767   3.335  17.688  0.00  0.00    +0.000 C 
ATOM     19  O   UNL     1       3.673   2.116  17.713  0.00  0.00    +0.000 OA
ATOM     20  H   UNL     1       2.921   8.361  19.368  0.00  0.00    +0.000 HD
ENDROOT
BRANCH   1  21
ATOM     21  C   UNL     1       1.055   9.207  21.279  0.00  0.00    +0.000 C 
BRANCH  21  25
ATOM     22  N   UNL     1       0.671  12.575  19.703  0.00  0.00    +0.000 NA
ATOM     23  C   UNL     1       0.182  12.212  21.051  0.00  0.00    +0.000 C 
ATOM     24  C   UNL     1      -0.687  10.933  21.116  0.00  0.00    +0.000 C 
ATOM     25  N   UNL     1      -0.083   9.731  20.491  0.00  0.00    +0.000 NA
ATOM     26  C   UNL     1       0.353  10.104  19.127  0.00  0.00    +0.000 C 
ATOM     27  C   UNL     1       1.242  11.375  19.052  0.00  0.00    +0.000 C 
BRANCH  22  29
ATOM     28  C   UNL     1      -0.249  14.724  18.781  0.00  0.00    +0.000 C 
ATOM     29  C   UNL     1      -0.349  13.202  18.850  0.00  0.00    +0.000 C 
ENDBRANCH  22  29
ENDBRANCH  21  25
ENDBRANCH   1  21
TORSDOF 3
ENDMDL
MODEL 2
REMARK VINA RESULT:      -8.2      1.188      1.736
REMARK  Name = 
REMARK  4 active torsions:
REMARK  status: ('A' for Active; 'I' for Inactive)
REMARK    1  A    between atoms: C_1  and  C_2
REMARK    2  A    between atoms: C_2  and  N_3
REMARK    3  A    between atoms: N_6  and  C_7
REMARK    4  A    between atoms: C_7  and  C_8
REMARK                            x       y       z     vdW  Elec       q    Type
REMARK                         _______ _______ _______ _____ _____    ______ ____
ROOT
ATOM      1  C   UNL     1       1.586   7.815  20.772  0.00  0.00    +0.000 A 
ATOM      2  N   UNL     1       1.149   6.661  21.241  0.00  0.00    +0.000 NA
ATOM      3  C   UNL     1       1.757   5.696  20.479  0.00  0.00    +0.000 A 
ATOM      4  C   UNL     1       1.631   4.296  20.524  0.00  0.00    +0.000 A 
ATOM      5  C   UNL     1       2.350   3.523  19.599  0.00  0.00    +0.000 A 
ATOM      6  C   UNL     1       3.163   4.130  18.632  0.00  0.00    +0.000 A 
ATOM      7  C   UNL     1       3.283   5.521  18.574  0.00  0.00    +0.000 A 
ATOM      8  C   UNL     1       2.586   6.269  19.526  0.00  0.00    +0.000 A 
ATOM      9  N   UNL     1       2.503   7.619  19.768  0.00  0.00    +0.000 N 
ATOM     10  C   UNL     1       4.087   6.181  17.533  0.00  0.00    +0.000 C 
ATOM     11  O   UNL     1       4.167   7.404  17.500  0.00  0.00    +0.000 OA
ATOM     12  C   UNL     1       4.783   5.345  16.537  0.00  0.00    +0.000 A 
ATOM     13  C   UNL     1       5.522   5.956  15.518  0.00  0.00    +0.000 A 
ATOM     14  C   UNL     1       6.216   5.172  14.594  0.00  0.00    +0.000 A 
ATOM     15  C   UNL     1       6.172   3.782  14.688  0.00  0.00    +0.000 A 
ATOM     16  C   UNL     1       5.422   3.170  15.692  0.00  0.00    +0.000 A 
ATOM     17  C   UNL     1       4.717   3.953  16.617  0.00  0.00    +0.000 A 
ATOM     18  C   UNL     1       3.903   3.294  17.663  0.00  0.00    +0.000 C 
ATOM     19  O   UNL     1       3.842   2.075  17.721  0.00  0.00    +0.000 OA
ATOM     20  H   UNL     1       2.976   8.339  19.239  0.00  0.00    +0.000 HD
ENDROOT
BRANCH   1  21
ATOM     21  C   UNL     1       1.146   9.188  21.185  0.00  0.00    +0.000 C 
BRANCH  21  25
ATOM     22  N   UNL     1      -0.953  12.041  22.379  0.00  0.00    +0.000 NA
ATOM     23  C   UNL     1      -0.728  10.786  23.128  0.00  0.00    +0.000 C 
ATOM     24  C   UNL     1      -1.004   9.486  22.336  0.00  0.00    +0.000 C 
ATOM     25  N   UNL     1      -0.312   9.387  21.028  0.00  0.00    +0.000 NA
ATOM     26  C   UNL     1      -0.592  10.631  20.276  0.00  0.00    +0.000 C 
ATOM     27  C   UNL     1      -0.300  11.942  21.055  0.00  0.00    +0.000 C 
BRANCH  22  29
ATOM     28  C   UNL     1      -3.169  12.287  23.537  0.00  0.00    +0.000 C 
ATOM     29  C   UNL     1      -2.371  12.405  22.241  0.00  0.00    +0.000 C 
ENDBRANCH  22  29
ENDBRANCH  21  25
ENDBRANCH   1  21
TORSDOF 3
ENDMDL
MODEL 3
REMARK VINA RESULT:      -8.2      0.687      1.095
REMARK  Name = 
REMARK  4 active torsions:
REMARK  status: ('A' for Active; 'I' for Inactive)
REMARK    1  A    between atoms: C_1  and  C_2
REMARK    2  A    between atoms: C_2  and  N_3
REMARK    3  A    between atoms: N_6  and  C_7
REMARK    4  A    between atoms: C_7  and  C_8
REMARK                            x       y       z     vdW  Elec       q    Type
REMARK                         _______ _______ _______ _____ _____    ______ ____
ROOT
ATOM      1  C   UNL     1       1.356   7.895  20.823  0.00  0.00    +0.000 A 
ATOM      2  N   UNL     1       0.958   6.738  21.319  0.00  0.00    +0.000 NA
ATOM      3  C   UNL     1       1.605   5.776  20.587  0.00  0.00    +0.000 A 
ATOM      4  C   UNL     1       1.529   4.375  20.666  0.00  0.00    +0.000 A 
ATOM      5  C   UNL     1       2.281   3.604  19.766  0.00  0.00    +0.000 A 
ATOM      6  C   UNL     1       3.079   4.215  18.789  0.00  0.00    +0.000 A 
ATOM      7  C   UNL     1       3.150   5.607  18.695  0.00  0.00    +0.000 A 
ATOM      8  C   UNL     1       2.420   6.354  19.623  0.00  0.00    +0.000 A 
ATOM      9  N   UNL     1       2.287   7.706  19.830  0.00  0.00    +0.000 N 
ATOM     10  C   UNL     1       3.937   6.268  17.642  0.00  0.00    +0.000 C 
ATOM     11  O   UNL     1       3.974   7.492  17.578  0.00  0.00    +0.000 OA
ATOM     12  C   UNL     1       4.669   5.432  16.673  0.00  0.00    +0.000 A 
ATOM     13  C   UNL     1       5.393   6.043  15.643  0.00  0.00    +0.000 A 
ATOM     14  C   UNL     1       6.121   5.261  14.744  0.00  0.00    +0.000 A 
ATOM     15  C   UNL     1       6.125   3.873  14.873  0.00  0.00    +0.000 A 
ATOM     16  C   UNL     1       5.391   3.260  15.889  0.00  0.00    +0.000 A 
ATOM     17  C   UNL     1       4.652   4.041  16.788  0.00  0.00    +0.000 A 
ATOM     18  C   UNL     1       3.855   3.381  17.846  0.00  0.00    +0.000 C 
ATOM     19  O   UNL     1       3.837   2.162  17.937  0.00  0.00    +0.000 OA
ATOM     20  H   UNL     1       2.737   8.429  19.285  0.00  0.00    +0.000 HD
ENDROOT
BRANCH   1  21
ATOM     21  C   UNL     1       0.865   9.261  21.197  0.00  0.00    +0.000 C 
BRANCH  21  25
ATOM     22  N   UNL     1      -1.302  12.079  20.038  0.00  0.00    +0.000 NA
ATOM     23  C   UNL     1      -1.258  10.736  19.420  0.00  0.00    +0.000 C 
ATOM     24  C   UNL     1       0.156  10.225  19.051  0.00  0.00    +0.000 C 
ATOM     25  N   UNL     1       1.148  10.271  20.152  0.00  0.00    +0.000 NA
ATOM     26  C   UNL     1       1.122  11.636  20.723  0.00  0.00    +0.000 C 
ATOM     27  C   UNL     1      -0.289  12.152  21.115  0.00  0.00    +0.000 C 
BRANCH  22  29
ATOM     28  C   UNL     1      -0.779  14.517  19.730  0.00  0.00    +0.000 C 
ATOM     29  C   UNL     1      -1.132  13.181  19.080  0.00  0.00    +0.000 C 
ENDBRANCH  22  29
ENDBRANCH  21  25
ENDBRANCH   1  21
TORSDOF 3
ENDMDL
MODEL 4
REMARK VINA RESULT:      -8.1      1.167      1.642
REMARK  Name = 
REMARK  4 active torsions:
REMARK  status: ('A' for Active; 'I' for Inactive)
REMARK    1  A    between atoms: C_1  and  C_2
REMARK    2  A    between atoms: C_2  and  N_3
REMARK    3  A    between atoms: N_6  and  C_7
REMARK    4  A    between atoms: C_7  and  C_8
REMARK                            x       y       z     vdW  Elec       q    Type
REMARK                         _______ _______ _______ _____ _____    ______ ____
ROOT
ATOM      1  C   UNL     1       1.394   8.211  20.643  0.00  0.00    +0.000 A 
ATOM      2  N   UNL     1       1.020   7.088  21.229  0.00  0.00    +0.000 NA
ATOM      3  C   UNL     1       1.671   6.085  20.559  0.00  0.00    +0.000 A 
ATOM      4  C   UNL     1       1.617   4.692  20.742  0.00  0.00    +0.000 A 
ATOM      5  C   UNL     1       2.368   3.868  19.890  0.00  0.00    +0.000 A 
ATOM      6  C   UNL     1       3.144   4.416  18.859  0.00  0.00    +0.000 A 
ATOM      7  C   UNL     1       3.192   5.799  18.663  0.00  0.00    +0.000 A 
ATOM      8  C   UNL     1       2.464   6.601  19.544  0.00  0.00    +0.000 A 
ATOM      9  N   UNL     1       2.314   7.963  19.653  0.00  0.00    +0.000 N 
ATOM     10  C   UNL     1       3.955   6.392  17.553  0.00  0.00    +0.000 C 
ATOM     11  O   UNL     1       3.973   7.608  17.399  0.00  0.00    +0.000 OA
ATOM     12  C   UNL     1       4.687   5.497  16.637  0.00  0.00    +0.000 A 
ATOM     13  C   UNL     1       5.387   6.040  15.555  0.00  0.00    +0.000 A 
ATOM     14  C   UNL     1       6.115   5.205  14.704  0.00  0.00    +0.000 A 
ATOM     15  C   UNL     1       6.142   3.831  14.935  0.00  0.00    +0.000 A 
ATOM     16  C   UNL     1       5.430   3.284  16.003  0.00  0.00    +0.000 A 
ATOM     17  C   UNL     1       4.692   4.118  16.854  0.00  0.00    +0.000 A 
ATOM     18  C   UNL     1       3.920   3.526  17.969  0.00  0.00    +0.000 C 
ATOM     19  O   UNL     1       3.921   2.317  18.148  0.00  0.00    +0.000 OA
ATOM     20  H   UNL     1       2.746   8.650  19.051  0.00  0.00    +0.000 HD
ENDROOT
BRANCH   1  21
ATOM     21  C   UNL     1       0.888   9.594  20.924  0.00  0.00    +0.000 C 
BRANCH  21  25
ATOM     22  N   UNL     1      -1.939  11.038  18.949  0.00  0.00    +0.000 NA
ATOM     23  C   UNL     1      -1.248   9.769  18.633  0.00  0.00    +0.000 C 
ATOM     24  C   UNL     1       0.294   9.859  18.554  0.00  0.00    +0.000 C 
ATOM     25  N   UNL     1       0.950  10.473  19.734  0.00  0.00    +0.000 NA
ATOM     26  C   UNL     1       0.276  11.764  20.001  0.00  0.00    +0.000 C 
ATOM     27  C   UNL     1      -1.270  11.682  20.102  0.00  0.00    +0.000 C 
BRANCH  22  29
ATOM     28  C   UNL     1      -2.611  11.334  16.546  0.00  0.00    +0.000 C 
ATOM     29  C   UNL     1      -2.032  11.964  17.810  0.00  0.00    +0.000 C 
ENDBRANCH  22  29
ENDBRANCH  21  25
ENDBRANCH   1  21
TORSDOF 3
ENDMDL
MODEL 5
REMARK VINA RESULT:      -7.9      1.408      1.967
REMARK  Name = 
REMARK  4 active torsions:
REMARK  status: ('A' for Active; 'I' for Inactive)
REMARK    1  A    between atoms: C_1  and  C_2
REMARK    2  A    between atoms: C_2  and  N_3
REMARK    3  A    between atoms: N_6  and  C_7
REMARK    4  A    between atoms: C_7  and  C_8
REMARK                            x       y       z     vdW  Elec       q    Type
REMARK                         _______ _______ _______ _____ _____    ______ ____
ROOT
ATOM      1  C   UNL     1       1.097   8.738  20.249  0.00  0.00    +0.000 A 
ATOM      2  N   UNL     1       0.873   7.716  21.054  0.00  0.00    +0.000 NA
ATOM      3  C   UNL     1       1.631   6.683  20.564  0.00  0.00    +0.000 A 
ATOM      4  C   UNL     1       1.750   5.357  21.014  0.00  0.00    +0.000 A 
ATOM      5  C   UNL     1       2.582   4.475  20.307  0.00  0.00    +0.000 A 
ATOM      6  C   UNL     1       3.268   4.898  19.160  0.00  0.00    +0.000 A 
ATOM      7  C   UNL     1       3.144   6.211  18.700  0.00  0.00    +0.000 A 
ATOM      8  C   UNL     1       2.338   7.080  19.439  0.00  0.00    +0.000 A 
ATOM      9  N   UNL     1       2.024   8.410  19.290  0.00  0.00    +0.000 N 
ATOM     10  C   UNL     1       3.811   6.661  17.467  0.00  0.00    +0.000 C 
ATOM     11  O   UNL     1       3.678   7.817  17.082  0.00  0.00    +0.000 OA
ATOM     12  C   UNL     1       4.632   5.695  16.712  0.00  0.00    +0.000 A 
ATOM     13  C   UNL     1       5.243   6.095  15.519  0.00  0.00    +0.000 A 
ATOM     14  C   UNL     1       6.053   5.199  14.817  0.00  0.00    +0.000 A 
ATOM     15  C   UNL     1       6.251   3.910  15.306  0.00  0.00    +0.000 A 
ATOM     16  C   UNL     1       5.629   3.503  16.487  0.00  0.00    +0.000 A 
ATOM     17  C   UNL     1       4.809   4.396  17.190  0.00  0.00    +0.000 A 
ATOM     18  C   UNL     1       4.132   3.948  18.427  0.00  0.00    +0.000 C 
ATOM     19  O   UNL     1       4.284   2.805  18.835  0.00  0.00    +0.000 OA
ATOM     20  H   UNL     1       2.360   9.012  18.550  0.00  0.00    +0.000 HD
ENDROOT
BRANCH   1  21
ATOM     21  C   UNL     1       0.431  10.081  20.278  0.00  0.00    +0.000 C 
BRANCH  21  25
ATOM     22  N   UNL     1      -1.160  13.185  21.623  0.00  0.00    +0.000 NA
ATOM     23  C   UNL     1      -0.037  13.159  20.663  0.00  0.00    +0.000 C 
ATOM     24  C   UNL     1       1.169  12.283  21.079  0.00  0.00    +0.000 C 
ATOM     25  N   UNL     1       0.833  10.888  21.452  0.00  0.00    +0.000 NA
ATOM     26  C   UNL     1      -0.258  10.939  22.451  0.00  0.00    +0.000 C 
ATOM     27  C   UNL     1      -1.481  11.800  22.034  0.00  0.00    +0.000 C 
BRANCH  22  29
ATOM     28  C   UNL     1      -2.075  14.056  23.795  0.00  0.00    +0.000 C 
ATOM     29  C   UNL     1      -0.921  14.039  22.796  0.00  0.00    +0.000 C 
ENDBRANCH  22  29
ENDBRANCH  21  25
ENDBRANCH   1  21
TORSDOF 3
ENDMDL
MODEL 6
REMARK VINA RESULT:      -7.9      1.896      2.381
REMARK  Name = 
REMARK  4 active torsions:
REMARK  status: ('A' for Active; 'I' for Inactive)
REMARK    1  A    between atoms: C_1  and  C_2
REMARK    2  A    between atoms: C_2  and  N_3
REMARK    3  A    between atoms: N_6  and  C_7
REMARK    4  A    between atoms: C_7  and  C_8
REMARK                            x       y       z     vdW  Elec       q    Type
REMARK                         _______ _______ _______ _____ _____    ______ ____
ROOT
ATOM      1  C   UNL     1       0.977   9.266  20.035  0.00  0.00    +0.000 A 
ATOM      2  N   UNL     1       0.726   8.304  20.904  0.00  0.00    +0.000 NA
ATOM      3  C   UNL     1       1.479   7.232  20.501  0.00  0.00    +0.000 A 
ATOM      4  C   UNL     1       1.574   5.938  21.043  0.00  0.00    +0.000 A 
ATOM      5  C   UNL     1       2.408   5.000  20.414  0.00  0.00    +0.000 A 
ATOM      6  C   UNL     1       3.120   5.335  19.254  0.00  0.00    +0.000 A 
ATOM      7  C   UNL     1       3.021   6.616  18.702  0.00  0.00    +0.000 A 
ATOM      8  C   UNL     1       2.212   7.542  19.364  0.00  0.00    +0.000 A 
ATOM      9  N   UNL     1       1.918   8.862  19.118  0.00  0.00    +0.000 N 
ATOM     10  C   UNL     1       3.716   6.971  17.455  0.00  0.00    +0.000 C 
ATOM     11  O   UNL     1       3.604   8.100  16.988  0.00  0.00    +0.000 OA
ATOM     12  C   UNL     1       4.538   5.947  16.784  0.00  0.00    +0.000 A 
ATOM     13  C   UNL     1       5.176   6.256  15.577  0.00  0.00    +0.000 A 
ATOM     14  C   UNL     1       5.987   5.306  14.954  0.00  0.00    +0.000 A 
ATOM     15  C   UNL     1       6.161   4.051  15.534  0.00  0.00    +0.000 A 
ATOM     16  C   UNL     1       5.512   3.734  16.728  0.00  0.00    +0.000 A 
ATOM     17  C   UNL     1       4.690   4.682  17.353  0.00  0.00    +0.000 A 
ATOM     18  C   UNL     1       3.985   4.328  18.605  0.00  0.00    +0.000 C 
ATOM     19  O   UNL     1       4.115   3.215  19.093  0.00  0.00    +0.000 OA
ATOM     20  H   UNL     1       2.274   9.407  18.345  0.00  0.00    +0.000 HD
ENDROOT
BRANCH   1  21
ATOM     21  C   UNL     1       0.327  10.615  19.959  0.00  0.00    +0.000 C 
BRANCH  21  25
ATOM     22  N   UNL     1      -3.022  11.089  18.368  0.00  0.00    +0.000 NA
ATOM     23  C   UNL     1      -2.239   9.836  18.331  0.00  0.00    +0.000 C 
ATOM     24  C   UNL     1      -0.774   9.986  17.855  0.00  0.00    +0.000 C 
ATOM     25  N   UNL     1       0.017  11.017  18.569  0.00  0.00    +0.000 NA
ATOM     26  C   UNL     1      -0.763  12.275  18.550  0.00  0.00    +0.000 C 
ATOM     27  C   UNL     1      -2.229  12.139  19.045  0.00  0.00    +0.000 C 
BRANCH  22  29
ATOM     28  C   UNL     1      -4.994  11.687  16.931  0.00  0.00    +0.000 C 
ATOM     29  C   UNL     1      -3.479  11.544  17.047  0.00  0.00    +0.000 C 
ENDBRANCH  22  29
ENDBRANCH  21  25
ENDBRANCH   1  21
TORSDOF 3
ENDMDL
MODEL 7
REMARK VINA RESULT:      -7.7      1.423      1.609
REMARK  Name = 
REMARK  4 active torsions:
REMARK  status: ('A' for Active; 'I' for Inactive)
REMARK    1  A    between atoms: C_1  and  C_2
REMARK    2  A    between atoms: C_2  and  N_3
REMARK    3  A    between atoms: N_6  and  C_7
REMARK    4  A    between atoms: C_7  and  C_8
REMARK                            x       y       z     vdW  Elec       q    Type
REMARK                         _______ _______ _______ _____ _____    ______ ____
ROOT
ATOM      1  C   UNL     1       1.371   8.707  20.302  0.00  0.00    +0.000 A 
ATOM      2  N   UNL     1       1.057   7.663  21.047  0.00  0.00    +0.000 NA
ATOM      3  C   UNL     1       1.732   6.600  20.503  0.00  0.00    +0.000 A 
ATOM      4  C   UNL     1       1.738   5.245  20.878  0.00  0.00    +0.000 A 
ATOM      5  C   UNL     1       2.503   4.340  20.126  0.00  0.00    +0.000 A 
ATOM      6  C   UNL     1       3.231   4.768  19.007  0.00  0.00    +0.000 A 
ATOM      7  C   UNL     1       3.219   6.111  18.622  0.00  0.00    +0.000 A 
ATOM      8  C   UNL     1       2.480   7.001  19.405  0.00  0.00    +0.000 A 
ATOM      9  N   UNL     1       2.277   8.358  19.330  0.00  0.00    +0.000 N 
ATOM     10  C   UNL     1       3.932   6.572  17.420  0.00  0.00    +0.000 C 
ATOM     11  O   UNL     1       3.897   7.756  17.100  0.00  0.00    +0.000 OA
ATOM     12  C   UNL     1       4.677   5.587  16.615  0.00  0.00    +0.000 A 
ATOM     13  C   UNL     1       5.330   6.001  15.449  0.00  0.00    +0.000 A 
ATOM     14  C   UNL     1       6.071   5.083  14.701  0.00  0.00    +0.000 A 
ATOM     15  C   UNL     1       6.159   3.756  15.117  0.00  0.00    +0.000 A 
ATOM     16  C   UNL     1       5.495   3.336  16.271  0.00  0.00    +0.000 A 
ATOM     17  C   UNL     1       4.744   4.252  17.019  0.00  0.00    +0.000 A 
ATOM     18  C   UNL     1       4.021   3.793  18.226  0.00  0.00    +0.000 C 
ATOM     19  O   UNL     1       4.075   2.621  18.570  0.00  0.00    +0.000 OA
ATOM     20  H   UNL     1       2.667   8.970  18.627  0.00  0.00    +0.000 HD
ENDROOT
BRANCH   1  21
ATOM     21  C   UNL     1       0.816  10.096  20.404  0.00  0.00    +0.000 C 
BRANCH  21  25
ATOM     22  N   UNL     1      -1.634  11.896  18.229  0.00  0.00    +0.000 NA
ATOM     23  C   UNL     1      -1.078  12.425  19.493  0.00  0.00    +0.000 C 
ATOM     24  C   UNL     1      -1.192  11.478  20.712  0.00  0.00    +0.000 C 
ATOM     25  N   UNL     1      -0.661  10.111  20.497  0.00  0.00    +0.000 NA
ATOM     26  C   UNL     1      -1.269   9.582  19.255  0.00  0.00    +0.000 C 
ATOM     27  C   UNL     1      -1.143  10.515  18.021  0.00  0.00    +0.000 C 
BRANCH  22  29
ATOM     28  C   UNL     1      -3.687  11.240  16.938  0.00  0.00    +0.000 C 
ATOM     29  C   UNL     1      -3.101  11.949  18.157  0.00  0.00    +0.000 C 
ENDBRANCH  22  29
ENDBRANCH  21  25
ENDBRANCH   1  21
TORSDOF 3
ENDMDL
MODEL 8
REMARK VINA RESULT:      -7.7      1.145      1.836
REMARK  Name = 
REMARK  4 active torsions:
REMARK  status: ('A' for Active; 'I' for Inactive)
REMARK    1  A    between atoms: C_1  and  C_2
REMARK    2  A    between atoms: C_2  and  N_3
REMARK    3  A    between atoms: N_6  and  C_7
REMARK    4  A    between atoms: C_7  and  C_8
REMARK                            x       y       z     vdW  Elec       q    Type
REMARK                         _______ _______ _______ _____ _____    ______ ____
ROOT
ATOM      1  C   UNL     1       0.886   9.215  20.103  0.00  0.00    +0.000 A 
ATOM      2  N   UNL     1       0.681   8.245  20.975  0.00  0.00    +0.000 NA
ATOM      3  C   UNL     1       1.468   7.201  20.563  0.00  0.00    +0.000 A 
ATOM      4  C   UNL     1       1.616   5.912  21.105  0.00  0.00    +0.000 A 
ATOM      5  C   UNL     1       2.477   5.005  20.466  0.00  0.00    +0.000 A 
ATOM      6  C   UNL     1       3.162   5.365  19.297  0.00  0.00    +0.000 A 
ATOM      7  C   UNL     1       3.010   6.640  18.747  0.00  0.00    +0.000 A 
ATOM      8  C   UNL     1       2.175   7.537  19.418  0.00  0.00    +0.000 A 
ATOM      9  N   UNL     1       1.830   8.845  19.175  0.00  0.00    +0.000 N 
ATOM     10  C   UNL     1       3.676   7.020  17.490  0.00  0.00    +0.000 C 
ATOM     11  O   UNL     1       3.517   8.143  17.025  0.00  0.00    +0.000 OA
ATOM     12  C   UNL     1       4.527   6.026  16.810  0.00  0.00    +0.000 A 
ATOM     13  C   UNL     1       5.138   6.357  15.596  0.00  0.00    +0.000 A 
ATOM     14  C   UNL     1       5.976   5.437  14.963  0.00  0.00    +0.000 A 
ATOM     15  C   UNL     1       6.203   4.189  15.542  0.00  0.00    +0.000 A 
ATOM     16  C   UNL     1       5.580   3.850  16.744  0.00  0.00    +0.000 A 
ATOM     17  C   UNL     1       4.732   4.767  17.378  0.00  0.00    +0.000 A 
ATOM     18  C   UNL     1       4.056   4.389  18.638  0.00  0.00    +0.000 C 
ATOM     19  O   UNL     1       4.232   3.282  19.126  0.00  0.00    +0.000 OA
ATOM     20  H   UNL     1       2.156   9.402  18.397  0.00  0.00    +0.000 HD
ENDROOT
BRANCH   1  21
ATOM     21  C   UNL     1       0.186  10.539  20.034  0.00  0.00    +0.000 C 
BRANCH  21  25
ATOM     22  N   UNL     1      -0.590  14.162  19.545  0.00  0.00    +0.000 NA
ATOM     23  C   UNL     1      -0.336  13.197  18.453  0.00  0.00    +0.000 C 
ATOM     24  C   UNL     1       0.964  12.370  18.592  0.00  0.00    +0.000 C 
ATOM     25  N   UNL     1       1.128  11.671  19.890  0.00  0.00    +0.000 NA
ATOM     26  C   UNL     1       0.920  12.666  20.966  0.00  0.00    +0.000 C 
ATOM     27  C   UNL     1      -0.392  13.488  20.847  0.00  0.00    +0.000 C 
BRANCH  22  29
ATOM     28  C   UNL     1      -0.288  16.392  18.427  0.00  0.00    +0.000 C 
ATOM     29  C   UNL     1       0.220  15.386  19.457  0.00  0.00    +0.000 C 
ENDBRANCH  22  29
ENDBRANCH  21  25
ENDBRANCH   1  21
TORSDOF 3
ENDMDL
MODEL 9
REMARK VINA RESULT:      -7.6      2.863      9.149
REMARK  Name = 
REMARK  4 active torsions:
REMARK  status: ('A' for Active; 'I' for Inactive)
REMARK    1  A    between atoms: C_1  and  C_2
REMARK    2  A    between atoms: C_2  and  N_3
REMARK    3  A    between atoms: N_6  and  C_7
REMARK    4  A    between atoms: C_7  and  C_8
REMARK                            x       y       z     vdW  Elec       q    Type
REMARK                         _______ _______ _______ _____ _____    ______ ____
ROOT
ATOM      1  C   UNL     1       1.594   8.194  19.944  0.00  0.00    +0.000 A 
ATOM      2  N   UNL     1       1.159   7.896  21.155  0.00  0.00    +0.000 NA
ATOM      3  C   UNL     1       0.515   9.019  21.606  0.00  0.00    +0.000 A 
ATOM      4  C   UNL     1      -0.109   9.269  22.841  0.00  0.00    +0.000 A 
ATOM      5  C   UNL     1      -0.677  10.532  23.068  0.00  0.00    +0.000 A 
ATOM      6  C   UNL     1      -0.606  11.538  22.094  0.00  0.00    +0.000 A 
ATOM      7  C   UNL     1       0.024  11.301  20.870  0.00  0.00    +0.000 A 
ATOM      8  C   UNL     1       0.551  10.026  20.652  0.00  0.00    +0.000 A 
ATOM      9  N   UNL     1       1.196   9.457  19.580  0.00  0.00    +0.000 N 
ATOM     10  C   UNL     1       0.158  12.359  19.856  0.00  0.00    +0.000 C 
ATOM     11  O   UNL     1       0.724  12.126  18.794  0.00  0.00    +0.000 OA
ATOM     12  C   UNL     1      -0.396  13.695  20.147  0.00  0.00    +0.000 A 
ATOM     13  C   UNL     1      -0.246  14.723  19.210  0.00  0.00    +0.000 A 
ATOM     14  C   UNL     1      -0.800  15.980  19.460  0.00  0.00    +0.000 A 
ATOM     15  C   UNL     1      -1.502  16.209  20.642  0.00  0.00    +0.000 A 
ATOM     16  C   UNL     1      -1.638  15.191  21.586  0.00  0.00    +0.000 A 
ATOM     17  C   UNL     1      -1.077  13.930  21.343  0.00  0.00    +0.000 A 
ATOM     18  C   UNL     1      -1.204  12.864  22.361  0.00  0.00    +0.000 C 
ATOM     19  O   UNL     1      -1.794  13.079  23.410  0.00  0.00    +0.000 OA
ATOM     20  H   UNL     1       1.408   9.925  18.709  0.00  0.00    +0.000 HD
ENDROOT
BRANCH   1  21
ATOM     21  C   UNL     1       2.454   7.348  19.054  0.00  0.00    +0.000 C 
BRANCH  21  25
ATOM     22  N   UNL     1       3.413   4.145  17.382  0.00  0.00    +0.000 NA
ATOM     23  C   UNL     1       2.041   4.501  17.803  0.00  0.00    +0.000 C 
ATOM     24  C   UNL     1       1.900   4.964  19.273  0.00  0.00    +0.000 C 
ATOM     25  N   UNL     1       2.818   6.056  19.678  0.00  0.00    +0.000 NA
ATOM     26  C   UNL     1       4.190   5.657  19.293  0.00  0.00    +0.000 C 
ATOM     27  C   UNL     1       4.346   5.209  17.815  0.00  0.00    +0.000 C 
BRANCH  22  29
ATOM     28  C   UNL     1       2.732   1.805  17.993  0.00  0.00    +0.000 C 
ATOM     29  C   UNL     1       3.858   2.827  17.860  0.00  0.00    +0.000 C 
ENDBRANCH  22  29
ENDBRANCH  21  25
ENDBRANCH   1  21
TORSDOF 3
ENDMDL
