MODEL 1
REMARK VINA RESULT:      -9.0      0.000      0.000
REMARK  Name = 
REMARK  7 active torsions:
REMARK  status: ('A' for Active; 'I' for Inactive)
REMARK    1  A    between atoms: C_1  and  C_2
REMARK    2  A    between atoms: C_2  and  N_3
REMARK    3  A    between atoms: C_12  and  C_13
REMARK    4  A    between atoms: C_17  and  C_18
REMARK    5  A    between atoms: C_18  and  O_20
REMARK    6  A    between atoms: N_24  and  C_25
REMARK    7  A    between atoms: C_25  and  C_26
REMARK                            x       y       z     vdW  Elec       q    Type
REMARK                         _______ _______ _______ _____ _____    ______ ____
ROOT
ATOM      1  C   UNL     1       2.421   7.911  18.506  0.00  0.00    +0.000 A 
ATOM      2  N   UNL     1       3.205   7.925  17.433  0.00  0.00    +0.000 NA
ATOM      3  C   UNL     1       4.136   6.934  17.611  0.00  0.00    +0.000 A 
ATOM      4  C   UNL     1       5.207   6.557  16.781  0.00  0.00    +0.000 A 
ATOM      5  C   UNL     1       6.039   5.499  17.178  0.00  0.00    +0.000 A 
ATOM      6  C   UNL     1       5.848   4.898  18.435  0.00  0.00    +0.000 A 
ATOM      7  C   UNL     1       4.793   5.273  19.280  0.00  0.00    +0.000 A 
ATOM      8  C   UNL     1       3.922   6.270  18.812  0.00  0.00    +0.000 A 
ATOM      9  N   UNL     1       2.752   6.828  19.304  0.00  0.00    +0.000 N 
ENDROOT
BRANCH   1  19
ATOM     10  N   UNL     1      -1.958  11.370  19.311  0.00  0.00    +0.000 N 
ATOM     11  C   UNL     1      -2.661  11.217  18.133  0.00  0.00    +0.000 A 
ATOM     12  C   UNL     1      -3.840  11.832  17.680  0.00  0.00    +0.000 A 
ATOM     13  C   UNL     1      -4.347  11.448  16.438  0.00  0.00    +0.000 A 
ATOM     14  C   UNL     1      -3.701  10.484  15.672  0.00  0.00    +0.000 A 
ATOM     15  C   UNL     1      -2.517   9.891  16.123  0.00  0.00    +0.000 A 
ATOM     16  C   UNL     1      -1.977  10.267  17.371  0.00  0.00    +0.000 A 
ATOM     17  C   UNL     1      -0.800   9.899  18.096  0.00  0.00    +0.000 A 
ATOM     18  C   UNL     1       0.277   9.007  17.839  0.00  0.00    +0.000 A 
ATOM     19  C   UNL     1       1.337   8.883  18.754  0.00  0.00    +0.000 A 
ATOM     20  C   UNL     1       1.334   9.707  19.889  0.00  0.00    +0.000 A 
ATOM     21  C   UNL     1       0.258  10.546  20.200  0.00  0.00    +0.000 A 
ATOM     22  C   UNL     1      -0.796  10.625  19.284  0.00  0.00    +0.000 A 
BRANCH  10  24
ATOM     23  C   UNL     1      -1.861  13.604  20.372  0.00  0.00    +0.000 C 
ATOM     24  C   UNL     1      -2.397  12.185  20.434  0.00  0.00    +0.000 C 
ENDBRANCH  10  24
ENDBRANCH   1  19
BRANCH   5  25
ATOM     25  C   UNL     1       7.170   5.007  16.349  0.00  0.00    +0.000 C 
ATOM     26  O   UNL     1       7.395   5.422  15.226  0.00  0.00    +0.000 OA
BRANCH  25  27
ATOM     27  O   UNL     1       7.964   4.102  16.962  0.00  0.00    +0.000 OA
ATOM     28  H   UNL     1       8.915   4.309  16.976  0.00  0.00    +0.000 HD
ENDBRANCH  25  27
ENDBRANCH   5  25
BRANCH   9  29
ATOM     29  C   UNL     1       2.012   6.308  20.458  0.00  0.00    +0.000 C 
BRANCH  29  30
ATOM     30  C   UNL     1       1.050   5.193  20.150  0.00  0.00    +0.000 C 
ATOM     31  C   UNL     1       1.417   4.029  19.262  0.00  0.00    +0.000 C 
ATOM     32  C   UNL     1       1.311   3.832  20.749  0.00  0.00    +0.000 C 
ENDBRANCH  29  30
ENDBRANCH   9  29
TORSDOF 6
ENDMDL
MODEL 2
REMARK VINA RESULT:      -9.0      2.261      2.855
REMARK  Name = 
REMARK  7 active torsions:
REMARK  status: ('A' for Active; 'I' for Inactive)
REMARK    1  A    between atoms: C_1  and  C_2
REMARK    2  A    between atoms: C_2  and  N_3
REMARK    3  A    between atoms: C_12  and  C_13
REMARK    4  A    between atoms: C_17  and  C_18
REMARK    5  A    between atoms: C_18  and  O_20
REMARK    6  A    between atoms: N_24  and  C_25
REMARK    7  A    between atoms: C_25  and  C_26
REMARK                            x       y       z     vdW  Elec       q    Type
REMARK                         _______ _______ _______ _____ _____    ______ ____
ROOT
ATOM      1  C   UNL     1       2.917   6.902  18.285  0.00  0.00    +0.000 A 
ATOM      2  N   UNL     1       3.818   7.333  17.408  0.00  0.00    +0.000 NA
ATOM      3  C   UNL     1       4.375   6.219  16.834  0.00  0.00    +0.000 A 
ATOM      4  C   UNL     1       5.395   6.129  15.870  0.00  0.00    +0.000 A 
ATOM      5  C   UNL     1       5.808   4.862  15.429  0.00  0.00    +0.000 A 
ATOM      6  C   UNL     1       5.266   3.708  16.023  0.00  0.00    +0.000 A 
ATOM      7  C   UNL     1       4.259   3.783  16.997  0.00  0.00    +0.000 A 
ATOM      8  C   UNL     1       3.802   5.063  17.348  0.00  0.00    +0.000 A 
ATOM      9  N   UNL     1       2.792   5.526  18.178  0.00  0.00    +0.000 N 
ENDROOT
BRANCH   1  19
ATOM     10  N   UNL     1      -0.237  10.359  21.428  0.00  0.00    +0.000 N 
ATOM     11  C   UNL     1      -0.384  11.448  20.592  0.00  0.00    +0.000 A 
ATOM     12  C   UNL     1      -1.036  12.677  20.790  0.00  0.00    +0.000 A 
ATOM     13  C   UNL     1      -1.049  13.591  19.735  0.00  0.00    +0.000 A 
ATOM     14  C   UNL     1      -0.434  13.292  18.525  0.00  0.00    +0.000 A 
ATOM     15  C   UNL     1       0.230  12.074  18.344  0.00  0.00    +0.000 A 
ATOM     16  C   UNL     1       0.266  11.134  19.397  0.00  0.00    +0.000 A 
ATOM     17  C   UNL     1       0.870   9.847  19.559  0.00  0.00    +0.000 A 
ATOM     18  C   UNL     1       1.659   9.016  18.718  0.00  0.00    +0.000 A 
ATOM     19  C   UNL     1       2.148   7.783  19.186  0.00  0.00    +0.000 A 
ATOM     20  C   UNL     1       1.890   7.430  20.518  0.00  0.00    +0.000 A 
ATOM     21  C   UNL     1       1.063   8.195  21.347  0.00  0.00    +0.000 A 
ATOM     22  C   UNL     1       0.567   9.402  20.843  0.00  0.00    +0.000 A 
BRANCH  10  24
ATOM     23  C   UNL     1       0.029   9.554  23.753  0.00  0.00    +0.000 C 
ATOM     24  C   UNL     1      -0.869  10.231  22.733  0.00  0.00    +0.000 C 
ENDBRANCH  10  24
ENDBRANCH   1  19
BRANCH   5  25
ATOM     25  C   UNL     1       6.849   4.669  14.387  0.00  0.00    +0.000 C 
ATOM     26  O   UNL     1       7.826   5.391  14.287  0.00  0.00    +0.000 OA
BRANCH  25  27
ATOM     27  O   UNL     1       6.658   3.594  13.593  0.00  0.00    +0.000 OA
ATOM     28  H   UNL     1       5.793   3.155  13.669  0.00  0.00    +0.000 HD
ENDBRANCH  25  27
ENDBRANCH   5  25
BRANCH   9  29
ATOM     29  C   UNL     1       1.771   4.670  18.790  0.00  0.00    +0.000 C 
BRANCH  29  30
ATOM     30  C   UNL     1       2.278   3.732  19.851  0.00  0.00    +0.000 C 
ATOM     31  C   UNL     1       2.070   3.987  21.324  0.00  0.00    +0.000 C 
ATOM     32  C   UNL     1       1.273   2.917  20.631  0.00  0.00    +0.000 C 
ENDBRANCH  29  30
ENDBRANCH   9  29
TORSDOF 6
ENDMDL
MODEL 3
REMARK VINA RESULT:      -8.5      4.445      9.262
REMARK  Name = 
REMARK  7 active torsions:
REMARK  status: ('A' for Active; 'I' for Inactive)
REMARK    1  A    between atoms: C_1  and  C_2
REMARK    2  A    between atoms: C_2  and  N_3
REMARK    3  A    between atoms: C_12  and  C_13
REMARK    4  A    between atoms: C_17  and  C_18
REMARK    5  A    between atoms: C_18  and  O_20
REMARK    6  A    between atoms: N_24  and  C_25
REMARK    7  A    between atoms: C_25  and  C_26
REMARK                            x       y       z     vdW  Elec       q    Type
REMARK                         _______ _______ _______ _____ _____    ______ ____
ROOT
ATOM      1  C   UNL     1       0.233   9.644  20.314  0.00  0.00    +0.000 A 
ATOM      2  N   UNL     1      -0.109   9.690  21.597  0.00  0.00    +0.000 NA
ATOM      3  C   UNL     1      -0.947  10.766  21.745  0.00  0.00    +0.000 A 
ATOM      4  C   UNL     1      -1.559  11.265  22.908  0.00  0.00    +0.000 A 
ATOM      5  C   UNL     1      -2.386  12.395  22.813  0.00  0.00    +0.000 A 
ATOM      6  C   UNL     1      -2.512  13.063  21.581  0.00  0.00    +0.000 A 
ATOM      7  C   UNL     1      -1.894  12.585  20.416  0.00  0.00    +0.000 A 
ATOM      8  C   UNL     1      -1.151  11.399  20.526  0.00  0.00    +0.000 A 
ATOM      9  N   UNL     1      -0.490  10.594  19.610  0.00  0.00    +0.000 N 
ENDROOT
BRANCH   1  19
ATOM     10  N   UNL     1       3.669   5.696  18.218  0.00  0.00    +0.000 N 
ATOM     11  C   UNL     1       3.533   4.681  19.143  0.00  0.00    +0.000 A 
ATOM     12  C   UNL     1       4.152   3.422  19.225  0.00  0.00    +0.000 A 
ATOM     13  C   UNL     1       3.786   2.576  20.273  0.00  0.00    +0.000 A 
ATOM     14  C   UNL     1       2.836   2.969  21.208  0.00  0.00    +0.000 A 
ATOM     15  C   UNL     1       2.239   4.232  21.130  0.00  0.00    +0.000 A 
ATOM     16  C   UNL     1       2.596   5.112  20.086  0.00  0.00    +0.000 A 
ATOM     17  C   UNL     1       2.220   6.448  19.740  0.00  0.00    +0.000 A 
ATOM     18  C   UNL     1       1.334   7.401  20.312  0.00  0.00    +0.000 A 
ATOM     19  C   UNL     1       1.198   8.682  19.746  0.00  0.00    +0.000 A 
ATOM     20  C   UNL     1       2.004   9.010  18.646  0.00  0.00    +0.000 A 
ATOM     21  C   UNL     1       2.835   8.073  18.023  0.00  0.00    +0.000 A 
ATOM     22  C   UNL     1       2.926   6.797  18.592  0.00  0.00    +0.000 A 
BRANCH  10  24
ATOM     23  C   UNL     1       5.871   6.147  17.182  0.00  0.00    +0.000 C 
ATOM     24  C   UNL     1       4.465   5.603  17.003  0.00  0.00    +0.000 C 
ENDBRANCH  10  24
ENDBRANCH   1  19
BRANCH   5  25
ATOM     25  C   UNL     1      -3.105  12.970  23.979  0.00  0.00    +0.000 C 
ATOM     26  O   UNL     1      -2.852  14.072  24.433  0.00  0.00    +0.000 OA
BRANCH  25  27
ATOM     27  O   UNL     1      -4.104  12.199  24.459  0.00  0.00    +0.000 OA
ATOM     28  H   UNL     1      -5.001  12.424  24.158  0.00  0.00    +0.000 HD
ENDBRANCH  25  27
ENDBRANCH   5  25
BRANCH   9  29
ATOM     29  C   UNL     1      -0.592  10.744  18.156  0.00  0.00    +0.000 C 
BRANCH  29  30
ATOM     30  C   UNL     1      -1.550   9.799  17.482  0.00  0.00    +0.000 C 
ATOM     31  C   UNL     1      -3.045   9.899  17.661  0.00  0.00    +0.000 C 
ATOM     32  C   UNL     1      -2.416  10.329  16.365  0.00  0.00    +0.000 C 
ENDBRANCH  29  30
ENDBRANCH   9  29
TORSDOF 6
ENDMDL
MODEL 4
REMARK VINA RESULT:      -8.5      1.084      2.827
REMARK  Name = 
REMARK  7 active torsions:
REMARK  status: ('A' for Active; 'I' for Inactive)
REMARK    1  A    between atoms: C_1  and  C_2
REMARK    2  A    between atoms: C_2  and  N_3
REMARK    3  A    between atoms: C_12  and  C_13
REMARK    4  A    between atoms: C_17  and  C_18
REMARK    5  A    between atoms: C_18  and  O_20
REMARK    6  A    between atoms: N_24  and  C_25
REMARK    7  A    between atoms: C_25  and  C_26
REMARK                            x       y       z     vdW  Elec       q    Type
REMARK                         _______ _______ _______ _____ _____    ______ ____
ROOT
ATOM      1  C   UNL     1       2.531   7.519  18.557  0.00  0.00    +0.000 A 
ATOM      2  N   UNL     1       3.404   7.506  17.555  0.00  0.00    +0.000 NA
ATOM      3  C   UNL     1       4.319   6.526  17.841  0.00  0.00    +0.000 A 
ATOM      4  C   UNL     1       5.458   6.131  17.116  0.00  0.00    +0.000 A 
ATOM      5  C   UNL     1       6.257   5.090  17.614  0.00  0.00    +0.000 A 
ATOM      6  C   UNL     1       5.962   4.525  18.868  0.00  0.00    +0.000 A 
ATOM      7  C   UNL     1       4.837   4.919  19.608  0.00  0.00    +0.000 A 
ATOM      8  C   UNL     1       4.006   5.897  19.039  0.00  0.00    +0.000 A 
ATOM      9  N   UNL     1       2.796   6.462  19.413  0.00  0.00    +0.000 N 
ENDROOT
BRANCH   1  19
ATOM     10  N   UNL     1      -1.485  11.403  19.314  0.00  0.00    +0.000 N 
ATOM     11  C   UNL     1      -1.549  11.481  20.691  0.00  0.00    +0.000 A 
ATOM     12  C   UNL     1      -2.379  12.242  21.530  0.00  0.00    +0.000 A 
ATOM     13  C   UNL     1      -2.190  12.140  22.910  0.00  0.00    +0.000 A 
ATOM     14  C   UNL     1      -1.209  11.306  23.436  0.00  0.00    +0.000 A 
ATOM     15  C   UNL     1      -0.401  10.537  22.592  0.00  0.00    +0.000 A 
ATOM     16  C   UNL     1      -0.575  10.615  21.193  0.00  0.00    +0.000 A 
ATOM     17  C   UNL     1       0.035   9.958  20.078  0.00  0.00    +0.000 A 
ATOM     18  C   UNL     1       1.058   8.980  19.950  0.00  0.00    +0.000 A 
ATOM     19  C   UNL     1       1.427   8.492  18.684  0.00  0.00    +0.000 A 
ATOM     20  C   UNL     1       0.717   8.949  17.564  0.00  0.00    +0.000 A 
ATOM     21  C   UNL     1      -0.248   9.957  17.652  0.00  0.00    +0.000 A 
ATOM     22  C   UNL     1      -0.572  10.444  18.923  0.00  0.00    +0.000 A 
BRANCH  10  24
ATOM     23  C   UNL     1      -3.581  11.609  18.014  0.00  0.00    +0.000 C 
ATOM     24  C   UNL     1      -2.255  12.238  18.404  0.00  0.00    +0.000 C 
ENDBRANCH  10  24
ENDBRANCH   1  19
BRANCH   5  25
ATOM     25  C   UNL     1       7.456   4.580  16.899  0.00  0.00    +0.000 C 
ATOM     26  O   UNL     1       7.620   4.723  15.701  0.00  0.00    +0.000 OA
BRANCH  25  27
ATOM     27  O   UNL     1       8.377   3.995  17.694  0.00  0.00    +0.000 OA
ATOM     28  H   UNL     1       8.803   4.572  18.351  0.00  0.00    +0.000 HD
ENDBRANCH  25  27
ENDBRANCH   5  25
BRANCH   9  29
ATOM     29  C   UNL     1       1.963   5.972  20.515  0.00  0.00    +0.000 C 
BRANCH  29  30
ATOM     30  C   UNL     1       0.980   4.895  20.142  0.00  0.00    +0.000 C 
ATOM     31  C   UNL     1       1.338   3.759  19.216  0.00  0.00    +0.000 C 
ATOM     32  C   UNL     1       1.195   3.505  20.690  0.00  0.00    +0.000 C 
ENDBRANCH  29  30
ENDBRANCH   9  29
TORSDOF 6
ENDMDL
MODEL 5
REMARK VINA RESULT:      -8.2      2.286      2.588
REMARK  Name = 
REMARK  7 active torsions:
REMARK  status: ('A' for Active; 'I' for Inactive)
REMARK    1  A    between atoms: C_1  and  C_2
REMARK    2  A    between atoms: C_2  and  N_3
REMARK    3  A    between atoms: C_12  and  C_13
REMARK    4  A    between atoms: C_17  and  C_18
REMARK    5  A    between atoms: C_18  and  O_20
REMARK    6  A    between atoms: N_24  and  C_25
REMARK    7  A    between atoms: C_25  and  C_26
REMARK                            x       y       z     vdW  Elec       q    Type
REMARK                         _______ _______ _______ _____ _____    ______ ____
ROOT
ATOM      1  C   UNL     1       2.754   7.220  19.048  0.00  0.00    +0.000 A 
ATOM      2  N   UNL     1       3.327   7.508  17.884  0.00  0.00    +0.000 NA
ATOM      3  C   UNL     1       4.057   6.406  17.519  0.00  0.00    +0.000 A 
ATOM      4  C   UNL     1       4.871   6.210  16.389  0.00  0.00    +0.000 A 
ATOM      5  C   UNL     1       5.531   4.982  16.228  0.00  0.00    +0.000 A 
ATOM      6  C   UNL     1       5.444   4.008  17.239  0.00  0.00    +0.000 A 
ATOM      7  C   UNL     1       4.648   4.196  18.379  0.00  0.00    +0.000 A 
ATOM      8  C   UNL     1       3.927   5.397  18.465  0.00  0.00    +0.000 A 
ATOM      9  N   UNL     1       2.995   5.894  19.364  0.00  0.00    +0.000 N 
ENDROOT
BRANCH   1  19
ATOM     10  N   UNL     1      -0.516  10.947  21.731  0.00  0.00    +0.000 N 
ATOM     11  C   UNL     1      -0.549  11.995  20.833  0.00  0.00    +0.000 A 
ATOM     12  C   UNL     1      -1.167  13.254  20.912  0.00  0.00    +0.000 A 
ATOM     13  C   UNL     1      -1.056  14.111  19.816  0.00  0.00    +0.000 A 
ATOM     14  C   UNL     1      -0.353  13.727  18.679  0.00  0.00    +0.000 A 
ATOM     15  C   UNL     1       0.275  12.479  18.618  0.00  0.00    +0.000 A 
ATOM     16  C   UNL     1       0.186  11.595  19.715  0.00  0.00    +0.000 A 
ATOM     17  C   UNL     1       0.723  10.299  19.992  0.00  0.00    +0.000 A 
ATOM     18  C   UNL     1       1.547   9.397  19.265  0.00  0.00    +0.000 A 
ATOM     19  C   UNL     1       1.947   8.175  19.834  0.00  0.00    +0.000 A 
ATOM     20  C   UNL     1       1.564   7.902  21.155  0.00  0.00    +0.000 A 
ATOM     21  C   UNL     1       0.701   8.738  21.871  0.00  0.00    +0.000 A 
ATOM     22  C   UNL     1       0.296   9.933  21.266  0.00  0.00    +0.000 A 
BRANCH  10  24
ATOM     23  C   UNL     1      -2.439  11.866  22.990  0.00  0.00    +0.000 C 
ATOM     24  C   UNL     1      -1.260  10.910  22.982  0.00  0.00    +0.000 C 
ENDBRANCH  10  24
ENDBRANCH   1  19
BRANCH   5  25
ATOM     25  C   UNL     1       6.379   4.670  15.049  0.00  0.00    +0.000 C 
ATOM     26  O   UNL     1       7.274   5.403  14.666  0.00  0.00    +0.000 OA
BRANCH  25  27
ATOM     27  O   UNL     1       6.118   3.479  14.468  0.00  0.00    +0.000 OA
ATOM     28  H   UNL     1       5.242   3.388  14.056  0.00  0.00    +0.000 HD
ENDBRANCH  25  27
ENDBRANCH   5  25
BRANCH   9  29
ATOM     29  C   UNL     1       2.378   5.102  20.432  0.00  0.00    +0.000 C 
BRANCH  29  30
ATOM     30  C   UNL     1       1.129   4.361  20.038  0.00  0.00    +0.000 C 
ATOM     31  C   UNL     1       1.127   3.282  18.982  0.00  0.00    +0.000 C 
ATOM     32  C   UNL     1       0.999   2.909  20.433  0.00  0.00    +0.000 C 
ENDBRANCH  29  30
ENDBRANCH   9  29
TORSDOF 6
ENDMDL
MODEL 6
REMARK VINA RESULT:      -8.2      1.095      1.392
REMARK  Name = 
REMARK  7 active torsions:
REMARK  status: ('A' for Active; 'I' for Inactive)
REMARK    1  A    between atoms: C_1  and  C_2
REMARK    2  A    between atoms: C_2  and  N_3
REMARK    3  A    between atoms: C_12  and  C_13
REMARK    4  A    between atoms: C_17  and  C_18
REMARK    5  A    between atoms: C_18  and  O_20
REMARK    6  A    between atoms: N_24  and  C_25
REMARK    7  A    between atoms: C_25  and  C_26
REMARK                            x       y       z     vdW  Elec       q    Type
REMARK                         _______ _______ _______ _____ _____    ______ ____
ROOT
ATOM      1  C   UNL     1       2.592   7.488  18.820  0.00  0.00    +0.000 A 
ATOM      2  N   UNL     1       3.200   7.653  17.649  0.00  0.00    +0.000 NA
ATOM      3  C   UNL     1       4.034   6.578  17.482  0.00  0.00    +0.000 A 
ATOM      4  C   UNL     1       4.918   6.292  16.426  0.00  0.00    +0.000 A 
ATOM      5  C   UNL     1       5.683   5.116  16.475  0.00  0.00    +0.000 A 
ATOM      6  C   UNL     1       5.623   4.295  17.616  0.00  0.00    +0.000 A 
ATOM      7  C   UNL     1       4.757   4.576  18.683  0.00  0.00    +0.000 A 
ATOM      8  C   UNL     1       3.937   5.709  18.561  0.00  0.00    +0.000 A 
ATOM      9  N   UNL     1       2.923   6.247  19.340  0.00  0.00    +0.000 N 
ENDROOT
BRANCH   1  19
ATOM     10  N   UNL     1      -1.207  11.074  20.939  0.00  0.00    +0.000 N 
ATOM     11  C   UNL     1      -1.989  11.344  19.835  0.00  0.00    +0.000 A 
ATOM     12  C   UNL     1      -3.094  12.198  19.678  0.00  0.00    +0.000 A 
ATOM     13  C   UNL     1      -3.718  12.243  18.430  0.00  0.00    +0.000 A 
ATOM     14  C   UNL     1      -3.257  11.466  17.374  0.00  0.00    +0.000 A 
ATOM     15  C   UNL     1      -2.144  10.633  17.534  0.00  0.00    +0.000 A 
ATOM     16  C   UNL     1      -1.489  10.574  18.783  0.00  0.00    +0.000 A 
ATOM     17  C   UNL     1      -0.336   9.879  19.267  0.00  0.00    +0.000 A 
ATOM     18  C   UNL     1       0.589   8.974  18.679  0.00  0.00    +0.000 A 
ATOM     19  C   UNL     1       1.671   8.472  19.423  0.00  0.00    +0.000 A 
ATOM     20  C   UNL     1       1.846   8.936  20.735  0.00  0.00    +0.000 A 
ATOM     21  C   UNL     1       0.918   9.774  21.361  0.00  0.00    +0.000 A 
ATOM     22  C   UNL     1      -0.165  10.234  20.603  0.00  0.00    +0.000 A 
BRANCH  10  24
ATOM     23  C   UNL     1      -0.831  12.943  22.517  0.00  0.00    +0.000 C 
ATOM     24  C   UNL     1      -1.465  11.585  22.277  0.00  0.00    +0.000 C 
ENDBRANCH  10  24
ENDBRANCH   1  19
BRANCH   5  25
ATOM     25  C   UNL     1       6.613   4.711  15.390  0.00  0.00    +0.000 C 
ATOM     26  O   UNL     1       7.555   5.398  15.038  0.00  0.00    +0.000 OA
BRANCH  25  27
ATOM     27  O   UNL     1       6.365   3.493  14.862  0.00  0.00    +0.000 OA
ATOM     28  H   UNL     1       6.878   3.259  14.069  0.00  0.00    +0.000 HD
ENDBRANCH  25  27
ENDBRANCH   5  25
BRANCH   9  29
ATOM     29  C   UNL     1       2.318   5.567  20.489  0.00  0.00    +0.000 C 
BRANCH  29  30
ATOM     30  C   UNL     1       1.143   4.686  20.163  0.00  0.00    +0.000 C 
ATOM     31  C   UNL     1       1.259   3.482  19.262  0.00  0.00    +0.000 C 
ATOM     32  C   UNL     1       1.105   3.294  20.745  0.00  0.00    +0.000 C 
ENDBRANCH  29  30
ENDBRANCH   9  29
TORSDOF 6
ENDMDL
MODEL 7
REMARK VINA RESULT:      -8.1      4.283      8.947
REMARK  Name = 
REMARK  7 active torsions:
REMARK  status: ('A' for Active; 'I' for Inactive)
REMARK    1  A    between atoms: C_1  and  C_2
REMARK    2  A    between atoms: C_2  and  N_3
REMARK    3  A    between atoms: C_12  and  C_13
REMARK    4  A    between atoms: C_17  and  C_18
REMARK    5  A    between atoms: C_18  and  O_20
REMARK    6  A    between atoms: N_24  and  C_25
REMARK    7  A    between atoms: C_25  and  C_26
REMARK                            x       y       z     vdW  Elec       q    Type
REMARK                         _______ _______ _______ _____ _____    ______ ____
ROOT
ATOM      1  C   UNL     1       0.695   9.095  20.547  0.00  0.00    +0.000 A 
ATOM      2  N   UNL     1       0.344   9.414  21.789  0.00  0.00    +0.000 NA
ATOM      3  C   UNL     1      -0.173  10.683  21.740  0.00  0.00    +0.000 A 
ATOM      4  C   UNL     1      -0.659  11.488  22.786  0.00  0.00    +0.000 A 
ATOM      5  C   UNL     1      -1.143  12.772  22.490  0.00  0.00    +0.000 A 
ATOM      6  C   UNL     1      -1.050  13.265  21.176  0.00  0.00    +0.000 A 
ATOM      7  C   UNL     1      -0.554  12.478  20.126  0.00  0.00    +0.000 A 
ATOM      8  C   UNL     1      -0.165  11.166  20.438  0.00  0.00    +0.000 A 
ATOM      9  N   UNL     1       0.277  10.092  19.681  0.00  0.00    +0.000 N 
ENDROOT
BRANCH   1  19
ATOM     10  N   UNL     1       3.605   4.509  19.037  0.00  0.00    +0.000 N 
ATOM     11  C   UNL     1       4.228   4.936  17.882  0.00  0.00    +0.000 A 
ATOM     12  C   UNL     1       5.076   4.257  16.990  0.00  0.00    +0.000 A 
ATOM     13  C   UNL     1       5.593   4.967  15.905  0.00  0.00    +0.000 A 
ATOM     14  C   UNL     1       5.278   6.307  15.714  0.00  0.00    +0.000 A 
ATOM     15  C   UNL     1       4.418   6.969  16.597  0.00  0.00    +0.000 A 
ATOM     16  C   UNL     1       3.873   6.274  17.698  0.00  0.00    +0.000 A 
ATOM     17  C   UNL     1       2.960   6.625  18.741  0.00  0.00    +0.000 A 
ATOM     18  C   UNL     1       2.255   7.813  19.075  0.00  0.00    +0.000 A 
ATOM     19  C   UNL     1       1.377   7.840  20.174  0.00  0.00    +0.000 A 
ATOM     20  C   UNL     1       1.171   6.650  20.887  0.00  0.00    +0.000 A 
ATOM     21  C   UNL     1       1.898   5.485  20.623  0.00  0.00    +0.000 A 
ATOM     22  C   UNL     1       2.786   5.498  19.541  0.00  0.00    +0.000 A 
BRANCH  10  24
ATOM     23  C   UNL     1       2.837   2.158  19.132  0.00  0.00    +0.000 C 
ATOM     24  C   UNL     1       3.808   3.204  19.649  0.00  0.00    +0.000 C 
ENDBRANCH  10  24
ENDBRANCH   1  19
BRANCH   5  25
ATOM     25  C   UNL     1      -1.711  13.678  23.522  0.00  0.00    +0.000 C 
ATOM     26  O   UNL     1      -2.877  13.632  23.872  0.00  0.00    +0.000 OA
BRANCH  25  27
ATOM     27  O   UNL     1      -0.817  14.520  24.084  0.00  0.00    +0.000 OA
ATOM     28  H   UNL     1      -1.134  15.028  24.851  0.00  0.00    +0.000 HD
ENDBRANCH  25  27
ENDBRANCH   5  25
BRANCH   9  29
ATOM     29  C   UNL     1       0.259  10.053  18.215  0.00  0.00    +0.000 C 
BRANCH  29  30
ATOM     30  C   UNL     1      -1.031   9.575  17.605  0.00  0.00    +0.000 C 
ATOM     31  C   UNL     1      -2.381   9.978  18.145  0.00  0.00    +0.000 C 
ATOM     32  C   UNL     1      -1.884  10.569  16.855  0.00  0.00    +0.000 C 
ENDBRANCH  29  30
ENDBRANCH   9  29
TORSDOF 6
ENDMDL
MODEL 8
REMARK VINA RESULT:      -7.8      4.071      8.680
REMARK  Name = 
REMARK  7 active torsions:
REMARK  status: ('A' for Active; 'I' for Inactive)
REMARK    1  A    between atoms: C_1  and  C_2
REMARK    2  A    between atoms: C_2  and  N_3
REMARK    3  A    between atoms: C_12  and  C_13
REMARK    4  A    between atoms: C_17  and  C_18
REMARK    5  A    between atoms: C_18  and  O_20
REMARK    6  A    between atoms: N_24  and  C_25
REMARK    7  A    between atoms: C_25  and  C_26
REMARK                            x       y       z     vdW  Elec       q    Type
REMARK                         _______ _______ _______ _____ _____    ______ ____
ROOT
ATOM      1  C   UNL     1       0.908  10.391  19.813  0.00  0.00    +0.000 A 
ATOM      2  N   UNL     1       1.303  11.317  20.681  0.00  0.00    +0.000 NA
ATOM      3  C   UNL     1       0.848  12.521  20.208  0.00  0.00    +0.000 A 
ATOM      4  C   UNL     1       1.024  13.811  20.740  0.00  0.00    +0.000 A 
ATOM      5  C   UNL     1       0.461  14.909  20.071  0.00  0.00    +0.000 A 
ATOM      6  C   UNL     1      -0.186  14.713  18.837  0.00  0.00    +0.000 A 
ATOM      7  C   UNL     1      -0.356  13.434  18.287  0.00  0.00    +0.000 A 
ATOM      8  C   UNL     1       0.138  12.348  19.028  0.00  0.00    +0.000 A 
ATOM      9  N   UNL     1       0.084  10.972  18.863  0.00  0.00    +0.000 N 
ENDROOT
BRANCH   1  19
ATOM     10  N   UNL     1       2.628   5.028  20.053  0.00  0.00    +0.000 N 
ATOM     11  C   UNL     1       3.382   4.919  18.902  0.00  0.00    +0.000 A 
ATOM     12  C   UNL     1       4.064   3.822  18.350  0.00  0.00    +0.000 A 
ATOM     13  C   UNL     1       4.784   4.021  17.170  0.00  0.00    +0.000 A 
ATOM     14  C   UNL     1       4.822   5.270  16.560  0.00  0.00    +0.000 A 
ATOM     15  C   UNL     1       4.124   6.351  17.107  0.00  0.00    +0.000 A 
ATOM     16  C   UNL     1       3.381   6.177  18.295  0.00  0.00    +0.000 A 
ATOM     17  C   UNL     1       2.547   7.034  19.079  0.00  0.00    +0.000 A 
ATOM     18  C   UNL     1       2.150   8.395  18.968  0.00  0.00    +0.000 A 
ATOM     19  C   UNL     1       1.267   8.962  19.904  0.00  0.00    +0.000 A 
ATOM     20  C   UNL     1       0.742   8.134  20.907  0.00  0.00    +0.000 A 
ATOM     21  C   UNL     1       1.163   6.811  21.080  0.00  0.00    +0.000 A 
ATOM     22  C   UNL     1       2.066   6.284  20.150  0.00  0.00    +0.000 A 
BRANCH  10  24
ATOM     23  C   UNL     1       1.247   3.111  20.791  0.00  0.00    +0.000 C 
ATOM     24  C   UNL     1       2.474   3.969  21.040  0.00  0.00    +0.000 C 
ENDBRANCH  10  24
ENDBRANCH   1  19
BRANCH   5  25
ATOM     25  C   UNL     1       0.560  16.302  20.577  0.00  0.00    +0.000 C 
ATOM     26  O   UNL     1      -0.200  17.187  20.227  0.00  0.00    +0.000 OA
BRANCH  25  27
ATOM     27  O   UNL     1       1.525  16.497  21.501  0.00  0.00    +0.000 OA
ATOM     28  H   UNL     1       1.634  17.410  21.819  0.00  0.00    +0.000 HD
ENDBRANCH  25  27
ENDBRANCH   5  25
BRANCH   9  29
ATOM     29  C   UNL     1      -0.741  10.294  17.859  0.00  0.00    +0.000 C 
BRANCH  29  30
ATOM     30  C   UNL     1      -2.202  10.185  18.202  0.00  0.00    +0.000 C 
ATOM     31  C   UNL     1      -3.225  11.181  17.712  0.00  0.00    +0.000 C 
ATOM     32  C   UNL     1      -3.171   9.806  17.107  0.00  0.00    +0.000 C 
ENDBRANCH  29  30
ENDBRANCH   9  29
TORSDOF 6
ENDMDL
MODEL 9
REMARK VINA RESULT:      -7.8      4.105      8.835
REMARK  Name = 
REMARK  7 active torsions:
REMARK  status: ('A' for Active; 'I' for Inactive)
REMARK    1  A    between atoms: C_1  and  C_2
REMARK    2  A    between atoms: C_2  and  N_3
REMARK    3  A    between atoms: C_12  and  C_13
REMARK    4  A    between atoms: C_17  and  C_18
REMARK    5  A    between atoms: C_18  and  O_20
REMARK    6  A    between atoms: N_24  and  C_25
REMARK    7  A    between atoms: C_25  and  C_26
REMARK                            x       y       z     vdW  Elec       q    Type
REMARK                         _______ _______ _______ _____ _____    ______ ____
ROOT
ATOM      1  C   UNL     1       0.901   9.913  20.065  0.00  0.00    +0.000 A 
ATOM      2  N   UNL     1       1.067  10.642  21.164  0.00  0.00    +0.000 NA
ATOM      3  C   UNL     1       0.539  11.879  20.900  0.00  0.00    +0.000 A 
ATOM      4  C   UNL     1       0.491  13.020  21.721  0.00  0.00    +0.000 A 
ATOM      5  C   UNL     1      -0.106  14.191  21.228  0.00  0.00    +0.000 A 
ATOM      6  C   UNL     1      -0.559  14.234  19.897  0.00  0.00    +0.000 A 
ATOM      7  C   UNL     1      -0.503  13.108  19.062  0.00  0.00    +0.000 A 
ATOM      8  C   UNL     1       0.014  11.926  19.616  0.00  0.00    +0.000 A 
ATOM      9  N   UNL     1       0.145  10.626  19.149  0.00  0.00    +0.000 N 
ENDROOT
BRANCH   1  19
ATOM     10  N   UNL     1       3.182   4.810  19.326  0.00  0.00    +0.000 N 
ATOM     11  C   UNL     1       3.900   4.986  18.160  0.00  0.00    +0.000 A 
ATOM     12  C   UNL     1       4.673   4.083  17.412  0.00  0.00    +0.000 A 
ATOM     13  C   UNL     1       5.324   4.560  16.273  0.00  0.00    +0.000 A 
ATOM     14  C   UNL     1       5.208   5.892  15.892  0.00  0.00    +0.000 A 
ATOM     15  C   UNL     1       4.421   6.780  16.633  0.00  0.00    +0.000 A 
ATOM     16  C   UNL     1       3.744   6.322  17.784  0.00  0.00    +0.000 A 
ATOM     17  C   UNL     1       2.854   6.934  18.722  0.00  0.00    +0.000 A 
ATOM     18  C   UNL     1       2.314   8.241  18.859  0.00  0.00    +0.000 A 
ATOM     19  C   UNL     1       1.411   8.537  19.896  0.00  0.00    +0.000 A 
ATOM     20  C   UNL     1       1.013   7.495  20.747  0.00  0.00    +0.000 A 
ATOM     21  C   UNL     1       1.577   6.217  20.677  0.00  0.00    +0.000 A 
ATOM     22  C   UNL     1       2.495   5.962  19.652  0.00  0.00    +0.000 A 
BRANCH  10  24
ATOM     23  C   UNL     1       2.059   2.639  19.715  0.00  0.00    +0.000 C 
ATOM     24  C   UNL     1       3.176   3.587  20.114  0.00  0.00    +0.000 C 
ENDBRANCH  10  24
ENDBRANCH   1  19
BRANCH   5  25
ATOM     25  C   UNL     1      -0.238  15.432  22.035  0.00  0.00    +0.000 C 
ATOM     26  O   UNL     1      -0.033  15.463  23.235  0.00  0.00    +0.000 OA
BRANCH  25  27
ATOM     27  O   UNL     1      -0.547  16.536  21.322  0.00  0.00    +0.000 OA
ATOM     28  H   UNL     1      -1.113  16.397  20.543  0.00  0.00    +0.000 HD
ENDBRANCH  25  27
ENDBRANCH   5  25
BRANCH   9  29
ATOM     29  C   UNL     1      -0.456  10.132  17.906  0.00  0.00    +0.000 C 
BRANCH  29  30
ATOM     30  C   UNL     1      -1.960  10.083  17.901  0.00  0.00    +0.000 C 
ATOM     31  C   UNL     1      -2.802  11.133  17.218  0.00  0.00    +0.000 C 
ATOM     32  C   UNL     1      -2.664   9.769  16.602  0.00  0.00    +0.000 C 
ENDBRANCH  29  30
ENDBRANCH   9  29
TORSDOF 6
ENDMDL
