MODEL 1
REMARK VINA RESULT:      -9.2      0.000      0.000
REMARK  Name = 
REMARK  10 active torsions:
REMARK  status: ('A' for Active; 'I' for Inactive)
REMARK    1  A    between atoms: C_1  and  C_2
REMARK    2  A    between atoms: C_8  and  S_9
REMARK    3  A    between atoms: S_9  and  N_12
REMARK    4  A    between atoms: N_12  and  C_13
REMARK    5  A    between atoms: C_13  and  C_14
REMARK    6  A    between atoms: C_17  and  C_18
REMARK    7  A    between atoms: N_20  and  C_21
REMARK    8  A    between atoms: C_23  and  C_24
REMARK    9  A    between atoms: C_26  and  C_27
REMARK   10  A    between atoms: C_34  and  C_35
REMARK                            x       y       z     vdW  Elec       q    Type
REMARK                         _______ _______ _______ _____ _____    ______ ____
ROOT
ATOM      1  C   UNL     1       5.113   3.863  17.666  0.00  0.00    +0.000 C 
ENDROOT
BRANCH   1   2
ATOM      2  C   UNL     1       6.156   4.565  18.556  0.00  0.00    +0.000 C 
ATOM      3  C   UNL     1       7.533   4.748  17.895  0.00  0.00    +0.000 C 
ATOM      4  C   UNL     1       7.513   5.743  16.732  0.00  0.00    +0.000 C 
ATOM      5  C   UNL     1       6.961   7.112  17.148  0.00  0.00    +0.000 C 
ATOM      6  C   UNL     1       5.594   6.961  17.846  0.00  0.00    +0.000 C 
ATOM      7  C   UNL     1       5.607   5.935  18.989  0.00  0.00    +0.000 C 
BRANCH   5   8
ATOM      8  C   UNL     1       7.939   7.892  18.039  0.00  0.00    +0.000 C 
ATOM      9  O   UNL     1       8.656   7.315  18.852  0.00  0.00    +0.000 OA
ATOM     10  N   UNL     1       7.895   9.266  17.858  0.00  0.00    +0.000 N 
ATOM     11  H   UNL     1       7.085   9.654  17.392  0.00  0.00    +0.000 HD
BRANCH  10  12
ATOM     12  C   UNL     1       8.804  10.185  18.430  0.00  0.00    +0.000 A 
ATOM     13  C   UNL     1       8.802  10.494  19.791  0.00  0.00    +0.000 A 
ATOM     14  C   UNL     1       9.711  11.411  20.332  0.00  0.00    +0.000 A 
ATOM     15  C   UNL     1       9.674  11.730  21.797  0.00  0.00    +0.000 C 
ATOM     16  C   UNL     1      10.641  12.026  19.491  0.00  0.00    +0.000 A 
ATOM     17  C   UNL     1      10.682  11.717  18.125  0.00  0.00    +0.000 A 
ATOM     18  C   UNL     1      11.678  12.389  17.226  0.00  0.00    +0.000 C 
ATOM     19  C   UNL     1       9.770  10.780  17.605  0.00  0.00    +0.000 A 
ENDBRANCH  10  12
ENDBRANCH   5   8
ENDBRANCH   1   2
BRANCH   1  20
ATOM     20  N   UNL     1       4.260   2.956  18.441  0.00  0.00    +0.000 NA
ATOM     21  H   UNL     1       4.515   1.968  18.436  0.00  0.00    +0.000 HD
BRANCH  20  22
ATOM     22  S   UNL     1       2.591   3.150  18.259  0.00  0.00    +0.000 S 
ATOM     23  O   UNL     1       1.912   2.231  19.142  0.00  0.00    +0.000 OA
ATOM     24  O   UNL     1       2.334   3.181  16.834  0.00  0.00    +0.000 OA
BRANCH  22  32
ATOM     25  C   UNL     1       0.730  10.725  21.268  0.00  0.00    +0.000 C 
ATOM     26  C   UNL     1       1.195   9.293  21.241  0.00  0.00    +0.000 C 
ATOM     27  O   UNL     1       1.347   8.702  22.310  0.00  0.00    +0.000 OA
ATOM     28  N   UNL     1       1.401   8.727  19.989  0.00  0.00    +0.000 N 
ATOM     29  C   UNL     1       1.739   7.366  19.784  0.00  0.00    +0.000 A 
ATOM     30  C   UNL     1       1.798   6.321  20.699  0.00  0.00    +0.000 A 
ATOM     31  C   UNL     1       2.088   5.027  20.239  0.00  0.00    +0.000 A 
ATOM     32  C   UNL     1       2.334   4.804  18.873  0.00  0.00    +0.000 A 
ATOM     33  C   UNL     1       2.296   5.860  17.960  0.00  0.00    +0.000 A 
ATOM     34  C   UNL     1       2.002   7.130  18.437  0.00  0.00    +0.000 A 
ATOM     35  C   UNL     1       1.901   8.375  17.626  0.00  0.00    +0.000 C 
ATOM     36  C   UNL     1       1.464   9.427  18.673  0.00  0.00    +0.000 C 
ATOM     37  C   UNL     1       0.154  10.075  18.219  0.00  0.00    +0.000 C 
ENDBRANCH  22  32
ENDBRANCH  20  22
ENDBRANCH   1  20
TORSDOF 6
ENDMDL
MODEL 2
REMARK VINA RESULT:      -8.5      1.049      1.804
REMARK  Name = 
REMARK  10 active torsions:
REMARK  status: ('A' for Active; 'I' for Inactive)
REMARK    1  A    between atoms: C_1  and  C_2
REMARK    2  A    between atoms: C_8  and  S_9
REMARK    3  A    between atoms: S_9  and  N_12
REMARK    4  A    between atoms: N_12  and  C_13
REMARK    5  A    between atoms: C_13  and  C_14
REMARK    6  A    between atoms: C_17  and  C_18
REMARK    7  A    between atoms: N_20  and  C_21
REMARK    8  A    between atoms: C_23  and  C_24
REMARK    9  A    between atoms: C_26  and  C_27
REMARK   10  A    between atoms: C_34  and  C_35
REMARK                            x       y       z     vdW  Elec       q    Type
REMARK                         _______ _______ _______ _____ _____    ______ ____
ROOT
ATOM      1  C   UNL     1       4.854   3.556  17.224  0.00  0.00    +0.000 C 
ENDROOT
BRANCH   1   2
ATOM      2  C   UNL     1       5.090   5.033  16.857  0.00  0.00    +0.000 C 
ATOM      3  C   UNL     1       5.057   5.997  18.055  0.00  0.00    +0.000 C 
ATOM      4  C   UNL     1       6.234   5.804  19.013  0.00  0.00    +0.000 C 
ATOM      5  C   UNL     1       7.588   5.923  18.302  0.00  0.00    +0.000 C 
ATOM      6  C   UNL     1       7.643   4.993  17.074  0.00  0.00    +0.000 C 
ATOM      7  C   UNL     1       6.441   5.160  16.131  0.00  0.00    +0.000 C 
BRANCH   5   8
ATOM      8  C   UNL     1       7.914   7.369  17.899  0.00  0.00    +0.000 C 
ATOM      9  O   UNL     1       7.627   7.797  16.785  0.00  0.00    +0.000 OA
ATOM     10  N   UNL     1       8.575   8.093  18.880  0.00  0.00    +0.000 N 
ATOM     11  H   UNL     1       9.017   7.576  19.630  0.00  0.00    +0.000 HD
BRANCH  10  12
ATOM     12  C   UNL     1       8.836   9.480  18.820  0.00  0.00    +0.000 A 
ATOM     13  C   UNL     1       8.150  10.337  17.958  0.00  0.00    +0.000 A 
ATOM     14  C   UNL     1       8.431  11.708  17.915  0.00  0.00    +0.000 A 
ATOM     15  C   UNL     1       7.684  12.599  16.968  0.00  0.00    +0.000 C 
ATOM     16  C   UNL     1       9.416  12.229  18.758  0.00  0.00    +0.000 A 
ATOM     17  C   UNL     1      10.104  11.396  19.651  0.00  0.00    +0.000 A 
ATOM     18  C   UNL     1      11.168  11.960  20.546  0.00  0.00    +0.000 C 
ATOM     19  C   UNL     1       9.795  10.024  19.688  0.00  0.00    +0.000 A 
ENDBRANCH  10  12
ENDBRANCH   5   8
ENDBRANCH   1   2
BRANCH   1  20
ATOM     20  N   UNL     1       4.202   3.418  18.530  0.00  0.00    +0.000 NA
ATOM     21  H   UNL     1       4.539   2.671  19.137  0.00  0.00    +0.000 HD
BRANCH  20  22
ATOM     22  S   UNL     1       2.513   3.487  18.541  0.00  0.00    +0.000 S 
ATOM     23  O   UNL     1       2.011   2.562  19.531  0.00  0.00    +0.000 OA
ATOM     24  O   UNL     1       2.090   3.438  17.157  0.00  0.00    +0.000 OA
BRANCH  22  32
ATOM     25  C   UNL     1       0.422  11.062  21.398  0.00  0.00    +0.000 C 
ATOM     26  C   UNL     1       0.924   9.641  21.401  0.00  0.00    +0.000 C 
ATOM     27  O   UNL     1       1.079   9.073  22.482  0.00  0.00    +0.000 OA
ATOM     28  N   UNL     1       1.159   9.060  20.162  0.00  0.00    +0.000 N 
ATOM     29  C   UNL     1       1.534   7.705  19.984  0.00  0.00    +0.000 A 
ATOM     30  C   UNL     1       1.610   6.678  20.917  0.00  0.00    +0.000 A 
ATOM     31  C   UNL     1       1.938   5.384  20.483  0.00  0.00    +0.000 A 
ATOM     32  C   UNL     1       2.206   5.144  19.124  0.00  0.00    +0.000 A 
ATOM     33  C   UNL     1       2.151   6.183  18.192  0.00  0.00    +0.000 A 
ATOM     34  C   UNL     1       1.818   7.453  18.644  0.00  0.00    +0.000 A 
ATOM     35  C   UNL     1       1.695   8.681  17.810  0.00  0.00    +0.000 C 
ATOM     36  C   UNL     1       1.219   9.739  18.834  0.00  0.00    +0.000 C 
ATOM     37  C   UNL     1      -0.102  10.344  18.355  0.00  0.00    +0.000 C 
ENDBRANCH  22  32
ENDBRANCH  20  22
ENDBRANCH   1  20
TORSDOF 6
ENDMDL
MODEL 3
REMARK VINA RESULT:      -8.3      0.900      1.757
REMARK  Name = 
REMARK  10 active torsions:
REMARK  status: ('A' for Active; 'I' for Inactive)
REMARK    1  A    between atoms: C_1  and  C_2
REMARK    2  A    between atoms: C_8  and  S_9
REMARK    3  A    between atoms: S_9  and  N_12
REMARK    4  A    between atoms: N_12  and  C_13
REMARK    5  A    between atoms: C_13  and  C_14
REMARK    6  A    between atoms: C_17  and  C_18
REMARK    7  A    between atoms: N_20  and  C_21
REMARK    8  A    between atoms: C_23  and  C_24
REMARK    9  A    between atoms: C_26  and  C_27
REMARK   10  A    between atoms: C_34  and  C_35
REMARK                            x       y       z     vdW  Elec       q    Type
REMARK                         _______ _______ _______ _____ _____    ______ ____
ROOT
ATOM      1  C   UNL     1       4.884   4.022  17.516  0.00  0.00    +0.000 C 
ENDROOT
BRANCH   1   2
ATOM      2  C   UNL     1       5.783   4.758  18.526  0.00  0.00    +0.000 C 
ATOM      3  C   UNL     1       7.283   4.707  18.195  0.00  0.00    +0.000 C 
ATOM      4  C   UNL     1       7.649   5.500  16.939  0.00  0.00    +0.000 C 
ATOM      5  C   UNL     1       7.197   6.962  17.022  0.00  0.00    +0.000 C 
ATOM      6  C   UNL     1       5.701   7.051  17.387  0.00  0.00    +0.000 C 
ATOM      7  C   UNL     1       5.328   6.225  18.627  0.00  0.00    +0.000 C 
BRANCH   5   8
ATOM      8  C   UNL     1       8.042   7.783  18.008  0.00  0.00    +0.000 C 
ATOM      9  O   UNL     1       8.580   7.252  18.977  0.00  0.00    +0.000 OA
ATOM     10  N   UNL     1       8.095   9.137  17.716  0.00  0.00    +0.000 N 
ATOM     11  H   UNL     1       7.397   9.511  17.086  0.00  0.00    +0.000 HD
BRANCH  10  12
ATOM     12  C   UNL     1       8.933  10.070  18.366  0.00  0.00    +0.000 A 
ATOM     13  C   UNL     1       9.936  10.773  17.697  0.00  0.00    +0.000 A 
ATOM     14  C   UNL     1      10.756  11.689  18.367  0.00  0.00    +0.000 A 
ATOM     15  C   UNL     1      11.832  12.419  17.620  0.00  0.00    +0.000 C 
ATOM     16  C   UNL     1      10.563  11.906  19.733  0.00  0.00    +0.000 A 
ATOM     17  C   UNL     1       9.548  11.232  20.425  0.00  0.00    +0.000 A 
ATOM     18  C   UNL     1       9.352  11.462  21.896  0.00  0.00    +0.000 C 
ATOM     19  C   UNL     1       8.725  10.328  19.730  0.00  0.00    +0.000 A 
ENDBRANCH  10  12
ENDBRANCH   5   8
ENDBRANCH   1   2
BRANCH   1  20
ATOM     20  N   UNL     1       3.608   4.716  17.316  0.00  0.00    +0.000 NA
ATOM     21  H   UNL     1       3.654   5.715  17.115  0.00  0.00    +0.000 HD
BRANCH  20  22
ATOM     22  S   UNL     1       2.384   4.382  18.433  0.00  0.00    +0.000 S 
ATOM     23  O   UNL     1       2.924   3.557  19.489  0.00  0.00    +0.000 OA
ATOM     24  O   UNL     1       1.222   3.988  17.666  0.00  0.00    +0.000 OA
BRANCH  22  32
ATOM     25  C   UNL     1       0.122  11.736  21.706  0.00  0.00    +0.000 C 
ATOM     26  C   UNL     1       0.644  10.326  21.632  0.00  0.00    +0.000 C 
ATOM     27  O   UNL     1       0.785   9.693  22.679  0.00  0.00    +0.000 OA
ATOM     28  N   UNL     1       0.915   9.825  20.365  0.00  0.00    +0.000 N 
ATOM     29  C   UNL     1       1.314   8.489  20.112  0.00  0.00    +0.000 A 
ATOM     30  C   UNL     1       1.384   7.407  20.982  0.00  0.00    +0.000 A 
ATOM     31  C   UNL     1       1.741   6.147  20.476  0.00  0.00    +0.000 A 
ATOM     32  C   UNL     1       2.041   5.996  19.111  0.00  0.00    +0.000 A 
ATOM     33  C   UNL     1       1.990   7.090  18.244  0.00  0.00    +0.000 A 
ATOM     34  C   UNL     1       1.630   8.325  18.766  0.00  0.00    +0.000 A 
ATOM     35  C   UNL     1       1.506   9.600  18.007  0.00  0.00    +0.000 C 
ATOM     36  C   UNL     1       0.993  10.587  19.083  0.00  0.00    +0.000 C 
ATOM     37  C   UNL     1      -0.326  11.203  18.613  0.00  0.00    +0.000 C 
ENDBRANCH  22  32
ENDBRANCH  20  22
ENDBRANCH   1  20
TORSDOF 6
ENDMDL
MODEL 4
REMARK VINA RESULT:      -8.0      3.523      7.326
REMARK  Name = 
REMARK  10 active torsions:
REMARK  status: ('A' for Active; 'I' for Inactive)
REMARK    1  A    between atoms: C_1  and  C_2
REMARK    2  A    between atoms: C_8  and  S_9
REMARK    3  A    between atoms: S_9  and  N_12
REMARK    4  A    between atoms: N_12  and  C_13
REMARK    5  A    between atoms: C_13  and  C_14
REMARK    6  A    between atoms: C_17  and  C_18
REMARK    7  A    between atoms: N_20  and  C_21
REMARK    8  A    between atoms: C_23  and  C_24
REMARK    9  A    between atoms: C_26  and  C_27
REMARK   10  A    between atoms: C_34  and  C_35
REMARK                            x       y       z     vdW  Elec       q    Type
REMARK                         _______ _______ _______ _____ _____    ______ ____
ROOT
ATOM      1  C   UNL     1       1.002   6.822  20.863  0.00  0.00    +0.000 C 
ENDROOT
BRANCH   1   2
ATOM      2  C   UNL     1       1.712   8.185  20.767  0.00  0.00    +0.000 C 
ATOM      3  C   UNL     1       1.421   8.962  19.472  0.00  0.00    +0.000 C 
ATOM      4  C   UNL     1      -0.027   9.448  19.377  0.00  0.00    +0.000 C 
ATOM      5  C   UNL     1      -0.435  10.300  20.585  0.00  0.00    +0.000 C 
ATOM      6  C   UNL     1      -0.124   9.563  21.903  0.00  0.00    +0.000 C 
ATOM      7  C   UNL     1       1.320   9.043  21.981  0.00  0.00    +0.000 C 
BRANCH   5   8
ATOM      8  C   UNL     1       0.225  11.687  20.573  0.00  0.00    +0.000 C 
ATOM      9  O   UNL     1       0.663  12.190  21.605  0.00  0.00    +0.000 OA
ATOM     10  N   UNL     1       0.235  12.297  19.328  0.00  0.00    +0.000 N 
ATOM     11  H   UNL     1      -0.396  11.939  18.623  0.00  0.00    +0.000 HD
BRANCH  10  12
ATOM     12  C   UNL     1       0.925  13.492  19.021  0.00  0.00    +0.000 A 
ATOM     13  C   UNL     1       0.295  14.737  18.989  0.00  0.00    +0.000 A 
ATOM     14  C   UNL     1       1.002  15.904  18.678  0.00  0.00    +0.000 A 
ATOM     15  C   UNL     1       0.291  17.225  18.641  0.00  0.00    +0.000 C 
ATOM     16  C   UNL     1       2.368  15.821  18.397  0.00  0.00    +0.000 A 
ATOM     17  C   UNL     1       3.031  14.587  18.446  0.00  0.00    +0.000 A 
ATOM     18  C   UNL     1       4.497  14.504  18.134  0.00  0.00    +0.000 C 
ATOM     19  C   UNL     1       2.306  13.429  18.776  0.00  0.00    +0.000 A 
ENDBRANCH  10  12
ENDBRANCH   5   8
ENDBRANCH   1   2
BRANCH   1  20
ATOM     20  N   UNL     1       1.891   5.782  21.391  0.00  0.00    +0.000 NA
ATOM     21  H   UNL     1       2.859   6.050  21.570  0.00  0.00    +0.000 HD
BRANCH  20  22
ATOM     22  S   UNL     1       1.814   4.270  20.638  0.00  0.00    +0.000 S 
ATOM     23  O   UNL     1       0.474   4.060  20.141  0.00  0.00    +0.000 OA
ATOM     24  O   UNL     1       2.460   3.331  21.531  0.00  0.00    +0.000 OA
BRANCH  22  32
ATOM     25  C   UNL     1       7.364   4.924  14.418  0.00  0.00    +0.000 C 
ATOM     26  C   UNL     1       6.224   4.383  15.241  0.00  0.00    +0.000 C 
ATOM     27  O   UNL     1       5.799   3.255  14.992  0.00  0.00    +0.000 OA
ATOM     28  N   UNL     1       5.741   5.203  16.253  0.00  0.00    +0.000 N 
ATOM     29  C   UNL     1       4.744   4.809  17.180  0.00  0.00    +0.000 A 
ATOM     30  C   UNL     1       4.162   3.562  17.378  0.00  0.00    +0.000 A 
ATOM     31  C   UNL     1       3.239   3.398  18.422  0.00  0.00    +0.000 A 
ATOM     32  C   UNL     1       2.898   4.490  19.238  0.00  0.00    +0.000 A 
ATOM     33  C   UNL     1       3.468   5.747  19.024  0.00  0.00    +0.000 A 
ATOM     34  C   UNL     1       4.383   5.885  17.988  0.00  0.00    +0.000 A 
ATOM     35  C   UNL     1       5.106   7.131  17.610  0.00  0.00    +0.000 C 
ATOM     36  C   UNL     1       6.035   6.651  16.471  0.00  0.00    +0.000 C 
ATOM     37  C   UNL     1       7.487   6.969  16.838  0.00  0.00    +0.000 C 
ENDBRANCH  22  32
ENDBRANCH  20  22
ENDBRANCH   1  20
TORSDOF 6
ENDMDL
MODEL 5
REMARK VINA RESULT:      -8.0      3.508      7.352
REMARK  Name = 
REMARK  10 active torsions:
REMARK  status: ('A' for Active; 'I' for Inactive)
REMARK    1  A    between atoms: C_1  and  C_2
REMARK    2  A    between atoms: C_8  and  S_9
REMARK    3  A    between atoms: S_9  and  N_12
REMARK    4  A    between atoms: N_12  and  C_13
REMARK    5  A    between atoms: C_13  and  C_14
REMARK    6  A    between atoms: C_17  and  C_18
REMARK    7  A    between atoms: N_20  and  C_21
REMARK    8  A    between atoms: C_23  and  C_24
REMARK    9  A    between atoms: C_26  and  C_27
REMARK   10  A    between atoms: C_34  and  C_35
REMARK                            x       y       z     vdW  Elec       q    Type
REMARK                         _______ _______ _______ _____ _____    ______ ____
ROOT
ATOM      1  C   UNL     1       1.019   6.733  20.694  0.00  0.00    +0.000 C 
ENDROOT
BRANCH   1   2
ATOM      2  C   UNL     1       1.743   8.092  20.658  0.00  0.00    +0.000 C 
ATOM      3  C   UNL     1       1.537   8.885  19.356  0.00  0.00    +0.000 C 
ATOM      4  C   UNL     1       0.101   9.382  19.177  0.00  0.00    +0.000 C 
ATOM      5  C   UNL     1      -0.376  10.224  20.366  0.00  0.00    +0.000 C 
ATOM      6  C   UNL     1      -0.152   9.470  21.693  0.00  0.00    +0.000 C 
ATOM      7  C   UNL     1       1.280   8.939  21.855  0.00  0.00    +0.000 C 
BRANCH   5   8
ATOM      8  C   UNL     1       0.292  11.606  20.412  0.00  0.00    +0.000 C 
ATOM      9  O   UNL     1       0.730  12.065  21.464  0.00  0.00    +0.000 OA
ATOM     10  N   UNL     1       0.308  12.266  19.193  0.00  0.00    +0.000 N 
ATOM     11  H   UNL     1      -0.323  11.940  18.472  0.00  0.00    +0.000 HD
BRANCH  10  12
ATOM     12  C   UNL     1       1.006  13.468  18.935  0.00  0.00    +0.000 A 
ATOM     13  C   UNL     1       2.369  13.497  18.639  0.00  0.00    +0.000 A 
ATOM     14  C   UNL     1       3.037  14.702  18.392  0.00  0.00    +0.000 A 
ATOM     15  C   UNL     1       4.506  14.699  18.089  0.00  0.00    +0.000 C 
ATOM     16  C   UNL     1       2.321  15.901  18.440  0.00  0.00    +0.000 A 
ATOM     17  C   UNL     1       0.946  15.900  18.711  0.00  0.00    +0.000 A 
ATOM     18  C   UNL     1       0.185  17.192  18.770  0.00  0.00    +0.000 C 
ATOM     19  C   UNL     1       0.291  14.676  18.940  0.00  0.00    +0.000 A 
ENDBRANCH  10  12
ENDBRANCH   5   8
ENDBRANCH   1   2
BRANCH   1  20
ATOM     20  N   UNL     1       1.836   5.699  21.339  0.00  0.00    +0.000 NA
ATOM     21  H   UNL     1       2.779   5.967  21.622  0.00  0.00    +0.000 HD
BRANCH  20  22
ATOM     22  S   UNL     1       1.837   4.174  20.609  0.00  0.00    +0.000 S 
ATOM     23  O   UNL     1       0.513   3.896  20.102  0.00  0.00    +0.000 OA
ATOM     24  O   UNL     1       2.514   3.280  21.525  0.00  0.00    +0.000 OA
BRANCH  22  32
ATOM     25  C   UNL     1       7.405   4.943  14.419  0.00  0.00    +0.000 C 
ATOM     26  C   UNL     1       6.259   4.390  15.226  0.00  0.00    +0.000 C 
ATOM     27  O   UNL     1       5.827   3.271  14.949  0.00  0.00    +0.000 OA
ATOM     28  N   UNL     1       5.779   5.188  16.257  0.00  0.00    +0.000 N 
ATOM     29  C   UNL     1       4.778   4.778  17.172  0.00  0.00    +0.000 A 
ATOM     30  C   UNL     1       4.187   3.531  17.338  0.00  0.00    +0.000 A 
ATOM     31  C   UNL     1       3.260   3.347  18.376  0.00  0.00    +0.000 A 
ATOM     32  C   UNL     1       2.925   4.422  19.218  0.00  0.00    +0.000 A 
ATOM     33  C   UNL     1       3.503   5.679  19.035  0.00  0.00    +0.000 A 
ATOM     34  C   UNL     1       4.422   5.836  18.006  0.00  0.00    +0.000 A 
ATOM     35  C   UNL     1       5.153   7.086  17.660  0.00  0.00    +0.000 C 
ATOM     36  C   UNL     1       6.083   6.628  16.511  0.00  0.00    +0.000 C 
ATOM     37  C   UNL     1       7.535   6.927  16.888  0.00  0.00    +0.000 C 
ENDBRANCH  22  32
ENDBRANCH  20  22
ENDBRANCH   1  20
TORSDOF 6
ENDMDL
MODEL 6
REMARK VINA RESULT:      -8.0      1.016      1.253
REMARK  Name = 
REMARK  10 active torsions:
REMARK  status: ('A' for Active; 'I' for Inactive)
REMARK    1  A    between atoms: C_1  and  C_2
REMARK    2  A    between atoms: C_8  and  S_9
REMARK    3  A    between atoms: S_9  and  N_12
REMARK    4  A    between atoms: N_12  and  C_13
REMARK    5  A    between atoms: C_13  and  C_14
REMARK    6  A    between atoms: C_17  and  C_18
REMARK    7  A    between atoms: N_20  and  C_21
REMARK    8  A    between atoms: C_23  and  C_24
REMARK    9  A    between atoms: C_26  and  C_27
REMARK   10  A    between atoms: C_34  and  C_35
REMARK                            x       y       z     vdW  Elec       q    Type
REMARK                         _______ _______ _______ _____ _____    ______ ____
ROOT
ATOM      1  C   UNL     1       5.418   4.317  17.731  0.00  0.00    +0.000 C 
ENDROOT
BRANCH   1   2
ATOM      2  C   UNL     1       5.369   5.791  18.173  0.00  0.00    +0.000 C 
ATOM      3  C   UNL     1       6.359   6.151  19.293  0.00  0.00    +0.000 C 
ATOM      4  C   UNL     1       7.821   6.093  18.844  0.00  0.00    +0.000 C 
ATOM      5  C   UNL     1       8.089   6.981  17.623  0.00  0.00    +0.000 C 
ATOM      6  C   UNL     1       7.090   6.669  16.490  0.00  0.00    +0.000 C 
ATOM      7  C   UNL     1       5.625   6.691  16.952  0.00  0.00    +0.000 C 
BRANCH   5   8
ATOM      8  C   UNL     1       8.064   8.477  17.968  0.00  0.00    +0.000 C 
ATOM      9  O   UNL     1       7.159   9.206  17.569  0.00  0.00    +0.000 OA
ATOM     10  N   UNL     1       9.151   8.902  18.718  0.00  0.00    +0.000 N 
ATOM     11  H   UNL     1       9.967   8.305  18.744  0.00  0.00    +0.000 HD
BRANCH  10  12
ATOM     12  C   UNL     1       9.277  10.183  19.301  0.00  0.00    +0.000 A 
ATOM     13  C   UNL     1       8.907  10.448  20.620  0.00  0.00    +0.000 A 
ATOM     14  C   UNL     1       9.038  11.728  21.172  0.00  0.00    +0.000 A 
ATOM     15  C   UNL     1       8.620  11.982  22.589  0.00  0.00    +0.000 C 
ATOM     16  C   UNL     1       9.554  12.760  20.384  0.00  0.00    +0.000 A 
ATOM     17  C   UNL     1       9.957  12.517  19.064  0.00  0.00    +0.000 A 
ATOM     18  C   UNL     1      10.501  13.633  18.221  0.00  0.00    +0.000 C 
ATOM     19  C   UNL     1       9.831  11.220  18.535  0.00  0.00    +0.000 A 
ENDBRANCH  10  12
ENDBRANCH   5   8
ENDBRANCH   1   2
BRANCH   1  20
ATOM     20  N   UNL     1       4.148   3.885  17.138  0.00  0.00    +0.000 NA
ATOM     21  H   UNL     1       3.805   4.421  16.342  0.00  0.00    +0.000 HD
BRANCH  20  22
ATOM     22  S   UNL     1       2.893   3.537  18.217  0.00  0.00    +0.000 S 
ATOM     23  O   UNL     1       3.411   2.728  19.295  0.00  0.00    +0.000 OA
ATOM     24  O   UNL     1       1.764   3.118  17.413  0.00  0.00    +0.000 OA
BRANCH  22  32
ATOM     25  C   UNL     1       0.415  10.853  21.418  0.00  0.00    +0.000 C 
ATOM     26  C   UNL     1       1.006   9.469  21.353  0.00  0.00    +0.000 C 
ATOM     27  O   UNL     1       1.229   8.873  22.406  0.00  0.00    +0.000 OA
ATOM     28  N   UNL     1       1.239   8.949  20.086  0.00  0.00    +0.000 N 
ATOM     29  C   UNL     1       1.694   7.628  19.846  0.00  0.00    +0.000 A 
ATOM     30  C   UNL     1       1.863   6.575  20.737  0.00  0.00    +0.000 A 
ATOM     31  C   UNL     1       2.259   5.322  20.245  0.00  0.00    +0.000 A 
ATOM     32  C   UNL     1       2.500   5.149  18.871  0.00  0.00    +0.000 A 
ATOM     33  C   UNL     1       2.351   6.215  17.981  0.00  0.00    +0.000 A 
ATOM     34  C   UNL     1       1.953   7.444  18.490  0.00  0.00    +0.000 A 
ATOM     35  C   UNL     1       1.726   8.691  17.707  0.00  0.00    +0.000 C 
ATOM     36  C   UNL     1       1.216   9.678  18.784  0.00  0.00    +0.000 C 
ATOM     37  C   UNL     1      -0.155  10.214  18.365  0.00  0.00    +0.000 C 
ENDBRANCH  22  32
ENDBRANCH  20  22
ENDBRANCH   1  20
TORSDOF 6
ENDMDL
MODEL 7
REMARK VINA RESULT:      -8.0      1.290      1.524
REMARK  Name = 
REMARK  10 active torsions:
REMARK  status: ('A' for Active; 'I' for Inactive)
REMARK    1  A    between atoms: C_1  and  C_2
REMARK    2  A    between atoms: C_8  and  S_9
REMARK    3  A    between atoms: S_9  and  N_12
REMARK    4  A    between atoms: N_12  and  C_13
REMARK    5  A    between atoms: C_13  and  C_14
REMARK    6  A    between atoms: C_17  and  C_18
REMARK    7  A    between atoms: N_20  and  C_21
REMARK    8  A    between atoms: C_23  and  C_24
REMARK    9  A    between atoms: C_26  and  C_27
REMARK   10  A    between atoms: C_34  and  C_35
REMARK                            x       y       z     vdW  Elec       q    Type
REMARK                         _______ _______ _______ _____ _____    ______ ____
ROOT
ATOM      1  C   UNL     1       4.714   4.380  17.394  0.00  0.00    +0.000 C 
ENDROOT
BRANCH   1   2
ATOM      2  C   UNL     1       5.157   5.523  18.325  0.00  0.00    +0.000 C 
ATOM      3  C   UNL     1       6.521   5.299  18.999  0.00  0.00    +0.000 C 
ATOM      4  C   UNL     1       7.691   5.336  18.014  0.00  0.00    +0.000 C 
ATOM      5  C   UNL     1       7.730   6.640  17.207  0.00  0.00    +0.000 C 
ATOM      6  C   UNL     1       6.365   6.912  16.544  0.00  0.00    +0.000 C 
ATOM      7  C   UNL     1       5.187   6.838  17.527  0.00  0.00    +0.000 C 
BRANCH   5   8
ATOM      8  C   UNL     1       8.168   7.843  18.056  0.00  0.00    +0.000 C 
ATOM      9  O   UNL     1       8.590   7.692  19.199  0.00  0.00    +0.000 OA
ATOM     10  N   UNL     1       8.003   9.067  17.427  0.00  0.00    +0.000 N 
ATOM     11  H   UNL     1       7.389   9.106  16.624  0.00  0.00    +0.000 HD
BRANCH  10  12
ATOM     12  C   UNL     1       8.480  10.300  17.925  0.00  0.00    +0.000 A 
ATOM     13  C   UNL     1       9.573  10.390  18.789  0.00  0.00    +0.000 A 
ATOM     14  C   UNL     1      10.023  11.624  19.271  0.00  0.00    +0.000 A 
ATOM     15  C   UNL     1      11.193  11.683  20.208  0.00  0.00    +0.000 C 
ATOM     16  C   UNL     1       9.366  12.792  18.876  0.00  0.00    +0.000 A 
ATOM     17  C   UNL     1       8.281  12.734  17.990  0.00  0.00    +0.000 A 
ATOM     18  C   UNL     1       7.574  13.992  17.577  0.00  0.00    +0.000 C 
ATOM     19  C   UNL     1       7.855  11.485  17.505  0.00  0.00    +0.000 A 
ENDBRANCH  10  12
ENDBRANCH   5   8
ENDBRANCH   1   2
BRANCH   1  20
ATOM     20  N   UNL     1       3.259   4.362  17.208  0.00  0.00    +0.000 NA
ATOM     21  H   UNL     1       2.859   5.105  16.635  0.00  0.00    +0.000 HD
BRANCH  20  22
ATOM     22  S   UNL     1       2.325   4.099  18.593  0.00  0.00    +0.000 S 
ATOM     23  O   UNL     1       3.127   3.407  19.576  0.00  0.00    +0.000 OA
ATOM     24  O   UNL     1       1.051   3.585  18.138  0.00  0.00    +0.000 OA
BRANCH  22  32
ATOM     25  C   UNL     1       0.340  11.698  21.463  0.00  0.00    +0.000 C 
ATOM     26  C   UNL     1       0.827  10.272  21.462  0.00  0.00    +0.000 C 
ATOM     27  O   UNL     1       0.985   9.702  22.542  0.00  0.00    +0.000 OA
ATOM     28  N   UNL     1       1.046   9.687  20.222  0.00  0.00    +0.000 N 
ATOM     29  C   UNL     1       1.405   8.328  20.042  0.00  0.00    +0.000 A 
ATOM     30  C   UNL     1       1.477   7.301  20.975  0.00  0.00    +0.000 A 
ATOM     31  C   UNL     1       1.788   6.004  20.539  0.00  0.00    +0.000 A 
ATOM     32  C   UNL     1       2.042   5.760  19.177  0.00  0.00    +0.000 A 
ATOM     33  C   UNL     1       1.990   6.799  18.245  0.00  0.00    +0.000 A 
ATOM     34  C   UNL     1       1.675   8.073  18.699  0.00  0.00    +0.000 A 
ATOM     35  C   UNL     1       1.558   9.302  17.866  0.00  0.00    +0.000 C 
ATOM     36  C   UNL     1       1.102  10.365  18.893  0.00  0.00    +0.000 C 
ATOM     37  C   UNL     1      -0.216  10.985  18.424  0.00  0.00    +0.000 C 
ENDBRANCH  22  32
ENDBRANCH  20  22
ENDBRANCH   1  20
TORSDOF 6
ENDMDL
MODEL 8
REMARK VINA RESULT:      -7.9      0.982      1.095
REMARK  Name = 
REMARK  10 active torsions:
REMARK  status: ('A' for Active; 'I' for Inactive)
REMARK    1  A    between atoms: C_1  and  C_2
REMARK    2  A    between atoms: C_8  and  S_9
REMARK    3  A    between atoms: S_9  and  N_12
REMARK    4  A    between atoms: N_12  and  C_13
REMARK    5  A    between atoms: C_13  and  C_14
REMARK    6  A    between atoms: C_17  and  C_18
REMARK    7  A    between atoms: N_20  and  C_21
REMARK    8  A    between atoms: C_23  and  C_24
REMARK    9  A    between atoms: C_26  and  C_27
REMARK   10  A    between atoms: C_34  and  C_35
REMARK                            x       y       z     vdW  Elec       q    Type
REMARK                         _______ _______ _______ _____ _____    ______ ____
ROOT
ATOM      1  C   UNL     1       4.800   4.199  17.643  0.00  0.00    +0.000 C 
ENDROOT
BRANCH   1   2
ATOM      2  C   UNL     1       5.466   5.125  18.677  0.00  0.00    +0.000 C 
ATOM      3  C   UNL     1       6.971   4.878  18.873  0.00  0.00    +0.000 C 
ATOM      4  C   UNL     1       7.807   5.257  17.648  0.00  0.00    +0.000 C 
ATOM      5  C   UNL     1       7.582   6.713  17.220  0.00  0.00    +0.000 C 
ATOM      6  C   UNL     1       6.078   7.005  17.047  0.00  0.00    +0.000 C 
ATOM      7  C   UNL     1       5.236   6.589  18.262  0.00  0.00    +0.000 C 
BRANCH   5   8
ATOM      8  C   UNL     1       8.219   7.716  18.193  0.00  0.00    +0.000 C 
ATOM      9  O   UNL     1       8.665   7.352  19.278  0.00  0.00    +0.000 OA
ATOM     10  N   UNL     1       8.198   9.028  17.746  0.00  0.00    +0.000 N 
ATOM     11  H   UNL     1       7.561   9.259  16.994  0.00  0.00    +0.000 HD
BRANCH  10  12
ATOM     12  C   UNL     1       8.862  10.105  18.374  0.00  0.00    +0.000 A 
ATOM     13  C   UNL     1       8.805  10.323  19.751  0.00  0.00    +0.000 A 
ATOM     14  C   UNL     1       9.470  11.401  20.348  0.00  0.00    +0.000 A 
ATOM     15  C   UNL     1       9.378  11.613  21.830  0.00  0.00    +0.000 C 
ATOM     16  C   UNL     1      10.210  12.274  19.547  0.00  0.00    +0.000 A 
ATOM     17  C   UNL     1      10.305  12.065  18.164  0.00  0.00    +0.000 A 
ATOM     18  C   UNL     1      11.093  13.013  17.308  0.00  0.00    +0.000 C 
ATOM     19  C   UNL     1       9.642  10.967  17.588  0.00  0.00    +0.000 A 
ENDBRANCH  10  12
ENDBRANCH   5   8
ENDBRANCH   1   2
BRANCH   1  20
ATOM     20  N   UNL     1       3.433   4.629  17.330  0.00  0.00    +0.000 NA
ATOM     21  H   UNL     1       3.325   5.556  16.919  0.00  0.00    +0.000 HD
BRANCH  20  22
ATOM     22  S   UNL     1       2.265   4.357  18.522  0.00  0.00    +0.000 S 
ATOM     23  O   UNL     1       2.851   3.575  19.585  0.00  0.00    +0.000 OA
ATOM     24  O   UNL     1       1.062   3.941  17.832  0.00  0.00    +0.000 OA
BRANCH  22  32
ATOM     25  C   UNL     1       0.225  11.878  21.552  0.00  0.00    +0.000 C 
ATOM     26  C   UNL     1       0.722  10.457  21.522  0.00  0.00    +0.000 C 
ATOM     27  O   UNL     1       0.882   9.865  22.589  0.00  0.00    +0.000 OA
ATOM     28  N   UNL     1       0.946   9.900  20.269  0.00  0.00    +0.000 N 
ATOM     29  C   UNL     1       1.314   8.548  20.060  0.00  0.00    +0.000 A 
ATOM     30  C   UNL     1       1.392   7.501  20.971  0.00  0.00    +0.000 A 
ATOM     31  C   UNL     1       1.712   6.216  20.507  0.00  0.00    +0.000 A 
ATOM     32  C   UNL     1       1.969   6.003  19.141  0.00  0.00    +0.000 A 
ATOM     33  C   UNL     1       1.912   7.062  18.232  0.00  0.00    +0.000 A 
ATOM     34  C   UNL     1       1.588   8.324  18.713  0.00  0.00    +0.000 A 
ATOM     35  C   UNL     1       1.463   9.569  17.906  0.00  0.00    +0.000 C 
ATOM     36  C   UNL     1       0.999  10.607  18.955  0.00  0.00    +0.000 C 
ATOM     37  C   UNL     1      -0.323  11.228  18.498  0.00  0.00    +0.000 C 
ENDBRANCH  22  32
ENDBRANCH  20  22
ENDBRANCH   1  20
TORSDOF 6
ENDMDL
MODEL 9
REMARK VINA RESULT:      -7.9      1.336      1.683
REMARK  Name = 
REMARK  10 active torsions:
REMARK  status: ('A' for Active; 'I' for Inactive)
REMARK    1  A    between atoms: C_1  and  C_2
REMARK    2  A    between atoms: C_8  and  S_9
REMARK    3  A    between atoms: S_9  and  N_12
REMARK    4  A    between atoms: N_12  and  C_13
REMARK    5  A    between atoms: C_13  and  C_14
REMARK    6  A    between atoms: C_17  and  C_18
REMARK    7  A    between atoms: N_20  and  C_21
REMARK    8  A    between atoms: C_23  and  C_24
REMARK    9  A    between atoms: C_26  and  C_27
REMARK   10  A    between atoms: C_34  and  C_35
REMARK                            x       y       z     vdW  Elec       q    Type
REMARK                         _______ _______ _______ _____ _____    ______ ____
ROOT
ATOM      1  C   UNL     1       4.792   4.400  17.657  0.00  0.00    +0.000 C 
ENDROOT
BRANCH   1   2
ATOM      2  C   UNL     1       5.255   5.583  18.528  0.00  0.00    +0.000 C 
ATOM      3  C   UNL     1       6.655   5.409  19.139  0.00  0.00    +0.000 C 
ATOM      4  C   UNL     1       7.774   5.438  18.095  0.00  0.00    +0.000 C 
ATOM      5  C   UNL     1       7.744   6.715  17.246  0.00  0.00    +0.000 C 
ATOM      6  C   UNL     1       6.341   6.937  16.644  0.00  0.00    +0.000 C 
ATOM      7  C   UNL     1       5.216   6.871  17.688  0.00  0.00    +0.000 C 
BRANCH   5   8
ATOM      8  C   UNL     1       8.196   7.954  18.033  0.00  0.00    +0.000 C 
ATOM      9  O   UNL     1       8.639   7.854  19.174  0.00  0.00    +0.000 OA
ATOM     10  N   UNL     1       8.020   9.150  17.353  0.00  0.00    +0.000 N 
ATOM     11  H   UNL     1       7.392   9.153  16.560  0.00  0.00    +0.000 HD
BRANCH  10  12
ATOM     12  C   UNL     1       8.506  10.403  17.788  0.00  0.00    +0.000 A 
ATOM     13  C   UNL     1       7.819  11.596  17.560  0.00  0.00    +0.000 A 
ATOM     14  C   UNL     1       8.326  12.826  17.998  0.00  0.00    +0.000 A 
ATOM     15  C   UNL     1       7.567  14.090  17.725  0.00  0.00    +0.000 C 
ATOM     16  C   UNL     1       9.544  12.857  18.681  0.00  0.00    +0.000 A 
ATOM     17  C   UNL     1      10.243  11.672  18.946  0.00  0.00    +0.000 A 
ATOM     18  C   UNL     1      11.556  11.714  19.672  0.00  0.00    +0.000 C 
ATOM     19  C   UNL     1       9.708  10.446  18.511  0.00  0.00    +0.000 A 
ENDBRANCH  10  12
ENDBRANCH   5   8
ENDBRANCH   1   2
BRANCH   1  20
ATOM     20  N   UNL     1       3.343   4.429  17.427  0.00  0.00    +0.000 NA
ATOM     21  H   UNL     1       2.985   5.182  16.840  0.00  0.00    +0.000 HD
BRANCH  20  22
ATOM     22  S   UNL     1       2.360   4.204  18.784  0.00  0.00    +0.000 S 
ATOM     23  O   UNL     1       3.125   3.541  19.814  0.00  0.00    +0.000 OA
ATOM     24  O   UNL     1       1.103   3.674  18.298  0.00  0.00    +0.000 OA
BRANCH  22  32
ATOM     25  C   UNL     1       0.265  11.873  21.372  0.00  0.00    +0.000 C 
ATOM     26  C   UNL     1       0.758  10.451  21.427  0.00  0.00    +0.000 C 
ATOM     27  O   UNL     1       0.891   9.915  22.527  0.00  0.00    +0.000 OA
ATOM     28  N   UNL     1       1.012   9.831  20.210  0.00  0.00    +0.000 N 
ATOM     29  C   UNL     1       1.382   8.469  20.081  0.00  0.00    +0.000 A 
ATOM     30  C   UNL     1       1.434   7.470  21.046  0.00  0.00    +0.000 A 
ATOM     31  C   UNL     1       1.763   6.162  20.657  0.00  0.00    +0.000 A 
ATOM     32  C   UNL     1       2.053   5.880  19.311  0.00  0.00    +0.000 A 
ATOM     33  C   UNL     1       2.021   6.890  18.347  0.00  0.00    +0.000 A 
ATOM     34  C   UNL     1       1.689   8.175  18.754  0.00  0.00    +0.000 A 
ATOM     35  C   UNL     1       1.587   9.378  17.881  0.00  0.00    +0.000 C 
ATOM     36  C   UNL     1       1.100  10.469  18.864  0.00  0.00    +0.000 C 
ATOM     37  C   UNL     1      -0.208  11.067  18.343  0.00  0.00    +0.000 C 
ENDBRANCH  22  32
ENDBRANCH  20  22
ENDBRANCH   1  20
TORSDOF 6
ENDMDL
