MODEL 1
REMARK VINA RESULT:      -7.9      0.000      0.000
REMARK  Name = 
REMARK  8 active torsions:
REMARK  status: ('A' for Active; 'I' for Inactive)
REMARK    1  A    between atoms: C_1  and  C_2
REMARK    2  A    between atoms: C_2  and  C_3
REMARK    3  A    between atoms: C_3  and  C_4
REMARK    4  A    between atoms: C_9  and  O_10
REMARK    5  A    between atoms: O_10  and  C_11
REMARK    6  A    between atoms: C_11  and  C_12
REMARK    7  A    between atoms: C_22  and  C_23
REMARK    8  A    between atoms: C_22  and  C_24
REMARK                            x       y       z     vdW  Elec       q    Type
REMARK                         _______ _______ _______ _____ _____    ______ ____
ROOT
ATOM      1  C   UNL     1       3.956   6.091  17.552  0.00  0.00    +0.000 A 
ATOM      2  N   UNL     1       3.587   7.375  17.308  0.00  0.00    +0.000 NA
ATOM      3  C   UNL     1       2.751   7.905  18.222  0.00  0.00    +0.000 A 
ATOM      4  O   UNL     1       2.288   9.192  18.153  0.00  0.00    +0.000 OA
ATOM      5  C   UNL     1       1.472   9.375  19.230  0.00  0.00    +0.000 A 
ATOM      6  C   UNL     1       0.742  10.486  19.620  0.00  0.00    +0.000 A 
ATOM      7  N   UNL     1       0.009  10.394  20.757  0.00  0.00    +0.000 NA
ATOM      8  C   UNL     1       0.018   9.230  21.429  0.00  0.00    +0.000 A 
ATOM      9  N   UNL     1       0.671   8.103  21.114  0.00  0.00    +0.000 NA
ATOM     10  C   UNL     1       1.411   8.215  19.982  0.00  0.00    +0.000 A 
ATOM     11  C   UNL     1       2.228   7.255  19.336  0.00  0.00    +0.000 A 
ATOM     12  C   UNL     1       2.590   5.911  19.554  0.00  0.00    +0.000 A 
ATOM     13  C   UNL     1       3.506   5.329  18.651  0.00  0.00    +0.000 A 
ATOM     14  C   UNL     1       3.933   3.889  18.851  0.00  0.00    +0.000 C 
ATOM     15  O   UNL     1       3.536   3.299  20.092  0.00  0.00    +0.000 OA
ATOM     16  C   UNL     1       2.190   3.592  20.489  0.00  0.00    +0.000 C 
ATOM     17  C   UNL     1       1.168   3.062  19.470  0.00  0.00    +0.000 C 
ATOM     18  C   UNL     1       1.968   2.863  21.822  0.00  0.00    +0.000 C 
ATOM     19  C   UNL     1       2.070   5.109  20.720  0.00  0.00    +0.000 C 
ENDROOT
BRANCH   1  20
ATOM     20  C   UNL     1       4.859   5.492  16.488  0.00  0.00    +0.000 C 
BRANCH  20  22
ATOM     21  C   UNL     1       7.185   4.609  16.883  0.00  0.00    +0.000 C 
ATOM     22  C   UNL     1       6.330   5.854  16.705  0.00  0.00    +0.000 C 
ENDBRANCH  20  22
ENDBRANCH   1  20
BRANCH   6  23
ATOM     23  O   UNL     1       0.757  11.677  18.917  0.00  0.00    +0.000 OA
BRANCH  23  24
ATOM     24  C   UNL     1       1.796  12.552  19.379  0.00  0.00    +0.000 C 
ATOM     25  C   UNL     1       2.625  13.005  18.192  0.00  0.00    +0.000 C 
ENDBRANCH  23  24
ENDBRANCH   6  23
TORSDOF 4
ENDMDL
MODEL 2
REMARK VINA RESULT:      -7.9      1.001      1.039
REMARK  Name = 
REMARK  8 active torsions:
REMARK  status: ('A' for Active; 'I' for Inactive)
REMARK    1  A    between atoms: C_1  and  C_2
REMARK    2  A    between atoms: C_2  and  C_3
REMARK    3  A    between atoms: C_3  and  C_4
REMARK    4  A    between atoms: C_9  and  O_10
REMARK    5  A    between atoms: O_10  and  C_11
REMARK    6  A    between atoms: C_11  and  C_12
REMARK    7  A    between atoms: C_22  and  C_23
REMARK    8  A    between atoms: C_22  and  C_24
REMARK                            x       y       z     vdW  Elec       q    Type
REMARK                         _______ _______ _______ _____ _____    ______ ____
ROOT
ATOM      1  C   UNL     1       4.249   5.137  17.476  0.00  0.00    +0.000 A 
ATOM      2  N   UNL     1       4.039   6.427  17.106  0.00  0.00    +0.000 NA
ATOM      3  C   UNL     1       3.245   7.130  17.936  0.00  0.00    +0.000 A 
ATOM      4  O   UNL     1       2.938   8.449  17.736  0.00  0.00    +0.000 OA
ATOM      5  C   UNL     1       2.117   8.822  18.760  0.00  0.00    +0.000 A 
ATOM      6  C   UNL     1       1.511  10.039  19.022  0.00  0.00    +0.000 A 
ATOM      7  N   UNL     1       0.740  10.136  20.134  0.00  0.00    +0.000 NA
ATOM      8  C   UNL     1       0.594   9.045  20.906  0.00  0.00    +0.000 A 
ATOM      9  N   UNL     1       1.120   7.827  20.717  0.00  0.00    +0.000 NA
ATOM     10  C   UNL     1       1.900   7.749  19.609  0.00  0.00    +0.000 A 
ATOM     11  C   UNL     1       2.618   6.648  19.081  0.00  0.00    +0.000 A 
ATOM     12  C   UNL     1       2.815   5.298  19.431  0.00  0.00    +0.000 A 
ATOM     13  C   UNL     1       3.683   4.535  18.619  0.00  0.00    +0.000 A 
ATOM     14  C   UNL     1       3.933   3.081  18.961  0.00  0.00    +0.000 C 
ATOM     15  O   UNL     1       3.434   2.656  20.233  0.00  0.00    +0.000 OA
ATOM     16  C   UNL     1       2.121   3.135  20.550  0.00  0.00    +0.000 C 
ATOM     17  C   UNL     1       1.074   2.633  19.542  0.00  0.00    +0.000 C 
ATOM     18  C   UNL     1       1.778   2.561  21.931  0.00  0.00    +0.000 C 
ATOM     19  C   UNL     1       2.171   4.669  20.641  0.00  0.00    +0.000 C 
ENDROOT
BRANCH   1  20
ATOM     20  C   UNL     1       5.107   4.345  16.504  0.00  0.00    +0.000 C 
BRANCH  20  22
ATOM     21  C   UNL     1       6.171   4.328  14.221  0.00  0.00    +0.000 C 
ATOM     22  C   UNL     1       5.581   5.194  15.323  0.00  0.00    +0.000 C 
ENDBRANCH  20  22
ENDBRANCH   1  20
BRANCH   6  23
ATOM     23  O   UNL     1       1.685  11.152  18.219  0.00  0.00    +0.000 OA
BRANCH  23  24
ATOM     24  C   UNL     1       1.752  12.358  18.992  0.00  0.00    +0.000 C 
ATOM     25  C   UNL     1       2.681  13.338  18.298  0.00  0.00    +0.000 C 
ENDBRANCH  23  24
ENDBRANCH   6  23
TORSDOF 4
ENDMDL
MODEL 3
REMARK VINA RESULT:      -7.5      1.760      4.205
REMARK  Name = 
REMARK  8 active torsions:
REMARK  status: ('A' for Active; 'I' for Inactive)
REMARK    1  A    between atoms: C_1  and  C_2
REMARK    2  A    between atoms: C_2  and  C_3
REMARK    3  A    between atoms: C_3  and  C_4
REMARK    4  A    between atoms: C_9  and  O_10
REMARK    5  A    between atoms: O_10  and  C_11
REMARK    6  A    between atoms: C_11  and  C_12
REMARK    7  A    between atoms: C_22  and  C_23
REMARK    8  A    between atoms: C_22  and  C_24
REMARK                            x       y       z     vdW  Elec       q    Type
REMARK                         _______ _______ _______ _____ _____    ______ ____
ROOT
ATOM      1  C   UNL     1       2.793   4.531  20.093  0.00  0.00    +0.000 A 
ATOM      2  N   UNL     1       1.994   5.421  20.738  0.00  0.00    +0.000 NA
ATOM      3  C   UNL     1       1.891   6.622  20.138  0.00  0.00    +0.000 A 
ATOM      4  O   UNL     1       1.115   7.638  20.630  0.00  0.00    +0.000 OA
ATOM      5  C   UNL     1       1.258   8.692  19.776  0.00  0.00    +0.000 A 
ATOM      6  C   UNL     1       0.705   9.961  19.821  0.00  0.00    +0.000 A 
ATOM      7  N   UNL     1       1.015  10.822  18.821  0.00  0.00    +0.000 NA
ATOM      8  C   UNL     1       1.851  10.404  17.855  0.00  0.00    +0.000 A 
ATOM      9  N   UNL     1       2.450   9.210  17.745  0.00  0.00    +0.000 NA
ATOM     10  C   UNL     1       2.119   8.354  18.745  0.00  0.00    +0.000 A 
ATOM     11  C   UNL     1       2.540   7.021  18.974  0.00  0.00    +0.000 A 
ATOM     12  C   UNL     1       3.396   6.099  18.338  0.00  0.00    +0.000 A 
ATOM     13  C   UNL     1       3.495   4.808  18.901  0.00  0.00    +0.000 A 
ATOM     14  C   UNL     1       4.395   3.780  18.248  0.00  0.00    +0.000 C 
ATOM     15  O   UNL     1       4.905   4.141  16.961  0.00  0.00    +0.000 OA
ATOM     16  C   UNL     1       5.361   5.496  16.859  0.00  0.00    +0.000 C 
ATOM     17  C   UNL     1       6.523   5.780  17.825  0.00  0.00    +0.000 C 
ATOM     18  C   UNL     1       5.872   5.670  15.422  0.00  0.00    +0.000 C 
ATOM     19  C   UNL     1       4.160   6.432  17.082  0.00  0.00    +0.000 C 
ENDROOT
BRANCH   1  20
ATOM     20  C   UNL     1       2.937   3.197  20.807  0.00  0.00    +0.000 C 
BRANCH  20  22
ATOM     21  C   UNL     1       0.993   2.339  19.454  0.00  0.00    +0.000 C 
ATOM     22  C   UNL     1       1.626   2.409  20.835  0.00  0.00    +0.000 C 
ENDBRANCH  20  22
ENDBRANCH   1  20
BRANCH   6  23
ATOM     23  O   UNL     1      -0.164  10.365  20.819  0.00  0.00    +0.000 OA
BRANCH  23  24
ATOM     24  C   UNL     1       0.506  10.505  22.079  0.00  0.00    +0.000 C 
ATOM     25  C   UNL     1      -0.271   9.744  23.138  0.00  0.00    +0.000 C 
ENDBRANCH  23  24
ENDBRANCH   6  23
TORSDOF 4
ENDMDL
MODEL 4
REMARK VINA RESULT:      -7.1      1.695      4.071
REMARK  Name = 
REMARK  8 active torsions:
REMARK  status: ('A' for Active; 'I' for Inactive)
REMARK    1  A    between atoms: C_1  and  C_2
REMARK    2  A    between atoms: C_2  and  C_3
REMARK    3  A    between atoms: C_3  and  C_4
REMARK    4  A    between atoms: C_9  and  O_10
REMARK    5  A    between atoms: O_10  and  C_11
REMARK    6  A    between atoms: C_11  and  C_12
REMARK    7  A    between atoms: C_22  and  C_23
REMARK    8  A    between atoms: C_22  and  C_24
REMARK                            x       y       z     vdW  Elec       q    Type
REMARK                         _______ _______ _______ _____ _____    ______ ____
ROOT
ATOM      1  C   UNL     1       2.529   4.839  20.243  0.00  0.00    +0.000 A 
ATOM      2  N   UNL     1       1.796   5.792  20.875  0.00  0.00    +0.000 NA
ATOM      3  C   UNL     1       1.756   6.982  20.245  0.00  0.00    +0.000 A 
ATOM      4  O   UNL     1       1.050   8.055  20.720  0.00  0.00    +0.000 OA
ATOM      5  C   UNL     1       1.242   9.076  19.835  0.00  0.00    +0.000 A 
ATOM      6  C   UNL     1       0.767  10.377  19.854  0.00  0.00    +0.000 A 
ATOM      7  N   UNL     1       1.112  11.191  18.827  0.00  0.00    +0.000 NA
ATOM      8  C   UNL     1       1.905  10.698  17.860  0.00  0.00    +0.000 A 
ATOM      9  N   UNL     1       2.429   9.467  17.774  0.00  0.00    +0.000 NA
ATOM     10  C   UNL     1       2.064   8.660  18.802  0.00  0.00    +0.000 A 
ATOM     11  C   UNL     1       2.408   7.310  19.060  0.00  0.00    +0.000 A 
ATOM     12  C   UNL     1       3.196   6.321  18.437  0.00  0.00    +0.000 A 
ATOM     13  C   UNL     1       3.226   5.042  19.033  0.00  0.00    +0.000 A 
ATOM     14  C   UNL     1       4.051   3.944  18.395  0.00  0.00    +0.000 C 
ATOM     15  O   UNL     1       4.561   4.240  17.091  0.00  0.00    +0.000 OA
ATOM     16  C   UNL     1       5.096   5.562  16.946  0.00  0.00    +0.000 C 
ATOM     17  C   UNL     1       6.289   5.800  17.886  0.00  0.00    +0.000 C 
ATOM     18  C   UNL     1       5.592   5.666  15.497  0.00  0.00    +0.000 C 
ATOM     19  C   UNL     1       3.958   6.574  17.161  0.00  0.00    +0.000 C 
ENDROOT
BRANCH   1  20
ATOM     20  C   UNL     1       2.604   3.518  20.991  0.00  0.00    +0.000 C 
BRANCH  20  22
ATOM     21  C   UNL     1       0.712   2.606  19.600  0.00  0.00    +0.000 C 
ATOM     22  C   UNL     1       1.263   2.783  21.007  0.00  0.00    +0.000 C 
ENDBRANCH  20  22
ENDBRANCH   1  20
BRANCH   6  23
ATOM     23  O   UNL     1      -0.059  10.858  20.854  0.00  0.00    +0.000 OA
BRANCH  23  24
ATOM     24  C   UNL     1      -0.794  12.013  20.425  0.00  0.00    +0.000 C 
ATOM     25  C   UNL     1      -1.872  11.577  19.450  0.00  0.00    +0.000 C 
ENDBRANCH  23  24
ENDBRANCH   6  23
TORSDOF 4
ENDMDL
MODEL 5
REMARK VINA RESULT:      -6.6      2.131      4.287
REMARK  Name = 
REMARK  8 active torsions:
REMARK  status: ('A' for Active; 'I' for Inactive)
REMARK    1  A    between atoms: C_1  and  C_2
REMARK    2  A    between atoms: C_2  and  C_3
REMARK    3  A    between atoms: C_3  and  C_4
REMARK    4  A    between atoms: C_9  and  O_10
REMARK    5  A    between atoms: O_10  and  C_11
REMARK    6  A    between atoms: C_11  and  C_12
REMARK    7  A    between atoms: C_22  and  C_23
REMARK    8  A    between atoms: C_22  and  C_24
REMARK                            x       y       z     vdW  Elec       q    Type
REMARK                         _______ _______ _______ _____ _____    ______ ____
ROOT
ATOM      1  C   UNL     1       3.536   4.051  19.542  0.00  0.00    +0.000 A 
ATOM      2  N   UNL     1       2.719   4.595  20.481  0.00  0.00    +0.000 NA
ATOM      3  C   UNL     1       2.315   5.852  20.217  0.00  0.00    +0.000 A 
ATOM      4  O   UNL     1       1.474   6.554  21.038  0.00  0.00    +0.000 OA
ATOM      5  C   UNL     1       1.290   7.777  20.462  0.00  0.00    +0.000 A 
ATOM      6  C   UNL     1       0.546   8.864  20.889  0.00  0.00    +0.000 A 
ATOM      7  N   UNL     1       0.533   9.969  20.104  0.00  0.00    +0.000 NA
ATOM      8  C   UNL     1       1.252   9.954  18.969  0.00  0.00    +0.000 A 
ATOM      9  N   UNL     1       2.016   8.962  18.492  0.00  0.00    +0.000 NA
ATOM     10  C   UNL     1       2.009   7.858  19.281  0.00  0.00    +0.000 A 
ATOM     11  C   UNL     1       2.681   6.621  19.117  0.00  0.00    +0.000 A 
ATOM     12  C   UNL     1       3.560   6.057  18.171  0.00  0.00    +0.000 A 
ATOM     13  C   UNL     1       3.969   4.722  18.379  0.00  0.00    +0.000 A 
ATOM     14  C   UNL     1       4.906   4.068  17.384  0.00  0.00    +0.000 C 
ATOM     15  O   UNL     1       5.122   4.801  16.174  0.00  0.00    +0.000 OA
ATOM     16  C   UNL     1       5.319   6.209  16.356  0.00  0.00    +0.000 C 
ATOM     17  C   UNL     1       6.563   6.504  17.210  0.00  0.00    +0.000 C 
ATOM     18  C   UNL     1       5.543   6.795  14.955  0.00  0.00    +0.000 C 
ATOM     19  C   UNL     1       4.033   6.807  16.952  0.00  0.00    +0.000 C 
ENDROOT
BRANCH   1  20
ATOM     20  C   UNL     1       4.022   2.651  19.879  0.00  0.00    +0.000 C 
BRANCH  20  22
ATOM     21  C   UNL     1       1.871   1.845  18.843  0.00  0.00    +0.000 C 
ATOM     22  C   UNL     1       3.361   1.582  19.006  0.00  0.00    +0.000 C 
ENDBRANCH  20  22
ENDBRANCH   1  20
BRANCH   6  23
ATOM     23  O   UNL     1      -0.196   8.852  22.056  0.00  0.00    +0.000 OA
BRANCH  23  24
ATOM     24  C   UNL     1       0.102   9.983  22.886  0.00  0.00    +0.000 C 
ATOM     25  C   UNL     1      -1.178  10.754  23.149  0.00  0.00    +0.000 C 
ENDBRANCH  23  24
ENDBRANCH   6  23
TORSDOF 4
ENDMDL
MODEL 6
REMARK VINA RESULT:      -6.3      4.518      6.817
REMARK  Name = 
REMARK  8 active torsions:
REMARK  status: ('A' for Active; 'I' for Inactive)
REMARK    1  A    between atoms: C_1  and  C_2
REMARK    2  A    between atoms: C_2  and  C_3
REMARK    3  A    between atoms: C_3  and  C_4
REMARK    4  A    between atoms: C_9  and  O_10
REMARK    5  A    between atoms: O_10  and  C_11
REMARK    6  A    between atoms: C_11  and  C_12
REMARK    7  A    between atoms: C_22  and  C_23
REMARK    8  A    between atoms: C_22  and  C_24
REMARK                            x       y       z     vdW  Elec       q    Type
REMARK                         _______ _______ _______ _____ _____    ______ ____
ROOT
ATOM      1  C   UNL     1       7.183   6.025  18.263  0.00  0.00    +0.000 A 
ATOM      2  N   UNL     1       6.465   5.708  19.372  0.00  0.00    +0.000 NA
ATOM      3  C   UNL     1       5.551   4.736  19.192  0.00  0.00    +0.000 A 
ATOM      4  O   UNL     1       4.750   4.270  20.200  0.00  0.00    +0.000 OA
ATOM      5  C   UNL     1       3.955   3.303  19.656  0.00  0.00    +0.000 A 
ATOM      6  C   UNL     1       2.963   2.530  20.237  0.00  0.00    +0.000 A 
ATOM      7  N   UNL     1       2.328   1.624  19.453  0.00  0.00    +0.000 NA
ATOM      8  C   UNL     1       2.683   1.539  18.159  0.00  0.00    +0.000 A 
ATOM      9  N   UNL     1       3.608   2.259  17.511  0.00  0.00    +0.000 NA
ATOM     10  C   UNL     1       4.245   3.152  18.311  0.00  0.00    +0.000 A 
ATOM     11  C   UNL     1       5.271   4.078  17.999  0.00  0.00    +0.000 A 
ATOM     12  C   UNL     1       5.997   4.445  16.848  0.00  0.00    +0.000 A 
ATOM     13  C   UNL     1       7.003   5.424  16.999  0.00  0.00    +0.000 A 
ATOM     14  C   UNL     1       7.817   5.845  15.793  0.00  0.00    +0.000 C 
ATOM     15  O   UNL     1       7.646   5.035  14.626  0.00  0.00    +0.000 OA
ATOM     16  C   UNL     1       6.288   4.675  14.344  0.00  0.00    +0.000 C 
ATOM     17  C   UNL     1       5.413   5.913  14.083  0.00  0.00    +0.000 C 
ATOM     18  C   UNL     1       6.326   3.830  13.063  0.00  0.00    +0.000 C 
ATOM     19  C   UNL     1       5.763   3.809  15.502  0.00  0.00    +0.000 C 
ENDROOT
BRANCH   1  20
ATOM     20  C   UNL     1       8.176   7.157  18.469  0.00  0.00    +0.000 C 
BRANCH  20  22
ATOM     21  C   UNL     1       8.554   9.637  18.244  0.00  0.00    +0.000 C 
ATOM     22  C   UNL     1       7.746   8.443  17.760  0.00  0.00    +0.000 C 
ENDBRANCH  20  22
ENDBRANCH   1  20
BRANCH   6  23
ATOM     23  O   UNL     1       2.623   2.628  21.574  0.00  0.00    +0.000 OA
BRANCH  23  24
ATOM     24  C   UNL     1       1.268   3.067  21.746  0.00  0.00    +0.000 C 
ATOM     25  C   UNL     1       0.984   4.189  20.764  0.00  0.00    +0.000 C 
ENDBRANCH  23  24
ENDBRANCH   6  23
TORSDOF 4
ENDMDL
MODEL 7
REMARK VINA RESULT:      -6.3      1.907      4.235
REMARK  Name = 
REMARK  8 active torsions:
REMARK  status: ('A' for Active; 'I' for Inactive)
REMARK    1  A    between atoms: C_1  and  C_2
REMARK    2  A    between atoms: C_2  and  C_3
REMARK    3  A    between atoms: C_3  and  C_4
REMARK    4  A    between atoms: C_9  and  O_10
REMARK    5  A    between atoms: O_10  and  C_11
REMARK    6  A    between atoms: C_11  and  C_12
REMARK    7  A    between atoms: C_22  and  C_23
REMARK    8  A    between atoms: C_22  and  C_24
REMARK                            x       y       z     vdW  Elec       q    Type
REMARK                         _______ _______ _______ _____ _____    ______ ____
ROOT
ATOM      1  C   UNL     1       2.285   5.717  20.287  0.00  0.00    +0.000 A 
ATOM      2  N   UNL     1       1.567   6.671  20.935  0.00  0.00    +0.000 NA
ATOM      3  C   UNL     1       1.496   7.854  20.297  0.00  0.00    +0.000 A 
ATOM      4  O   UNL     1       0.799   8.926  20.788  0.00  0.00    +0.000 OA
ATOM      5  C   UNL     1       0.953   9.941  19.889  0.00  0.00    +0.000 A 
ATOM      6  C   UNL     1       0.468  11.238  19.913  0.00  0.00    +0.000 A 
ATOM      7  N   UNL     1       0.771  12.046  18.867  0.00  0.00    +0.000 NA
ATOM      8  C   UNL     1       1.534  11.551  17.878  0.00  0.00    +0.000 A 
ATOM      9  N   UNL     1       2.064  10.323  17.784  0.00  0.00    +0.000 NA
ATOM     10  C   UNL     1       1.742   9.522  18.831  0.00  0.00    +0.000 A 
ATOM     11  C   UNL     1       2.104   8.177  19.088  0.00  0.00    +0.000 A 
ATOM     12  C   UNL     1       2.878   7.189  18.447  0.00  0.00    +0.000 A 
ATOM     13  C   UNL     1       2.939   5.915  19.052  0.00  0.00    +0.000 A 
ATOM     14  C   UNL     1       3.750   4.818  18.395  0.00  0.00    +0.000 C 
ATOM     15  O   UNL     1       4.212   5.107  17.072  0.00  0.00    +0.000 OA
ATOM     16  C   UNL     1       4.731   6.431  16.897  0.00  0.00    +0.000 C 
ATOM     17  C   UNL     1       5.954   6.686  17.793  0.00  0.00    +0.000 C 
ATOM     18  C   UNL     1       5.177   6.527  15.431  0.00  0.00    +0.000 C 
ATOM     19  C   UNL     1       3.593   7.437  17.143  0.00  0.00    +0.000 C 
ENDROOT
BRANCH   1  20
ATOM     20  C   UNL     1       2.397   4.404  21.042  0.00  0.00    +0.000 C 
BRANCH  20  22
ATOM     21  C   UNL     1       1.197   2.311  21.771  0.00  0.00    +0.000 C 
ATOM     22  C   UNL     1       1.174   3.508  20.832  0.00  0.00    +0.000 C 
ENDBRANCH  20  22
ENDBRANCH   1  20
BRANCH   6  23
ATOM     23  O   UNL     1      -0.327  11.722  20.937  0.00  0.00    +0.000 OA
BRANCH  23  24
ATOM     24  C   UNL     1       0.153  12.980  21.431  0.00  0.00    +0.000 C 
ATOM     25  C   UNL     1      -0.727  13.426  22.584  0.00  0.00    +0.000 C 
ENDBRANCH  23  24
ENDBRANCH   6  23
TORSDOF 4
ENDMDL
MODEL 8
REMARK VINA RESULT:      -6.2      7.483      9.695
REMARK  Name = 
REMARK  8 active torsions:
REMARK  status: ('A' for Active; 'I' for Inactive)
REMARK    1  A    between atoms: C_1  and  C_2
REMARK    2  A    between atoms: C_2  and  C_3
REMARK    3  A    between atoms: C_3  and  C_4
REMARK    4  A    between atoms: C_9  and  O_10
REMARK    5  A    between atoms: O_10  and  C_11
REMARK    6  A    between atoms: C_11  and  C_12
REMARK    7  A    between atoms: C_22  and  C_23
REMARK    8  A    between atoms: C_22  and  C_24
REMARK                            x       y       z     vdW  Elec       q    Type
REMARK                         _______ _______ _______ _____ _____    ______ ____
ROOT
ATOM      1  C   UNL     1      -5.840  12.289  20.214  0.00  0.00    +0.000 A 
ATOM      2  N   UNL     1      -5.356  12.749  21.397  0.00  0.00    +0.000 NA
ATOM      3  C   UNL     1      -4.023  12.932  21.427  0.00  0.00    +0.000 A 
ATOM      4  O   UNL     1      -3.360  13.410  22.527  0.00  0.00    +0.000 OA
ATOM      5  C   UNL     1      -2.036  13.458  22.198  0.00  0.00    +0.000 A 
ATOM      6  C   UNL     1      -0.942  13.849  22.952  0.00  0.00    +0.000 A 
ATOM      7  N   UNL     1       0.279  13.806  22.363  0.00  0.00    +0.000 NA
ATOM      8  C   UNL     1       0.360  13.372  21.094  0.00  0.00    +0.000 A 
ATOM      9  N   UNL     1      -0.636  12.953  20.302  0.00  0.00    +0.000 NA
ATOM     10  C   UNL     1      -1.853  13.015  20.899  0.00  0.00    +0.000 A 
ATOM     11  C   UNL     1      -3.130  12.666  20.394  0.00  0.00    +0.000 A 
ATOM     12  C   UNL     1      -3.642  12.152  19.186  0.00  0.00    +0.000 A 
ATOM     13  C   UNL     1      -5.042  11.992  19.088  0.00  0.00    +0.000 A 
ATOM     14  C   UNL     1      -5.641  11.452  17.807  0.00  0.00    +0.000 C 
ATOM     15  O   UNL     1      -4.738  11.359  16.700  0.00  0.00    +0.000 OA
ATOM     16  C   UNL     1      -3.443  10.841  17.029  0.00  0.00    +0.000 C 
ATOM     17  C   UNL     1      -3.526   9.406  17.576  0.00  0.00    +0.000 C 
ATOM     18  C   UNL     1      -2.646  10.814  15.717  0.00  0.00    +0.000 C 
ATOM     19  C   UNL     1      -2.763  11.813  18.009  0.00  0.00    +0.000 C 
ENDROOT
BRANCH   1  20
ATOM     20  C   UNL     1      -7.339  12.041  20.211  0.00  0.00    +0.000 C 
BRANCH  20  22
ATOM     21  C   UNL     1      -7.511   9.534  20.392  0.00  0.00    +0.000 C 
ATOM     22  C   UNL     1      -7.734  10.861  21.101  0.00  0.00    +0.000 C 
ENDBRANCH  20  22
ENDBRANCH   1  20
BRANCH   6  23
ATOM     23  O   UNL     1      -1.052  14.304  24.253  0.00  0.00    +0.000 OA
BRANCH  23  24
ATOM     24  C   UNL     1      -1.383  15.698  24.302  0.00  0.00    +0.000 C 
ATOM     25  C   UNL     1      -2.528  15.901  25.278  0.00  0.00    +0.000 C 
ENDBRANCH  23  24
ENDBRANCH   6  23
TORSDOF 4
ENDMDL
MODEL 9
REMARK VINA RESULT:      -6.2      4.272      6.443
REMARK  Name = 
REMARK  8 active torsions:
REMARK  status: ('A' for Active; 'I' for Inactive)
REMARK    1  A    between atoms: C_1  and  C_2
REMARK    2  A    between atoms: C_2  and  C_3
REMARK    3  A    between atoms: C_3  and  C_4
REMARK    4  A    between atoms: C_9  and  O_10
REMARK    5  A    between atoms: O_10  and  C_11
REMARK    6  A    between atoms: C_11  and  C_12
REMARK    7  A    between atoms: C_22  and  C_23
REMARK    8  A    between atoms: C_22  and  C_24
REMARK                            x       y       z     vdW  Elec       q    Type
REMARK                         _______ _______ _______ _____ _____    ______ ____
ROOT
ATOM      1  C   UNL     1       6.744   5.981  18.149  0.00  0.00    +0.000 A 
ATOM      2  N   UNL     1       5.838   5.939  19.161  0.00  0.00    +0.000 NA
ATOM      3  C   UNL     1       4.772   5.150  18.930  0.00  0.00    +0.000 A 
ATOM      4  O   UNL     1       3.767   4.968  19.843  0.00  0.00    +0.000 OA
ATOM      5  C   UNL     1       2.865   4.119  19.271  0.00  0.00    +0.000 A 
ATOM      6  C   UNL     1       1.666   3.626  19.761  0.00  0.00    +0.000 A 
ATOM      7  N   UNL     1       0.962   2.779  18.971  0.00  0.00    +0.000 NA
ATOM      8  C   UNL     1       1.455   2.478  17.757  0.00  0.00    +0.000 A 
ATOM      9  N   UNL     1       2.587   2.925  17.196  0.00  0.00    +0.000 NA
ATOM     10  C   UNL     1       3.288   3.761  18.002  0.00  0.00    +0.000 A 
ATOM     11  C   UNL     1       4.516   4.428  17.769  0.00  0.00    +0.000 A 
ATOM     12  C   UNL     1       5.446   4.512  16.713  0.00  0.00    +0.000 A 
ATOM     13  C   UNL     1       6.606   5.286  16.928  0.00  0.00    +0.000 A 
ATOM     14  C   UNL     1       7.639   5.399  15.827  0.00  0.00    +0.000 C 
ATOM     15  O   UNL     1       7.454   4.510  14.720  0.00  0.00    +0.000 OA
ATOM     16  C   UNL     1       6.098   4.392  14.270  0.00  0.00    +0.000 C 
ATOM     17  C   UNL     1       5.544   5.739  13.776  0.00  0.00    +0.000 C 
ATOM     18  C   UNL     1       6.124   3.415  13.086  0.00  0.00    +0.000 C 
ATOM     19  C   UNL     1       5.259   3.784  15.406  0.00  0.00    +0.000 C 
ENDROOT
BRANCH   1  20
ATOM     20  C   UNL     1       7.916   6.913  18.404  0.00  0.00    +0.000 C 
BRANCH  20  22
ATOM     21  C   UNL     1       8.586   9.341  18.368  0.00  0.00    +0.000 C 
ATOM     22  C   UNL     1       7.751   8.261  17.699  0.00  0.00    +0.000 C 
ENDBRANCH  20  22
ENDBRANCH   1  20
BRANCH   6  23
ATOM     23  O   UNL     1       1.184   3.941  21.018  0.00  0.00    +0.000 OA
BRANCH  23  24
ATOM     24  C   UNL     1       1.279   2.827  21.916  0.00  0.00    +0.000 C 
ATOM     25  C   UNL     1       2.663   2.215  21.800  0.00  0.00    +0.000 C 
ENDBRANCH  23  24
ENDBRANCH   6  23
TORSDOF 4
ENDMDL
