MODEL 1
REMARK VINA RESULT:      -7.1      0.000      0.000
REMARK  Name = 
REMARK  3 active torsions:
REMARK  status: ('A' for Active; 'I' for Inactive)
REMARK    1  A    between atoms: C_1  and  N_2
REMARK    2  A    between atoms: C_5  and  C_6
REMARK    3  A    between atoms: C_11  and  C_12
REMARK                            x       y       z     vdW  Elec       q    Type
REMARK                         _______ _______ _______ _____ _____    ______ ____
ROOT
ATOM      1  C   UNL     1       6.961   4.786  14.086  0.00  0.00    +0.000 C 
ATOM      2  N   UNL     1       5.674   4.648  14.753  0.00  0.00    +0.000 N 
ATOM      3  C   UNL     1       5.756   4.590  16.157  0.00  0.00    +0.000 A 
ATOM      4  C   UNL     1       4.583   4.415  16.871  0.00  0.00    +0.000 A 
ATOM      5  C   UNL     1       4.669   4.291  18.250  0.00  0.00    +0.000 A 
ATOM      6  N   UNL     1       5.861   4.376  18.875  0.00  0.00    +0.000 NA
ATOM      7  C   UNL     1       6.930   4.606  18.105  0.00  0.00    +0.000 A 
ATOM      8  N   UNL     1       6.938   4.713  16.773  0.00  0.00    +0.000 NA
ATOM      9  H   UNL     1       5.171   3.828  14.421  0.00  0.00    +0.000 HD
ENDROOT
BRANCH   5  10
ATOM     10  C   UNL     1       3.493   3.990  19.111  0.00  0.00    +0.000 A 
ATOM     11  C   UNL     1       2.881   5.036  19.843  0.00  0.00    +0.000 A 
ATOM     12  C   UNL     1       1.746   4.831  20.634  0.00  0.00    +0.000 A 
ATOM     13  C   UNL     1       1.178   3.570  20.710  0.00  0.00    +0.000 A 
ATOM     14  C   UNL     1       1.752   2.513  20.010  0.00  0.00    +0.000 A 
ATOM     15  C   UNL     1       2.909   2.699  19.223  0.00  0.00    +0.000 A 
ATOM     16  C   UNL     1       3.466   1.487  18.520  0.00  0.00    +0.000 C 
ENDBRANCH   5  10
TORSDOF 1
ENDMDL
MODEL 2
REMARK VINA RESULT:      -7.0      0.815      1.856
REMARK  Name = 
REMARK  3 active torsions:
REMARK  status: ('A' for Active; 'I' for Inactive)
REMARK    1  A    between atoms: C_1  and  N_2
REMARK    2  A    between atoms: C_5  and  C_6
REMARK    3  A    between atoms: C_11  and  C_12
REMARK                            x       y       z     vdW  Elec       q    Type
REMARK                         _______ _______ _______ _____ _____    ______ ____
ROOT
ATOM      1  C   UNL     1       6.791   4.495  14.030  0.00  0.00    +0.000 C 
ATOM      2  N   UNL     1       5.580   4.388  14.831  0.00  0.00    +0.000 N 
ATOM      3  C   UNL     1       5.797   4.478  16.219  0.00  0.00    +0.000 A 
ATOM      4  C   UNL     1       4.705   4.342  17.059  0.00  0.00    +0.000 A 
ATOM      5  C   UNL     1       4.927   4.365  18.429  0.00  0.00    +0.000 A 
ATOM      6  N   UNL     1       6.168   4.551  18.921  0.00  0.00    +0.000 NA
ATOM      7  C   UNL     1       7.149   4.732  18.030  0.00  0.00    +0.000 A 
ATOM      8  N   UNL     1       7.027   4.701  16.700  0.00  0.00    +0.000 NA
ATOM      9  H   UNL     1       5.082   3.523  14.635  0.00  0.00    +0.000 HD
ENDROOT
BRANCH   5  10
ATOM     10  C   UNL     1       3.851   4.118  19.427  0.00  0.00    +0.000 A 
ATOM     11  C   UNL     1       3.769   2.855  20.062  0.00  0.00    +0.000 A 
ATOM     12  C   UNL     1       2.811   2.572  21.041  0.00  0.00    +0.000 A 
ATOM     13  C   UNL     1       1.909   3.550  21.427  0.00  0.00    +0.000 A 
ATOM     14  C   UNL     1       1.953   4.803  20.822  0.00  0.00    +0.000 A 
ATOM     15  C   UNL     1       2.899   5.098  19.819  0.00  0.00    +0.000 A 
ATOM     16  C   UNL     1       2.853   6.478  19.212  0.00  0.00    +0.000 C 
ENDBRANCH   5  10
TORSDOF 1
ENDMDL
MODEL 3
REMARK VINA RESULT:      -6.8      1.293      2.225
REMARK  Name = 
REMARK  3 active torsions:
REMARK  status: ('A' for Active; 'I' for Inactive)
REMARK    1  A    between atoms: C_1  and  N_2
REMARK    2  A    between atoms: C_5  and  C_6
REMARK    3  A    between atoms: C_11  and  C_12
REMARK                            x       y       z     vdW  Elec       q    Type
REMARK                         _______ _______ _______ _____ _____    ______ ____
ROOT
ATOM      1  C   UNL     1       7.903   5.022  13.289  0.00  0.00    +0.000 C 
ATOM      2  N   UNL     1       6.538   4.771  13.730  0.00  0.00    +0.000 N 
ATOM      3  C   UNL     1       6.392   4.670  15.127  0.00  0.00    +0.000 A 
ATOM      4  C   UNL     1       5.135   4.388  15.631  0.00  0.00    +0.000 A 
ATOM      5  C   UNL     1       5.002   4.224  17.003  0.00  0.00    +0.000 A 
ATOM      6  N   UNL     1       6.065   4.373  17.819  0.00  0.00    +0.000 NA
ATOM      7  C   UNL     1       7.226   4.704  17.243  0.00  0.00    +0.000 A 
ATOM      8  N   UNL     1       7.445   4.857  15.933  0.00  0.00    +0.000 NA
ATOM      9  H   UNL     1       6.161   3.928  13.302  0.00  0.00    +0.000 HD
ENDROOT
BRANCH   5  10
ATOM     10  C   UNL     1       3.726   3.811  17.649  0.00  0.00    +0.000 A 
ATOM     11  C   UNL     1       3.445   2.433  17.811  0.00  0.00    +0.000 A 
ATOM     12  C   UNL     1       2.287   1.977  18.449  0.00  0.00    +0.000 A 
ATOM     13  C   UNL     1       1.376   2.888  18.959  0.00  0.00    +0.000 A 
ATOM     14  C   UNL     1       1.614   4.252  18.815  0.00  0.00    +0.000 A 
ATOM     15  C   UNL     1       2.766   4.728  18.156  0.00  0.00    +0.000 A 
ATOM     16  C   UNL     1       2.923   6.223  18.034  0.00  0.00    +0.000 C 
ENDBRANCH   5  10
TORSDOF 1
ENDMDL
MODEL 4
REMARK VINA RESULT:      -6.6      1.100      1.473
REMARK  Name = 
REMARK  3 active torsions:
REMARK  status: ('A' for Active; 'I' for Inactive)
REMARK    1  A    between atoms: C_1  and  N_2
REMARK    2  A    between atoms: C_5  and  C_6
REMARK    3  A    between atoms: C_11  and  C_12
REMARK                            x       y       z     vdW  Elec       q    Type
REMARK                         _______ _______ _______ _____ _____    ______ ____
ROOT
ATOM      1  C   UNL     1       6.967   4.505  14.478  0.00  0.00    +0.000 C 
ATOM      2  N   UNL     1       5.712   4.085  15.086  0.00  0.00    +0.000 N 
ATOM      3  C   UNL     1       5.616   4.365  16.463  0.00  0.00    +0.000 A 
ATOM      4  C   UNL     1       4.474   3.960  17.132  0.00  0.00    +0.000 A 
ATOM      5  C   UNL     1       4.406   4.177  18.500  0.00  0.00    +0.000 A 
ATOM      6  N   UNL     1       5.412   4.797  19.149  0.00  0.00    +0.000 NA
ATOM      7  C   UNL     1       6.447   5.205  18.406  0.00  0.00    +0.000 A 
ATOM      8  N   UNL     1       6.602   5.016  17.093  0.00  0.00    +0.000 NA
ATOM      9  H   UNL     1       5.546   3.092  14.944  0.00  0.00    +0.000 HD
ENDROOT
BRANCH   5  10
ATOM     10  C   UNL     1       3.281   3.687  19.342  0.00  0.00    +0.000 A 
ATOM     11  C   UNL     1       3.562   3.044  20.572  0.00  0.00    +0.000 A 
ATOM     12  C   UNL     1       2.552   2.601  21.432  0.00  0.00    +0.000 A 
ATOM     13  C   UNL     1       1.223   2.798  21.093  0.00  0.00    +0.000 A 
ATOM     14  C   UNL     1       0.904   3.421  19.891  0.00  0.00    +0.000 A 
ATOM     15  C   UNL     1       1.911   3.856  19.003  0.00  0.00    +0.000 A 
ATOM     16  C   UNL     1       1.463   4.502  17.716  0.00  0.00    +0.000 C 
ENDBRANCH   5  10
TORSDOF 1
ENDMDL
MODEL 5
REMARK VINA RESULT:      -6.6      0.966      1.069
REMARK  Name = 
REMARK  3 active torsions:
REMARK  status: ('A' for Active; 'I' for Inactive)
REMARK    1  A    between atoms: C_1  and  N_2
REMARK    2  A    between atoms: C_5  and  C_6
REMARK    3  A    between atoms: C_11  and  C_12
REMARK                            x       y       z     vdW  Elec       q    Type
REMARK                         _______ _______ _______ _____ _____    ______ ____
ROOT
ATOM      1  C   UNL     1       6.724   4.024  13.454  0.00  0.00    +0.000 C 
ATOM      2  N   UNL     1       5.553   4.236  14.292  0.00  0.00    +0.000 N 
ATOM      3  C   UNL     1       5.845   4.401  15.660  0.00  0.00    +0.000 A 
ATOM      4  C   UNL     1       4.786   4.564  16.536  0.00  0.00    +0.000 A 
ATOM      5  C   UNL     1       5.067   4.660  17.891  0.00  0.00    +0.000 A 
ATOM      6  N   UNL     1       6.341   4.631  18.332  0.00  0.00    +0.000 NA
ATOM      7  C   UNL     1       7.299   4.531  17.404  0.00  0.00    +0.000 A 
ATOM      8  N   UNL     1       7.114   4.409  16.086  0.00  0.00    +0.000 NA
ATOM      9  H   UNL     1       4.883   3.477  14.191  0.00  0.00    +0.000 HD
ENDROOT
BRANCH   5  10
ATOM     10  C   UNL     1       4.009   4.726  18.935  0.00  0.00    +0.000 A 
ATOM     11  C   UNL     1       3.362   5.960  19.192  0.00  0.00    +0.000 A 
ATOM     12  C   UNL     1       2.329   6.082  20.127  0.00  0.00    +0.000 A 
ATOM     13  C   UNL     1       1.900   4.967  20.829  0.00  0.00    +0.000 A 
ATOM     14  C   UNL     1       2.513   3.738  20.610  0.00  0.00    +0.000 A 
ATOM     15  C   UNL     1       3.570   3.602  19.685  0.00  0.00    +0.000 A 
ATOM     16  C   UNL     1       4.182   2.232  19.534  0.00  0.00    +0.000 C 
ENDBRANCH   5  10
TORSDOF 1
ENDMDL
MODEL 6
REMARK VINA RESULT:      -6.4      4.060      5.793
REMARK  Name = 
REMARK  3 active torsions:
REMARK  status: ('A' for Active; 'I' for Inactive)
REMARK    1  A    between atoms: C_1  and  N_2
REMARK    2  A    between atoms: C_5  and  C_6
REMARK    3  A    between atoms: C_11  and  C_12
REMARK                            x       y       z     vdW  Elec       q    Type
REMARK                         _______ _______ _______ _____ _____    ______ ____
ROOT
ATOM      1  C   UNL     1       0.348  11.408  19.016  0.00  0.00    +0.000 C 
ATOM      2  N   UNL     1       0.964  10.457  18.102  0.00  0.00    +0.000 N 
ATOM      3  C   UNL     1       1.406   9.269  18.717  0.00  0.00    +0.000 A 
ATOM      4  C   UNL     1       2.044   8.326  17.929  0.00  0.00    +0.000 A 
ATOM      5  C   UNL     1       2.537   7.185  18.545  0.00  0.00    +0.000 A 
ATOM      6  N   UNL     1       2.366   6.990  19.868  0.00  0.00    +0.000 NA
ATOM      7  C   UNL     1       1.684   7.929  20.533  0.00  0.00    +0.000 A 
ATOM      8  N   UNL     1       1.198   9.064  20.023  0.00  0.00    +0.000 NA
ATOM      9  H   UNL     1       1.746  10.875  17.603  0.00  0.00    +0.000 HD
ENDROOT
BRANCH   5  10
ATOM     10  C   UNL     1       3.336   6.157  17.823  0.00  0.00    +0.000 A 
ATOM     11  C   UNL     1       4.602   6.506  17.294  0.00  0.00    +0.000 A 
ATOM     12  C   UNL     1       5.423   5.578  16.646  0.00  0.00    +0.000 A 
ATOM     13  C   UNL     1       5.006   4.263  16.515  0.00  0.00    +0.000 A 
ATOM     14  C   UNL     1       3.766   3.881  17.017  0.00  0.00    +0.000 A 
ATOM     15  C   UNL     1       2.917   4.809  17.656  0.00  0.00    +0.000 A 
ATOM     16  C   UNL     1       1.585   4.302  18.147  0.00  0.00    +0.000 C 
ENDBRANCH   5  10
TORSDOF 1
ENDMDL
MODEL 7
REMARK VINA RESULT:      -6.4      1.585      2.006
REMARK  Name = 
REMARK  3 active torsions:
REMARK  status: ('A' for Active; 'I' for Inactive)
REMARK    1  A    between atoms: C_1  and  N_2
REMARK    2  A    between atoms: C_5  and  C_6
REMARK    3  A    between atoms: C_11  and  C_12
REMARK                            x       y       z     vdW  Elec       q    Type
REMARK                         _______ _______ _______ _____ _____    ______ ____
ROOT
ATOM      1  C   UNL     1       7.016   4.492  13.339  0.00  0.00    +0.000 C 
ATOM      2  N   UNL     1       6.239   3.692  14.275  0.00  0.00    +0.000 N 
ATOM      3  C   UNL     1       5.629   4.438  15.302  0.00  0.00    +0.000 A 
ATOM      4  C   UNL     1       4.906   3.752  16.263  0.00  0.00    +0.000 A 
ATOM      5  C   UNL     1       4.359   4.478  17.312  0.00  0.00    +0.000 A 
ATOM      6  N   UNL     1       4.502   5.818  17.368  0.00  0.00    +0.000 NA
ATOM      7  C   UNL     1       5.166   6.397  16.361  0.00  0.00    +0.000 A 
ATOM      8  N   UNL     1       5.742   5.772  15.331  0.00  0.00    +0.000 NA
ATOM      9  H   UNL     1       6.806   2.961  14.697  0.00  0.00    +0.000 HD
ENDROOT
BRANCH   5  10
ATOM     10  C   UNL     1       3.659   3.840  18.459  0.00  0.00    +0.000 A 
ATOM     11  C   UNL     1       4.418   3.191  19.463  0.00  0.00    +0.000 A 
ATOM     12  C   UNL     1       3.826   2.611  20.590  0.00  0.00    +0.000 A 
ATOM     13  C   UNL     1       2.452   2.672  20.755  0.00  0.00    +0.000 A 
ATOM     14  C   UNL     1       1.670   3.295  19.788  0.00  0.00    +0.000 A 
ATOM     15  C   UNL     1       2.249   3.868  18.636  0.00  0.00    +0.000 A 
ATOM     16  C   UNL     1       1.314   4.503  17.637  0.00  0.00    +0.000 C 
ENDBRANCH   5  10
TORSDOF 1
ENDMDL
MODEL 8
REMARK VINA RESULT:      -6.4      2.311      5.675
REMARK  Name = 
REMARK  3 active torsions:
REMARK  status: ('A' for Active; 'I' for Inactive)
REMARK    1  A    between atoms: C_1  and  N_2
REMARK    2  A    between atoms: C_5  and  C_6
REMARK    3  A    between atoms: C_11  and  C_12
REMARK                            x       y       z     vdW  Elec       q    Type
REMARK                         _______ _______ _______ _____ _____    ______ ____
ROOT
ATOM      1  C   UNL     1       1.321   2.613  21.596  0.00  0.00    +0.000 C 
ATOM      2  N   UNL     1       2.196   3.756  21.381  0.00  0.00    +0.000 N 
ATOM      3  C   UNL     1       2.971   3.677  20.207  0.00  0.00    +0.000 A 
ATOM      4  C   UNL     1       3.864   4.702  19.946  0.00  0.00    +0.000 A 
ATOM      5  C   UNL     1       4.674   4.593  18.825  0.00  0.00    +0.000 A 
ATOM      6  N   UNL     1       4.565   3.534  17.998  0.00  0.00    +0.000 NA
ATOM      7  C   UNL     1       3.631   2.625  18.302  0.00  0.00    +0.000 A 
ATOM      8  N   UNL     1       2.829   2.641  19.370  0.00  0.00    +0.000 NA
ATOM      9  H   UNL     1       2.819   3.900  22.172  0.00  0.00    +0.000 HD
ENDROOT
BRANCH   5  10
ATOM     10  C   UNL     1       5.746   5.574  18.503  0.00  0.00    +0.000 A 
ATOM     11  C   UNL     1       6.988   5.494  19.178  0.00  0.00    +0.000 A 
ATOM     12  C   UNL     1       8.052   6.354  18.892  0.00  0.00    +0.000 A 
ATOM     13  C   UNL     1       7.911   7.320  17.908  0.00  0.00    +0.000 A 
ATOM     14  C   UNL     1       6.705   7.436  17.225  0.00  0.00    +0.000 A 
ATOM     15  C   UNL     1       5.615   6.589  17.516  0.00  0.00    +0.000 A 
ATOM     16  C   UNL     1       4.344   6.807  16.734  0.00  0.00    +0.000 C 
ENDBRANCH   5  10
TORSDOF 1
ENDMDL
MODEL 9
REMARK VINA RESULT:      -6.4      1.418      1.521
REMARK  Name = 
REMARK  3 active torsions:
REMARK  status: ('A' for Active; 'I' for Inactive)
REMARK    1  A    between atoms: C_1  and  N_2
REMARK    2  A    between atoms: C_5  and  C_6
REMARK    3  A    between atoms: C_11  and  C_12
REMARK                            x       y       z     vdW  Elec       q    Type
REMARK                         _______ _______ _______ _____ _____    ______ ____
ROOT
ATOM      1  C   UNL     1       7.013   4.691  14.052  0.00  0.00    +0.000 C 
ATOM      2  N   UNL     1       6.072   3.993  14.916  0.00  0.00    +0.000 N 
ATOM      3  C   UNL     1       5.345   4.837  15.777  0.00  0.00    +0.000 A 
ATOM      4  C   UNL     1       4.458   4.253  16.666  0.00  0.00    +0.000 A 
ATOM      5  C   UNL     1       3.789   5.077  17.559  0.00  0.00    +0.000 A 
ATOM      6  N   UNL     1       3.976   6.412  17.534  0.00  0.00    +0.000 NA
ATOM      7  C   UNL     1       4.807   6.888  16.600  0.00  0.00    +0.000 A 
ATOM      8  N   UNL     1       5.506   6.165  15.721  0.00  0.00    +0.000 NA
ATOM      9  H   UNL     1       6.539   3.282  15.475  0.00  0.00    +0.000 HD
ENDROOT
BRANCH   5  10
ATOM     10  C   UNL     1       2.898   4.555  18.631  0.00  0.00    +0.000 A 
ATOM     11  C   UNL     1       2.572   5.386  19.730  0.00  0.00    +0.000 A 
ATOM     12  C   UNL     1       1.705   4.975  20.747  0.00  0.00    +0.000 A 
ATOM     13  C   UNL     1       1.125   3.718  20.691  0.00  0.00    +0.000 A 
ATOM     14  C   UNL     1       1.425   2.868  19.631  0.00  0.00    +0.000 A 
ATOM     15  C   UNL     1       2.313   3.260  18.607  0.00  0.00    +0.000 A 
ATOM     16  C   UNL     1       2.587   2.261  17.512  0.00  0.00    +0.000 C 
ENDBRANCH   5  10
TORSDOF 1
ENDMDL
