MODEL 1
REMARK VINA RESULT:      -9.3      0.000      0.000
REMARK  Name = 
REMARK  7 active torsions:
REMARK  status: ('A' for Active; 'I' for Inactive)
REMARK    1  A    between atoms: C_1  and  N_2
REMARK    2  A    between atoms: N_9  and  C_10
REMARK    3  A    between atoms: C_10  and  C_11
REMARK    4  A    between atoms: C_17  and  O_18
REMARK    5  A    between atoms: C_19  and  C_20
REMARK    6  A    between atoms: C_20  and  C_21
REMARK    7  A    between atoms: N_30  and  C_31
REMARK                            x       y       z     vdW  Elec       q    Type
REMARK                         _______ _______ _______ _____ _____    ______ ____
ROOT
ATOM      1  C   UNL     1      -0.041  13.377  19.848  0.00  0.00    +0.000 C 
ATOM      2  N   UNL     1       0.193  11.999  20.246  0.00  0.00    +0.000 N 
ATOM      3  C   UNL     1       1.056  11.237  19.461  0.00  0.00    +0.000 A 
ATOM      4  O   UNL     1       1.701  11.729  18.538  0.00  0.00    +0.000 OA
ATOM      5  C   UNL     1       1.161   9.884  19.889  0.00  0.00    +0.000 A 
ATOM      6  C   UNL     1       0.641   9.433  21.066  0.00  0.00    +0.000 A 
ATOM      7  N   UNL     1       0.976   8.123  21.296  0.00  0.00    +0.000 NA
ATOM      8  C   UNL     1       1.675   7.749  20.234  0.00  0.00    +0.000 A 
ATOM      9  N   UNL     1       2.262   6.544  19.913  0.00  0.00    +0.000 N 
ATOM     10  C   UNL     1       3.008   6.440  18.734  0.00  0.00    +0.000 A 
ATOM     11  C   UNL     1       3.085   7.414  17.809  0.00  0.00    +0.000 A 
ATOM     12  C   UNL     1       2.357   8.677  18.061  0.00  0.00    +0.000 A 
ATOM     13  O   UNL     1       2.258   9.568  17.240  0.00  0.00    +0.000 OA
ATOM     14  N   UNL     1       1.766   8.791  19.316  0.00  0.00    +0.000 N 
ATOM     15  N   UNL     1      -0.097  10.272  21.877  0.00  0.00    +0.000 N 
ATOM     16  C   UNL     1      -0.655   9.865  23.149  0.00  0.00    +0.000 C 
ATOM     17  C   UNL     1      -0.353  11.588  21.466  0.00  0.00    +0.000 A 
ATOM     18  O   UNL     1      -1.023  12.362  22.159  0.00  0.00    +0.000 OA
ENDROOT
BRANCH  10  19
ATOM     19  O   UNL     1       3.724   5.282  18.517  0.00  0.00    +0.000 OA
ATOM     20  H   UNL     1       3.576   4.727  19.303  0.00  0.00    +0.000 HD
ENDBRANCH  10  19
BRANCH   9  21
ATOM     21  C   UNL     1       2.286   5.497  20.961  0.00  0.00    +0.000 C 
BRANCH  21  22
ATOM     22  C   UNL     1       2.012   4.086  20.456  0.00  0.00    +0.000 A 
ATOM     23  C   UNL     1       0.803   3.790  19.795  0.00  0.00    +0.000 A 
ATOM     24  C   UNL     1       0.614   2.559  19.153  0.00  0.00    +0.000 A 
ATOM     25  C   UNL     1       1.627   1.604  19.161  0.00  0.00    +0.000 A 
ATOM     26  C   UNL     1       2.816   1.868  19.835  0.00  0.00    +0.000 A 
ATOM     27  C   UNL     1       3.004   3.097  20.477  0.00  0.00    +0.000 A 
ENDBRANCH  21  22
ENDBRANCH   9  21
BRANCH  11  28
ATOM     28  C   UNL     1       3.935   7.405  16.569  0.00  0.00    +0.000 C 
BRANCH  28  29
ATOM     29  C   UNL     1       5.204   6.585  16.658  0.00  0.00    +0.000 A 
ATOM     30  C   UNL     1       6.276   6.986  17.472  0.00  0.00    +0.000 A 
ATOM     31  C   UNL     1       7.392   6.164  17.636  0.00  0.00    +0.000 A 
ATOM     32  C   UNL     1       7.452   4.933  16.988  0.00  0.00    +0.000 A 
ATOM     33  C   UNL     1       6.410   4.538  16.151  0.00  0.00    +0.000 A 
ATOM     34  C   UNL     1       5.297   5.363  15.978  0.00  0.00    +0.000 A 
ENDBRANCH  28  29
ENDBRANCH  11  28
TORSDOF 5
ENDMDL
MODEL 2
REMARK VINA RESULT:      -8.5      3.716      8.109
REMARK  Name = 
REMARK  7 active torsions:
REMARK  status: ('A' for Active; 'I' for Inactive)
REMARK    1  A    between atoms: C_1  and  N_2
REMARK    2  A    between atoms: N_9  and  C_10
REMARK    3  A    between atoms: C_10  and  C_11
REMARK    4  A    between atoms: C_17  and  O_18
REMARK    5  A    between atoms: C_19  and  C_20
REMARK    6  A    between atoms: C_20  and  C_21
REMARK    7  A    between atoms: N_30  and  C_31
REMARK                            x       y       z     vdW  Elec       q    Type
REMARK                         _______ _______ _______ _____ _____    ______ ____
ROOT
ATOM      1  C   UNL     1      -6.789  10.719  18.639  0.00  0.00    +0.000 C 
ATOM      2  N   UNL     1      -5.682  11.535  19.108  0.00  0.00    +0.000 N 
ATOM      3  C   UNL     1      -4.400  11.190  18.685  0.00  0.00    +0.000 A 
ATOM      4  O   UNL     1      -4.206  10.312  17.848  0.00  0.00    +0.000 OA
ATOM      5  C   UNL     1      -3.380  12.001  19.258  0.00  0.00    +0.000 A 
ATOM      6  C   UNL     1      -3.641  13.130  19.975  0.00  0.00    +0.000 A 
ATOM      7  N   UNL     1      -2.488  13.789  20.317  0.00  0.00    +0.000 NA
ATOM      8  C   UNL     1      -1.504  13.039  19.842  0.00  0.00    +0.000 A 
ATOM      9  N   UNL     1      -0.136  13.202  19.891  0.00  0.00    +0.000 N 
ATOM     10  C   UNL     1       0.686  12.274  19.240  0.00  0.00    +0.000 A 
ATOM     11  C   UNL     1       0.233  11.143  18.671  0.00  0.00    +0.000 A 
ATOM     12  C   UNL     1      -1.221  10.872  18.714  0.00  0.00    +0.000 A 
ATOM     13  O   UNL     1      -1.718   9.827  18.343  0.00  0.00    +0.000 OA
ATOM     14  N   UNL     1      -2.009  11.898  19.227  0.00  0.00    +0.000 N 
ATOM     15  N   UNL     1      -4.943  13.502  20.253  0.00  0.00    +0.000 N 
ATOM     16  C   UNL     1      -5.290  14.700  20.987  0.00  0.00    +0.000 C 
ATOM     17  C   UNL     1      -6.004  12.688  19.832  0.00  0.00    +0.000 A 
ATOM     18  O   UNL     1      -7.178  12.982  20.076  0.00  0.00    +0.000 OA
ENDROOT
BRANCH  10  19
ATOM     19  O   UNL     1       2.035  12.546  19.158  0.00  0.00    +0.000 OA
ATOM     20  H   UNL     1       2.214  13.215  19.843  0.00  0.00    +0.000 HD
ENDBRANCH  10  19
BRANCH   9  21
ATOM     21  C   UNL     1       0.379  14.490  20.412  0.00  0.00    +0.000 C 
BRANCH  21  22
ATOM     22  C   UNL     1       0.577  15.570  19.356  0.00  0.00    +0.000 A 
ATOM     23  C   UNL     1      -0.512  16.357  18.932  0.00  0.00    +0.000 A 
ATOM     24  C   UNL     1      -0.318  17.477  18.114  0.00  0.00    +0.000 A 
ATOM     25  C   UNL     1       0.967  17.831  17.706  0.00  0.00    +0.000 A 
ATOM     26  C   UNL     1       2.050  17.047  18.091  0.00  0.00    +0.000 A 
ATOM     27  C   UNL     1       1.856  15.927  18.907  0.00  0.00    +0.000 A 
ENDBRANCH  21  22
ENDBRANCH   9  21
BRANCH  11  28
ATOM     28  C   UNL     1       1.042  10.153  17.881  0.00  0.00    +0.000 C 
BRANCH  28  29
ATOM     29  C   UNL     1       1.554   8.963  18.662  0.00  0.00    +0.000 A 
ATOM     30  C   UNL     1       1.262   8.806  20.027  0.00  0.00    +0.000 A 
ATOM     31  C   UNL     1       1.641   7.648  20.708  0.00  0.00    +0.000 A 
ATOM     32  C   UNL     1       2.318   6.634  20.035  0.00  0.00    +0.000 A 
ATOM     33  C   UNL     1       2.644   6.792  18.689  0.00  0.00    +0.000 A 
ATOM     34  C   UNL     1       2.274   7.953  18.009  0.00  0.00    +0.000 A 
ENDBRANCH  28  29
ENDBRANCH  11  28
TORSDOF 5
ENDMDL
MODEL 3
REMARK VINA RESULT:      -8.2      0.951      1.151
REMARK  Name = 
REMARK  7 active torsions:
REMARK  status: ('A' for Active; 'I' for Inactive)
REMARK    1  A    between atoms: C_1  and  N_2
REMARK    2  A    between atoms: N_9  and  C_10
REMARK    3  A    between atoms: C_10  and  C_11
REMARK    4  A    between atoms: C_17  and  O_18
REMARK    5  A    between atoms: C_19  and  C_20
REMARK    6  A    between atoms: C_20  and  C_21
REMARK    7  A    between atoms: N_30  and  C_31
REMARK                            x       y       z     vdW  Elec       q    Type
REMARK                         _______ _______ _______ _____ _____    ______ ____
ROOT
ATOM      1  C   UNL     1       0.539  13.605  18.857  0.00  0.00    +0.000 C 
ATOM      2  N   UNL     1       0.559  12.275  19.441  0.00  0.00    +0.000 N 
ATOM      3  C   UNL     1       1.436  11.341  18.893  0.00  0.00    +0.000 A 
ATOM      4  O   UNL     1       2.257  11.648  18.031  0.00  0.00    +0.000 OA
ATOM      5  C   UNL     1       1.327  10.050  19.483  0.00  0.00    +0.000 A 
ATOM      6  C   UNL     1       0.597   9.805  20.607  0.00  0.00    +0.000 A 
ATOM      7  N   UNL     1       0.747   8.511  21.034  0.00  0.00    +0.000 NA
ATOM      8  C   UNL     1       1.546   7.940  20.144  0.00  0.00    +0.000 A 
ATOM      9  N   UNL     1       2.035   6.654  20.057  0.00  0.00    +0.000 N 
ATOM     10  C   UNL     1       2.926   6.330  19.028  0.00  0.00    +0.000 A 
ATOM     11  C   UNL     1       3.242   7.164  18.022  0.00  0.00    +0.000 A 
ATOM     12  C   UNL     1       2.631   8.512  18.012  0.00  0.00    +0.000 A 
ATOM     13  O   UNL     1       2.750   9.294  17.090  0.00  0.00    +0.000 OA
ATOM     14  N   UNL     1       1.883   8.841  19.139  0.00  0.00    +0.000 N 
ATOM     15  N   UNL     1      -0.153  10.807  21.193  0.00  0.00    +0.000 N 
ATOM     16  C   UNL     1      -0.929  10.621  22.400  0.00  0.00    +0.000 C 
ATOM     17  C   UNL     1      -0.199  12.077  20.600  0.00  0.00    +0.000 A 
ATOM     18  O   UNL     1      -0.871  12.992  21.087  0.00  0.00    +0.000 OA
ENDROOT
BRANCH  10  19
ATOM     19  O   UNL     1       3.532   5.092  19.059  0.00  0.00    +0.000 OA
ATOM     20  H   UNL     1       3.701   4.901  19.999  0.00  0.00    +0.000 HD
ENDBRANCH  10  19
BRANCH   9  21
ATOM     21  C   UNL     1       1.791   5.753  21.208  0.00  0.00    +0.000 C 
BRANCH  21  22
ATOM     22  C   UNL     1       1.575   4.292  20.837  0.00  0.00    +0.000 A 
ATOM     23  C   UNL     1       0.739   3.949  19.756  0.00  0.00    +0.000 A 
ATOM     24  C   UNL     1       0.682   2.634  19.276  0.00  0.00    +0.000 A 
ATOM     25  C   UNL     1       1.458   1.639  19.868  0.00  0.00    +0.000 A 
ATOM     26  C   UNL     1       2.266   1.955  20.957  0.00  0.00    +0.000 A 
ATOM     27  C   UNL     1       2.322   3.267  21.436  0.00  0.00    +0.000 A 
ENDBRANCH  21  22
ENDBRANCH   9  21
BRANCH  11  28
ATOM     28  C   UNL     1       4.256   6.917  16.939  0.00  0.00    +0.000 C 
BRANCH  28  29
ATOM     29  C   UNL     1       5.702   6.983  17.378  0.00  0.00    +0.000 A 
ATOM     30  C   UNL     1       6.456   8.159  17.230  0.00  0.00    +0.000 A 
ATOM     31  C   UNL     1       7.752   8.244  17.742  0.00  0.00    +0.000 A 
ATOM     32  C   UNL     1       8.311   7.155  18.406  0.00  0.00    +0.000 A 
ATOM     33  C   UNL     1       7.587   5.971  18.530  0.00  0.00    +0.000 A 
ATOM     34  C   UNL     1       6.294   5.881  18.010  0.00  0.00    +0.000 A 
ENDBRANCH  28  29
ENDBRANCH  11  28
TORSDOF 5
ENDMDL
MODEL 4
REMARK VINA RESULT:      -8.2      0.636      1.289
REMARK  Name = 
REMARK  7 active torsions:
REMARK  status: ('A' for Active; 'I' for Inactive)
REMARK    1  A    between atoms: C_1  and  N_2
REMARK    2  A    between atoms: N_9  and  C_10
REMARK    3  A    between atoms: C_10  and  C_11
REMARK    4  A    between atoms: C_17  and  O_18
REMARK    5  A    between atoms: C_19  and  C_20
REMARK    6  A    between atoms: C_20  and  C_21
REMARK    7  A    between atoms: N_30  and  C_31
REMARK                            x       y       z     vdW  Elec       q    Type
REMARK                         _______ _______ _______ _____ _____    ______ ____
ROOT
ATOM      1  C   UNL     1      -0.417  13.688  19.479  0.00  0.00    +0.000 C 
ATOM      2  N   UNL     1      -0.148  12.351  19.981  0.00  0.00    +0.000 N 
ATOM      3  C   UNL     1       0.767  11.569  19.279  0.00  0.00    +0.000 A 
ATOM      4  O   UNL     1       1.425  12.020  18.344  0.00  0.00    +0.000 OA
ATOM      5  C   UNL     1       0.905  10.253  19.803  0.00  0.00    +0.000 A 
ATOM      6  C   UNL     1       0.362   9.865  20.992  0.00  0.00    +0.000 A 
ATOM      7  N   UNL     1       0.734   8.587  21.324  0.00  0.00    +0.000 NA
ATOM      8  C   UNL     1       1.481   8.168  20.313  0.00  0.00    +0.000 A 
ATOM      9  N   UNL     1       2.121   6.966  20.096  0.00  0.00    +0.000 N 
ATOM     10  C   UNL     1       2.909   6.809  18.950  0.00  0.00    +0.000 A 
ATOM     11  C   UNL     1       2.982   7.719  17.962  0.00  0.00    +0.000 A 
ATOM     12  C   UNL     1       2.203   8.969  18.102  0.00  0.00    +0.000 A 
ATOM     13  O   UNL     1       2.101   9.796  17.218  0.00  0.00    +0.000 OA
ATOM     14  N   UNL     1       1.567   9.146  19.327  0.00  0.00    +0.000 N 
ATOM     15  N   UNL     1      -0.433  10.730  21.719  0.00  0.00    +0.000 N 
ATOM     16  C   UNL     1      -1.019  10.391  22.998  0.00  0.00    +0.000 C 
ATOM     17  C   UNL     1      -0.721  12.005  21.209  0.00  0.00    +0.000 A 
ATOM     18  O   UNL     1      -1.440  12.798  21.825  0.00  0.00    +0.000 OA
ENDROOT
BRANCH  10  19
ATOM     19  O   UNL     1       3.672   5.666  18.838  0.00  0.00    +0.000 OA
ATOM     20  H   UNL     1       4.344   5.725  19.540  0.00  0.00    +0.000 HD
ENDBRANCH  10  19
BRANCH   9  21
ATOM     21  C   UNL     1       2.145   5.995  21.215  0.00  0.00    +0.000 C 
BRANCH  21  22
ATOM     22  C   UNL     1       1.904   4.548  20.806  0.00  0.00    +0.000 A 
ATOM     23  C   UNL     1       2.356   3.493  21.625  0.00  0.00    +0.000 A 
ATOM     24  C   UNL     1       1.976   2.169  21.371  0.00  0.00    +0.000 A 
ATOM     25  C   UNL     1       1.139   1.875  20.297  0.00  0.00    +0.000 A 
ATOM     26  C   UNL     1       0.709   2.901  19.460  0.00  0.00    +0.000 A 
ATOM     27  C   UNL     1       1.089   4.223  19.713  0.00  0.00    +0.000 A 
ENDBRANCH  21  22
ENDBRANCH   9  21
BRANCH  11  28
ATOM     28  C   UNL     1       3.874   7.656  16.754  0.00  0.00    +0.000 C 
BRANCH  28  29
ATOM     29  C   UNL     1       4.997   6.644  16.827  0.00  0.00    +0.000 A 
ATOM     30  C   UNL     1       4.883   5.384  16.216  0.00  0.00    +0.000 A 
ATOM     31  C   UNL     1       5.966   4.504  16.191  0.00  0.00    +0.000 A 
ATOM     32  C   UNL     1       7.175   4.870  16.777  0.00  0.00    +0.000 A 
ATOM     33  C   UNL     1       7.290   6.103  17.417  0.00  0.00    +0.000 A 
ATOM     34  C   UNL     1       6.205   6.981  17.451  0.00  0.00    +0.000 A 
ENDBRANCH  28  29
ENDBRANCH  11  28
TORSDOF 5
ENDMDL
MODEL 5
REMARK VINA RESULT:      -8.1      3.229      6.923
REMARK  Name = 
REMARK  7 active torsions:
REMARK  status: ('A' for Active; 'I' for Inactive)
REMARK    1  A    between atoms: C_1  and  N_2
REMARK    2  A    between atoms: N_9  and  C_10
REMARK    3  A    between atoms: C_10  and  C_11
REMARK    4  A    between atoms: C_17  and  O_18
REMARK    5  A    between atoms: C_19  and  C_20
REMARK    6  A    between atoms: C_20  and  C_21
REMARK    7  A    between atoms: N_30  and  C_31
REMARK                            x       y       z     vdW  Elec       q    Type
REMARK                         _______ _______ _______ _____ _____    ______ ____
ROOT
ATOM      1  C   UNL     1       5.073  16.426  18.989  0.00  0.00    +0.000 C 
ATOM      2  N   UNL     1       4.015  15.799  19.762  0.00  0.00    +0.000 N 
ATOM      3  C   UNL     1       3.576  14.541  19.355  0.00  0.00    +0.000 A 
ATOM      4  O   UNL     1       4.136  13.915  18.457  0.00  0.00    +0.000 OA
ATOM      5  C   UNL     1       2.487  14.045  20.127  0.00  0.00    +0.000 A 
ATOM      6  C   UNL     1       2.059  14.640  21.276  0.00  0.00    +0.000 A 
ATOM      7  N   UNL     1       1.075  13.906  21.888  0.00  0.00    +0.000 NA
ATOM      8  C   UNL     1       0.866  12.869  21.090  0.00  0.00    +0.000 A 
ATOM      9  N   UNL     1      -0.009  11.808  21.192  0.00  0.00    +0.000 N 
ATOM     10  C   UNL     1       0.023  10.802  20.220  0.00  0.00    +0.000 A 
ATOM     11  C   UNL     1       0.768  10.863  19.103  0.00  0.00    +0.000 A 
ATOM     12  C   UNL     1       1.623  12.053  18.897  0.00  0.00    +0.000 A 
ATOM     13  O   UNL     1       2.237  12.267  17.870  0.00  0.00    +0.000 OA
ATOM     14  N   UNL     1       1.679  12.946  19.964  0.00  0.00    +0.000 N 
ATOM     15  N   UNL     1       2.624  15.824  21.710  0.00  0.00    +0.000 N 
ATOM     16  C   UNL     1       2.234  16.494  22.932  0.00  0.00    +0.000 C 
ATOM     17  C   UNL     1       3.617  16.444  20.938  0.00  0.00    +0.000 A 
ATOM     18  O   UNL     1       4.134  17.511  21.287  0.00  0.00    +0.000 OA
ENDROOT
BRANCH  10  19
ATOM     19  O   UNL     1      -0.737   9.671  20.431  0.00  0.00    +0.000 OA
ATOM     20  H   UNL     1      -0.354   8.982  19.858  0.00  0.00    +0.000 HD
ENDBRANCH  10  19
BRANCH   9  21
ATOM     21  C   UNL     1      -0.756  11.661  22.463  0.00  0.00    +0.000 C 
BRANCH  21  22
ATOM     22  C   UNL     1      -2.199  12.149  22.411  0.00  0.00    +0.000 A 
ATOM     23  C   UNL     1      -2.974  12.202  23.587  0.00  0.00    +0.000 A 
ATOM     24  C   UNL     1      -4.227  12.828  23.598  0.00  0.00    +0.000 A 
ATOM     25  C   UNL     1      -4.728  13.410  22.436  0.00  0.00    +0.000 A 
ATOM     26  C   UNL     1      -3.989  13.339  21.258  0.00  0.00    +0.000 A 
ATOM     27  C   UNL     1      -2.738  12.714  21.247  0.00  0.00    +0.000 A 
ENDBRANCH  21  22
ENDBRANCH   9  21
BRANCH  11  28
ATOM     28  C   UNL     1       0.919   9.784  18.067  0.00  0.00    +0.000 C 
BRANCH  28  29
ATOM     29  C   UNL     1       1.834   8.641  18.450  0.00  0.00    +0.000 A 
ATOM     30  C   UNL     1       1.691   7.972  19.677  0.00  0.00    +0.000 A 
ATOM     31  C   UNL     1       2.464   6.847  19.969  0.00  0.00    +0.000 A 
ATOM     32  C   UNL     1       3.390   6.377  19.041  0.00  0.00    +0.000 A 
ATOM     33  C   UNL     1       3.565   7.052  17.834  0.00  0.00    +0.000 A 
ATOM     34  C   UNL     1       2.800   8.183  17.544  0.00  0.00    +0.000 A 
ENDBRANCH  28  29
ENDBRANCH  11  28
TORSDOF 5
ENDMDL
MODEL 6
REMARK VINA RESULT:      -8.1      3.854      8.397
REMARK  Name = 
REMARK  7 active torsions:
REMARK  status: ('A' for Active; 'I' for Inactive)
REMARK    1  A    between atoms: C_1  and  N_2
REMARK    2  A    between atoms: N_9  and  C_10
REMARK    3  A    between atoms: C_10  and  C_11
REMARK    4  A    between atoms: C_17  and  O_18
REMARK    5  A    between atoms: C_19  and  C_20
REMARK    6  A    between atoms: C_20  and  C_21
REMARK    7  A    between atoms: N_30  and  C_31
REMARK                            x       y       z     vdW  Elec       q    Type
REMARK                         _______ _______ _______ _____ _____    ______ ____
ROOT
ATOM      1  C   UNL     1      -7.150  11.050  19.135  0.00  0.00    +0.000 C 
ATOM      2  N   UNL     1      -6.006  11.818  19.597  0.00  0.00    +0.000 N 
ATOM      3  C   UNL     1      -4.755  11.491  19.075  0.00  0.00    +0.000 A 
ATOM      4  O   UNL     1      -4.623  10.675  18.167  0.00  0.00    +0.000 OA
ATOM      5  C   UNL     1      -3.691  12.246  19.645  0.00  0.00    +0.000 A 
ATOM      6  C   UNL     1      -3.895  13.322  20.457  0.00  0.00    +0.000 A 
ATOM      7  N   UNL     1      -2.714  13.941  20.779  0.00  0.00    +0.000 NA
ATOM      8  C   UNL     1      -1.770  13.218  20.193  0.00  0.00    +0.000 A 
ATOM      9  N   UNL     1      -0.399  13.362  20.174  0.00  0.00    +0.000 N 
ATOM     10  C   UNL     1       0.370  12.476  19.411  0.00  0.00    +0.000 A 
ATOM     11  C   UNL     1      -0.132  11.395  18.788  0.00  0.00    +0.000 A 
ATOM     12  C   UNL     1      -1.585  11.137  18.896  0.00  0.00    +0.000 A 
ATOM     13  O   UNL     1      -2.118  10.128  18.479  0.00  0.00    +0.000 OA
ATOM     14  N   UNL     1      -2.327  12.131  19.528  0.00  0.00    +0.000 N 
ATOM     15  N   UNL     1      -5.172  13.687  20.837  0.00  0.00    +0.000 N 
ATOM     16  C   UNL     1      -5.458  14.831  21.676  0.00  0.00    +0.000 C 
ATOM     17  C   UNL     1      -6.268  12.917  20.420  0.00  0.00    +0.000 A 
ATOM     18  O   UNL     1      -7.422  13.205  20.753  0.00  0.00    +0.000 OA
ENDROOT
BRANCH  10  19
ATOM     19  O   UNL     1       1.716  12.739  19.270  0.00  0.00    +0.000 OA
ATOM     20  H   UNL     1       1.793  13.708  19.204  0.00  0.00    +0.000 HD
ENDBRANCH  10  19
BRANCH   9  21
ATOM     21  C   UNL     1       0.165  14.602  20.757  0.00  0.00    +0.000 C 
BRANCH  21  22
ATOM     22  C   UNL     1      -0.182  15.876  19.997  0.00  0.00    +0.000 A 
ATOM     23  C   UNL     1       0.091  15.978  18.618  0.00  0.00    +0.000 A 
ATOM     24  C   UNL     1      -0.394  17.054  17.864  0.00  0.00    +0.000 A 
ATOM     25  C   UNL     1      -1.159  18.046  18.473  0.00  0.00    +0.000 A 
ATOM     26  C   UNL     1      -1.412  17.977  19.840  0.00  0.00    +0.000 A 
ATOM     27  C   UNL     1      -0.927  16.903  20.593  0.00  0.00    +0.000 A 
ENDBRANCH  21  22
ENDBRANCH   9  21
BRANCH  11  28
ATOM     28  C   UNL     1       0.616  10.458  17.881  0.00  0.00    +0.000 C 
BRANCH  28  29
ATOM     29  C   UNL     1       1.278   9.283  18.567  0.00  0.00    +0.000 A 
ATOM     30  C   UNL     1       1.066   9.019  19.930  0.00  0.00    +0.000 A 
ATOM     31  C   UNL     1       1.589   7.868  20.523  0.00  0.00    +0.000 A 
ATOM     32  C   UNL     1       2.332   6.969  19.763  0.00  0.00    +0.000 A 
ATOM     33  C   UNL     1       2.579   7.236  18.417  0.00  0.00    +0.000 A 
ATOM     34  C   UNL     1       2.064   8.391  17.825  0.00  0.00    +0.000 A 
ENDBRANCH  28  29
ENDBRANCH  11  28
TORSDOF 5
ENDMDL
MODEL 7
REMARK VINA RESULT:      -8.0      6.658      9.583
REMARK  Name = 
REMARK  7 active torsions:
REMARK  status: ('A' for Active; 'I' for Inactive)
REMARK    1  A    between atoms: C_1  and  N_2
REMARK    2  A    between atoms: N_9  and  C_10
REMARK    3  A    between atoms: C_10  and  C_11
REMARK    4  A    between atoms: C_17  and  O_18
REMARK    5  A    between atoms: C_19  and  C_20
REMARK    6  A    between atoms: C_20  and  C_21
REMARK    7  A    between atoms: N_30  and  C_31
REMARK                            x       y       z     vdW  Elec       q    Type
REMARK                         _______ _______ _______ _____ _____    ______ ____
ROOT
ATOM      1  C   UNL     1       4.920  14.855  17.998  0.00  0.00    +0.000 C 
ATOM      2  N   UNL     1       3.675  15.253  18.631  0.00  0.00    +0.000 N 
ATOM      3  C   UNL     1       2.695  14.278  18.801  0.00  0.00    +0.000 A 
ATOM      4  O   UNL     1       2.904  13.094  18.547  0.00  0.00    +0.000 OA
ATOM      5  C   UNL     1       1.486  14.783  19.360  0.00  0.00    +0.000 A 
ATOM      6  C   UNL     1       1.373  16.040  19.872  0.00  0.00    +0.000 A 
ATOM      7  N   UNL     1       0.145  16.241  20.450  0.00  0.00    +0.000 NA
ATOM      8  C   UNL     1      -0.520  15.110  20.258  0.00  0.00    +0.000 A 
ATOM      9  N   UNL     1      -1.798  14.737  20.617  0.00  0.00    +0.000 N 
ATOM     10  C   UNL     1      -2.233  13.437  20.338  0.00  0.00    +0.000 A 
ATOM     11  C   UNL     1      -1.526  12.550  19.615  0.00  0.00    +0.000 A 
ATOM     12  C   UNL     1      -0.202  12.963  19.101  0.00  0.00    +0.000 A 
ATOM     13  O   UNL     1       0.460  12.288  18.338  0.00  0.00    +0.000 OA
ATOM     14  N   UNL     1       0.253  14.203  19.540  0.00  0.00    +0.000 N 
ATOM     15  N   UNL     1       2.427  16.930  19.798  0.00  0.00    +0.000 N 
ATOM     16  C   UNL     1       2.381  18.270  20.344  0.00  0.00    +0.000 C 
ATOM     17  C   UNL     1       3.612  16.551  19.149  0.00  0.00    +0.000 A 
ATOM     18  O   UNL     1       4.569  17.325  19.051  0.00  0.00    +0.000 OA
ENDROOT
BRANCH  10  19
ATOM     19  O   UNL     1      -3.446  13.033  20.853  0.00  0.00    +0.000 OA
ATOM     20  H   UNL     1      -3.864  13.837  21.212  0.00  0.00    +0.000 HD
ENDBRANCH  10  19
BRANCH   9  21
ATOM     21  C   UNL     1      -2.550  15.653  21.506  0.00  0.00    +0.000 C 
BRANCH  21  22
ATOM     22  C   UNL     1      -2.273  15.465  22.992  0.00  0.00    +0.000 A 
ATOM     23  C   UNL     1      -1.310  16.263  23.642  0.00  0.00    +0.000 A 
ATOM     24  C   UNL     1      -1.179  16.245  25.036  0.00  0.00    +0.000 A 
ATOM     25  C   UNL     1      -2.007  15.430  25.806  0.00  0.00    +0.000 A 
ATOM     26  C   UNL     1      -2.942  14.613  25.178  0.00  0.00    +0.000 A 
ATOM     27  C   UNL     1      -3.072  14.630  23.785  0.00  0.00    +0.000 A 
ENDBRANCH  21  22
ENDBRANCH   9  21
BRANCH  11  28
ATOM     28  C   UNL     1      -1.891  11.114  19.356  0.00  0.00    +0.000 C 
BRANCH  28  29
ATOM     29  C   UNL     1      -2.609  10.852  18.050  0.00  0.00    +0.000 A 
ATOM     30  C   UNL     1      -3.851  11.446  17.770  0.00  0.00    +0.000 A 
ATOM     31  C   UNL     1      -4.449  11.290  16.518  0.00  0.00    +0.000 A 
ATOM     32  C   UNL     1      -3.815  10.537  15.533  0.00  0.00    +0.000 A 
ATOM     33  C   UNL     1      -2.599   9.915  15.810  0.00  0.00    +0.000 A 
ATOM     34  C   UNL     1      -2.004  10.062  17.064  0.00  0.00    +0.000 A 
ENDBRANCH  28  29
ENDBRANCH  11  28
TORSDOF 5
ENDMDL
MODEL 8
REMARK VINA RESULT:      -8.0      4.050      7.421
REMARK  Name = 
REMARK  7 active torsions:
REMARK  status: ('A' for Active; 'I' for Inactive)
REMARK    1  A    between atoms: C_1  and  N_2
REMARK    2  A    between atoms: N_9  and  C_10
REMARK    3  A    between atoms: C_10  and  C_11
REMARK    4  A    between atoms: C_17  and  O_18
REMARK    5  A    between atoms: C_19  and  C_20
REMARK    6  A    between atoms: C_20  and  C_21
REMARK    7  A    between atoms: N_30  and  C_31
REMARK                            x       y       z     vdW  Elec       q    Type
REMARK                         _______ _______ _______ _____ _____    ______ ____
ROOT
ATOM      1  C   UNL     1      -1.172  15.301  24.241  0.00  0.00    +0.000 C 
ATOM      2  N   UNL     1      -1.888  14.571  23.208  0.00  0.00    +0.000 N 
ATOM      3  C   UNL     1      -1.142  13.763  22.353  0.00  0.00    +0.000 A 
ATOM      4  O   UNL     1       0.058  13.563  22.528  0.00  0.00    +0.000 OA
ATOM      5  C   UNL     1      -1.922  13.151  21.330  0.00  0.00    +0.000 A 
ATOM      6  C   UNL     1      -3.284  13.181  21.316  0.00  0.00    +0.000 A 
ATOM      7  N   UNL     1      -3.795  12.425  20.293  0.00  0.00    +0.000 NA
ATOM      8  C   UNL     1      -2.738  11.956  19.644  0.00  0.00    +0.000 A 
ATOM      9  N   UNL     1      -2.642  11.145  18.533  0.00  0.00    +0.000 N 
ATOM     10  C   UNL     1      -1.377  10.745  18.088  0.00  0.00    +0.000 A 
ATOM     11  C   UNL     1      -0.223  11.209  18.597  0.00  0.00    +0.000 A 
ATOM     12  C   UNL     1      -0.290  12.184  19.709  0.00  0.00    +0.000 A 
ATOM     13  O   UNL     1       0.683  12.757  20.156  0.00  0.00    +0.000 OA
ATOM     14  N   UNL     1      -1.562  12.425  20.220  0.00  0.00    +0.000 N 
ATOM     15  N   UNL     1      -3.984  13.891  22.273  0.00  0.00    +0.000 N 
ATOM     16  C   UNL     1      -5.429  13.944  22.330  0.00  0.00    +0.000 C 
ATOM     17  C   UNL     1      -3.285  14.626  23.242  0.00  0.00    +0.000 A 
ATOM     18  O   UNL     1      -3.877  15.284  24.104  0.00  0.00    +0.000 OA
ENDROOT
BRANCH  10  19
ATOM     19  O   UNL     1      -1.310   9.803  17.083  0.00  0.00    +0.000 OA
ATOM     20  H   UNL     1      -0.970  10.272  16.301  0.00  0.00    +0.000 HD
ENDBRANCH  10  19
BRANCH   9  21
ATOM     21  C   UNL     1      -3.893  10.534  18.025  0.00  0.00    +0.000 C 
BRANCH  21  22
ATOM     22  C   UNL     1      -5.111  11.448  18.073  0.00  0.00    +0.000 A 
ATOM     23  C   UNL     1      -5.303  12.430  17.081  0.00  0.00    +0.000 A 
ATOM     24  C   UNL     1      -6.506  13.142  16.994  0.00  0.00    +0.000 A 
ATOM     25  C   UNL     1      -7.537  12.887  17.895  0.00  0.00    +0.000 A 
ATOM     26  C   UNL     1      -7.353  11.942  18.900  0.00  0.00    +0.000 A 
ATOM     27  C   UNL     1      -6.151  11.231  18.988  0.00  0.00    +0.000 A 
ENDBRANCH  21  22
ENDBRANCH   9  21
BRANCH  11  28
ATOM     28  C   UNL     1       1.163  10.756  18.230  0.00  0.00    +0.000 C 
BRANCH  28  29
ATOM     29  C   UNL     1       1.535   9.365  18.694  0.00  0.00    +0.000 A 
ATOM     30  C   UNL     1       2.184   8.460  17.838  0.00  0.00    +0.000 A 
ATOM     31  C   UNL     1       2.625   7.223  18.311  0.00  0.00    +0.000 A 
ATOM     32  C   UNL     1       2.422   6.874  19.643  0.00  0.00    +0.000 A 
ATOM     33  C   UNL     1       1.749   7.748  20.495  0.00  0.00    +0.000 A 
ATOM     34  C   UNL     1       1.299   8.982  20.021  0.00  0.00    +0.000 A 
ENDBRANCH  28  29
ENDBRANCH  11  28
TORSDOF 5
ENDMDL
MODEL 9
REMARK VINA RESULT:      -8.0      4.079      8.036
REMARK  Name = 
REMARK  7 active torsions:
REMARK  status: ('A' for Active; 'I' for Inactive)
REMARK    1  A    between atoms: C_1  and  N_2
REMARK    2  A    between atoms: N_9  and  C_10
REMARK    3  A    between atoms: C_10  and  C_11
REMARK    4  A    between atoms: C_17  and  O_18
REMARK    5  A    between atoms: C_19  and  C_20
REMARK    6  A    between atoms: C_20  and  C_21
REMARK    7  A    between atoms: N_30  and  C_31
REMARK                            x       y       z     vdW  Elec       q    Type
REMARK                         _______ _______ _______ _____ _____    ______ ____
ROOT
ATOM      1  C   UNL     1      -1.876  15.223  24.990  0.00  0.00    +0.000 C 
ATOM      2  N   UNL     1      -0.841  15.415  23.989  0.00  0.00    +0.000 N 
ATOM      3  C   UNL     1      -0.828  14.549  22.898  0.00  0.00    +0.000 A 
ATOM      4  O   UNL     1      -1.723  13.729  22.708  0.00  0.00    +0.000 OA
ATOM      5  C   UNL     1       0.267  14.769  22.015  0.00  0.00    +0.000 A 
ATOM      6  C   UNL     1       1.093  15.849  22.110  0.00  0.00    +0.000 A 
ATOM      7  N   UNL     1       1.993  15.888  21.075  0.00  0.00    +0.000 NA
ATOM      8  C   UNL     1       1.747  14.801  20.357  0.00  0.00    +0.000 A 
ATOM      9  N   UNL     1       2.341  14.318  19.211  0.00  0.00    +0.000 N 
ATOM     10  C   UNL     1       1.833  13.158  18.615  0.00  0.00    +0.000 A 
ATOM     11  C   UNL     1       0.872  12.394  19.165  0.00  0.00    +0.000 A 
ATOM     12  C   UNL     1       0.302  12.814  20.464  0.00  0.00    +0.000 A 
ATOM     13  O   UNL     1      -0.476  12.135  21.104  0.00  0.00    +0.000 OA
ATOM     14  N   UNL     1       0.724  14.054  20.933  0.00  0.00    +0.000 N 
ATOM     15  N   UNL     1       0.950  16.757  23.141  0.00  0.00    +0.000 N 
ATOM     16  C   UNL     1       1.777  17.936  23.286  0.00  0.00    +0.000 C 
ATOM     17  C   UNL     1      -0.025  16.543  24.126  0.00  0.00    +0.000 A 
ATOM     18  O   UNL     1      -0.170  17.325  25.070  0.00  0.00    +0.000 OA
ENDROOT
BRANCH  10  19
ATOM     19  O   UNL     1       2.329  12.789  17.383  0.00  0.00    +0.000 OA
ATOM     20  H   UNL     1       1.617  12.285  16.950  0.00  0.00    +0.000 HD
ENDBRANCH  10  19
BRANCH   9  21
ATOM     21  C   UNL     1       3.321  15.196  18.529  0.00  0.00    +0.000 C 
BRANCH  21  22
ATOM     22  C   UNL     1       4.779  14.880  18.837  0.00  0.00    +0.000 A 
ATOM     23  C   UNL     1       5.678  14.588  17.792  0.00  0.00    +0.000 A 
ATOM     24  C   UNL     1       7.055  14.489  18.032  0.00  0.00    +0.000 A 
ATOM     25  C   UNL     1       7.557  14.681  19.318  0.00  0.00    +0.000 A 
ATOM     26  C   UNL     1       6.679  14.940  20.366  0.00  0.00    +0.000 A 
ATOM     27  C   UNL     1       5.304  15.038  20.127  0.00  0.00    +0.000 A 
ENDBRANCH  21  22
ENDBRANCH   9  21
BRANCH  11  28
ATOM     28  C   UNL     1       0.219  11.192  18.542  0.00  0.00    +0.000 C 
BRANCH  28  29
ATOM     29  C   UNL     1       0.917   9.873  18.789  0.00  0.00    +0.000 A 
ATOM     30  C   UNL     1       1.714   9.273  17.800  0.00  0.00    +0.000 A 
ATOM     31  C   UNL     1       2.445   8.116  18.079  0.00  0.00    +0.000 A 
ATOM     32  C   UNL     1       2.387   7.544  19.347  0.00  0.00    +0.000 A 
ATOM     33  C   UNL     1       1.573   8.110  20.327  0.00  0.00    +0.000 A 
ATOM     34  C   UNL     1       0.835   9.261  20.047  0.00  0.00    +0.000 A 
ENDBRANCH  28  29
ENDBRANCH  11  28
TORSDOF 5
ENDMDL
