MODEL 1
REMARK VINA RESULT:      -9.4      0.000      0.000
REMARK  Name = 
REMARK  3 active torsions:
REMARK  status: ('A' for Active; 'I' for Inactive)
REMARK    1  A    between atoms: C_2  and  C_14
REMARK    2  A    between atoms: N_16  and  C_17
REMARK    3  A    between atoms: C_24  and  C_25
REMARK                            x       y       z     vdW  Elec       q    Type
REMARK                         _______ _______ _______ _____ _____    ______ ____
ROOT
ATOM      1  C   UNL     1       3.495   6.723  17.410  0.00  0.00    +0.000 A 
ATOM      2  C   UNL     1       4.403   6.782  16.369  0.00  0.00    +0.000 A 
ATOM      3  N   UNL     1       4.819   5.497  16.108  0.00  0.00    +0.000 N 
ATOM      4  N   UNL     1       4.261   4.616  16.966  0.00  0.00    +0.000 NA
ATOM      5  C   UNL     1       3.477   5.339  17.782  0.00  0.00    +0.000 A 
ENDROOT
BRANCH   1   7
ATOM      6  O   UNL     1       2.530   8.845  17.302  0.00  0.00    +0.000 OA
ATOM      7  C   UNL     1       2.705   7.823  17.953  0.00  0.00    +0.000 C 
ATOM      8  N   UNL     1       2.239   7.615  19.235  0.00  0.00    +0.000 N 
ATOM      9  C   UNL     1       1.423   8.535  19.832  0.00  0.00    +0.000 A 
ATOM     10  N   UNL     1       0.811   9.542  19.278  0.00  0.00    +0.000 NA
ATOM     11  C   UNL     1       0.114  10.246  20.232  0.00  0.00    +0.000 A 
ATOM     12  C   UNL     1      -0.660  11.396  19.992  0.00  0.00    +0.000 A 
ATOM     13  C   UNL     1      -1.304  12.031  21.056  0.00  0.00    +0.000 A 
ATOM     14  C   UNL     1      -1.172  11.530  22.347  0.00  0.00    +0.000 A 
ATOM     15 CL   UNL     1      -1.966  12.335  23.646  0.00  0.00    +0.000 Cl
ATOM     16  C   UNL     1      -0.413  10.386  22.617  0.00  0.00    +0.000 A 
ATOM     17  C   UNL     1       0.214   9.748  21.534  0.00  0.00    +0.000 A 
ATOM     18  S   UNL     1       1.178   8.313  21.503  0.00  0.00    +0.000 S 
ATOM     19  H   UNL     1       2.517   6.820  19.782  0.00  0.00    +0.000 HD
ENDBRANCH   1   7
BRANCH   5  20
ATOM     20  C   UNL     1       2.742   4.672  18.869  0.00  0.00    +0.000 A 
ATOM     21  C   UNL     1       1.528   4.006  18.631  0.00  0.00    +0.000 A 
ATOM     22  C   UNL     1       0.860   3.343  19.664  0.00  0.00    +0.000 A 
ATOM     23  C   UNL     1       1.384   3.373  20.948  0.00  0.00    +0.000 A 
ATOM     24  F   UNL     1       0.743   2.739  21.938  0.00  0.00    +0.000 F 
ATOM     25  C   UNL     1       2.562   4.058  21.220  0.00  0.00    +0.000 A 
ATOM     26  C   UNL     1       3.240   4.707  20.182  0.00  0.00    +0.000 A 
ENDBRANCH   5  20
BRANCH   3  27
ATOM     27  C   UNL     1       5.698   5.069  15.073  0.00  0.00    +0.000 A 
ATOM     28  C   UNL     1       6.994   5.597  14.961  0.00  0.00    +0.000 A 
ATOM     29  C   UNL     1       7.838   5.173  13.931  0.00  0.00    +0.000 A 
ATOM     30  C   UNL     1       7.393   4.230  13.005  0.00  0.00    +0.000 A 
ATOM     31  C   UNL     1       6.109   3.703  13.111  0.00  0.00    +0.000 A 
ATOM     32  C   UNL     1       5.262   4.115  14.144  0.00  0.00    +0.000 A 
ENDBRANCH   3  27
TORSDOF 3
ENDMDL
MODEL 2
REMARK VINA RESULT:      -9.2      0.158      1.237
REMARK  Name = 
REMARK  3 active torsions:
REMARK  status: ('A' for Active; 'I' for Inactive)
REMARK    1  A    between atoms: C_2  and  C_14
REMARK    2  A    between atoms: N_16  and  C_17
REMARK    3  A    between atoms: C_24  and  C_25
REMARK                            x       y       z     vdW  Elec       q    Type
REMARK                         _______ _______ _______ _____ _____    ______ ____
ROOT
ATOM      1  C   UNL     1       3.574   6.650  17.371  0.00  0.00    +0.000 A 
ATOM      2  C   UNL     1       4.458   6.709  16.311  0.00  0.00    +0.000 A 
ATOM      3  N   UNL     1       4.841   5.421  16.017  0.00  0.00    +0.000 N 
ATOM      4  N   UNL     1       4.286   4.536  16.873  0.00  0.00    +0.000 NA
ATOM      5  C   UNL     1       3.536   5.261  17.720  0.00  0.00    +0.000 A 
ENDROOT
BRANCH   1   7
ATOM      6  O   UNL     1       2.754   8.836  17.377  0.00  0.00    +0.000 OA
ATOM      7  C   UNL     1       2.819   7.756  17.952  0.00  0.00    +0.000 C 
ATOM      8  N   UNL     1       2.253   7.482  19.180  0.00  0.00    +0.000 N 
ATOM      9  C   UNL     1       1.458   8.406  19.797  0.00  0.00    +0.000 A 
ATOM     10  N   UNL     1       0.950   9.493  19.290  0.00  0.00    +0.000 NA
ATOM     11  C   UNL     1       0.236  10.166  20.252  0.00  0.00    +0.000 A 
ATOM     12  C   UNL     1      -0.446  11.383  20.058  0.00  0.00    +0.000 A 
ATOM     13  C   UNL     1      -1.120  11.975  21.128  0.00  0.00    +0.000 A 
ATOM     14  C   UNL     1      -1.109  11.367  22.380  0.00  0.00    +0.000 A 
ATOM     15 CL   UNL     1      -1.939  12.121  23.688  0.00  0.00    +0.000 Cl
ATOM     16  C   UNL     1      -0.445  10.156  22.602  0.00  0.00    +0.000 A 
ATOM     17  C   UNL     1       0.213   9.563  21.513  0.00  0.00    +0.000 A 
ATOM     18  S   UNL     1       1.084   8.072  21.425  0.00  0.00    +0.000 S 
ATOM     19  H   UNL     1       2.442   6.629  19.676  0.00  0.00    +0.000 HD
ENDBRANCH   1   7
BRANCH   5  20
ATOM     20  C   UNL     1       2.812   4.590  18.812  0.00  0.00    +0.000 A 
ATOM     21  C   UNL     1       3.334   4.543  20.117  0.00  0.00    +0.000 A 
ATOM     22  C   UNL     1       2.618   3.939  21.153  0.00  0.00    +0.000 A 
ATOM     23  C   UNL     1       1.394   3.346  20.884  0.00  0.00    +0.000 A 
ATOM     24  F   UNL     1       0.708   2.765  21.878  0.00  0.00    +0.000 F 
ATOM     25  C   UNL     1       0.872   3.342  19.596  0.00  0.00    +0.000 A 
ATOM     26  C   UNL     1       1.580   3.964  18.562  0.00  0.00    +0.000 A 
ENDBRANCH   5  20
BRANCH   3  27
ATOM     27  C   UNL     1       5.687   4.994  14.955  0.00  0.00    +0.000 A 
ATOM     28  C   UNL     1       5.248   4.046  14.018  0.00  0.00    +0.000 A 
ATOM     29  C   UNL     1       6.098   3.631  12.989  0.00  0.00    +0.000 A 
ATOM     30  C   UNL     1       7.388   4.150  12.894  0.00  0.00    +0.000 A 
ATOM     31  C   UNL     1       7.829   5.091  13.820  0.00  0.00    +0.000 A 
ATOM     32  C   UNL     1       6.983   5.519  14.847  0.00  0.00    +0.000 A 
ENDBRANCH   3  27
TORSDOF 3
ENDMDL
MODEL 3
REMARK VINA RESULT:      -8.6      5.196      6.482
REMARK  Name = 
REMARK  3 active torsions:
REMARK  status: ('A' for Active; 'I' for Inactive)
REMARK    1  A    between atoms: C_2  and  C_14
REMARK    2  A    between atoms: N_16  and  C_17
REMARK    3  A    between atoms: C_24  and  C_25
REMARK                            x       y       z     vdW  Elec       q    Type
REMARK                         _______ _______ _______ _____ _____    ______ ____
ROOT
ATOM      1  C   UNL     1       6.736   6.415  16.792  0.00  0.00    +0.000 A 
ATOM      2  C   UNL     1       7.235   5.801  15.659  0.00  0.00    +0.000 A 
ATOM      3  N   UNL     1       6.199   5.118  15.066  0.00  0.00    +0.000 N 
ATOM      4  N   UNL     1       5.065   5.219  15.792  0.00  0.00    +0.000 NA
ATOM      5  C   UNL     1       5.373   5.977  16.857  0.00  0.00    +0.000 A 
ENDROOT
BRANCH   1   7
ATOM      6  O   UNL     1       7.907   6.950  18.740  0.00  0.00    +0.000 OA
ATOM      7  C   UNL     1       7.439   7.339  17.677  0.00  0.00    +0.000 C 
ATOM      8  N   UNL     1       7.476   8.644  17.231  0.00  0.00    +0.000 N 
ATOM      9  C   UNL     1       8.168   9.595  17.928  0.00  0.00    +0.000 A 
ATOM     10  N   UNL     1       9.020   9.416  18.896  0.00  0.00    +0.000 NA
ATOM     11  C   UNL     1       9.469  10.633  19.351  0.00  0.00    +0.000 A 
ATOM     12  C   UNL     1      10.396  10.821  20.393  0.00  0.00    +0.000 A 
ATOM     13  C   UNL     1      10.755  12.116  20.774  0.00  0.00    +0.000 A 
ATOM     14  C   UNL     1      10.191  13.212  20.130  0.00  0.00    +0.000 A 
ATOM     15 CL   UNL     1      10.640  14.800  20.623  0.00  0.00    +0.000 Cl
ATOM     16  C   UNL     1       9.270  13.057  19.087  0.00  0.00    +0.000 A 
ATOM     17  C   UNL     1       8.933  11.750  18.703  0.00  0.00    +0.000 A 
ATOM     18  S   UNL     1       7.877  11.203  17.448  0.00  0.00    +0.000 S 
ATOM     19  H   UNL     1       6.965   8.946  16.420  0.00  0.00    +0.000 HD
ENDBRANCH   1   7
BRANCH   5  20
ATOM     20  C   UNL     1       4.350   6.254  17.878  0.00  0.00    +0.000 A 
ATOM     21  C   UNL     1       3.478   7.351  17.764  0.00  0.00    +0.000 A 
ATOM     22  C   UNL     1       2.485   7.579  18.719  0.00  0.00    +0.000 A 
ATOM     23  C   UNL     1       2.380   6.733  19.813  0.00  0.00    +0.000 A 
ATOM     24  F   UNL     1       1.428   6.953  20.730  0.00  0.00    +0.000 F 
ATOM     25  C   UNL     1       3.253   5.664  19.973  0.00  0.00    +0.000 A 
ATOM     26  C   UNL     1       4.237   5.425  19.007  0.00  0.00    +0.000 A 
ENDBRANCH   5  20
BRANCH   3  27
ATOM     27  C   UNL     1       6.232   4.398  13.838  0.00  0.00    +0.000 A 
ATOM     28  C   UNL     1       5.142   3.615  13.430  0.00  0.00    +0.000 A 
ATOM     29  C   UNL     1       5.198   2.906  12.227  0.00  0.00    +0.000 A 
ATOM     30  C   UNL     1       6.341   2.968  11.432  0.00  0.00    +0.000 A 
ATOM     31  C   UNL     1       7.426   3.743  11.831  0.00  0.00    +0.000 A 
ATOM     32  C   UNL     1       7.375   4.462  13.028  0.00  0.00    +0.000 A 
ENDBRANCH   3  27
TORSDOF 3
ENDMDL
MODEL 4
REMARK VINA RESULT:      -8.5      1.496      2.108
REMARK  Name = 
REMARK  3 active torsions:
REMARK  status: ('A' for Active; 'I' for Inactive)
REMARK    1  A    between atoms: C_2  and  C_14
REMARK    2  A    between atoms: N_16  and  C_17
REMARK    3  A    between atoms: C_24  and  C_25
REMARK                            x       y       z     vdW  Elec       q    Type
REMARK                         _______ _______ _______ _____ _____    ______ ____
ROOT
ATOM      1  C   UNL     1       3.335   6.300  18.341  0.00  0.00    +0.000 A 
ATOM      2  C   UNL     1       4.161   6.523  17.255  0.00  0.00    +0.000 A 
ATOM      3  N   UNL     1       4.585   5.298  16.797  0.00  0.00    +0.000 N 
ATOM      4  N   UNL     1       4.114   4.295  17.569  0.00  0.00    +0.000 NA
ATOM      5  C   UNL     1       3.376   4.880  18.527  0.00  0.00    +0.000 A 
ENDROOT
BRANCH   1   7
ATOM      6  O   UNL     1       2.526   7.269  20.304  0.00  0.00    +0.000 OA
ATOM      7  C   UNL     1       2.562   7.293  19.080  0.00  0.00    +0.000 C 
ATOM      8  N   UNL     1       1.874   8.189  18.289  0.00  0.00    +0.000 N 
ATOM      9  C   UNL     1       1.172   9.216  18.856  0.00  0.00    +0.000 A 
ATOM     10  N   UNL     1       1.218   9.633  20.089  0.00  0.00    +0.000 NA
ATOM     11  C   UNL     1       0.332  10.670  20.263  0.00  0.00    +0.000 A 
ATOM     12  C   UNL     1       0.114  11.360  21.470  0.00  0.00    +0.000 A 
ATOM     13  C   UNL     1      -0.833  12.385  21.518  0.00  0.00    +0.000 A 
ATOM     14  C   UNL     1      -1.560  12.715  20.379  0.00  0.00    +0.000 A 
ATOM     15 CL   UNL     1      -2.731  13.976  20.464  0.00  0.00    +0.000 Cl
ATOM     16  C   UNL     1      -1.362  12.050  19.164  0.00  0.00    +0.000 A 
ATOM     17  C   UNL     1      -0.395  11.033  19.126  0.00  0.00    +0.000 A 
ATOM     18  S   UNL     1       0.126  10.051  17.802  0.00  0.00    +0.000 S 
ATOM     19  H   UNL     1       1.824   8.092  17.290  0.00  0.00    +0.000 HD
ENDBRANCH   1   7
BRANCH   5  20
ATOM     20  C   UNL     1       2.740   4.054  19.566  0.00  0.00    +0.000 A 
ATOM     21  C   UNL     1       3.505   3.304  20.477  0.00  0.00    +0.000 A 
ATOM     22  C   UNL     1       2.889   2.556  21.484  0.00  0.00    +0.000 A 
ATOM     23  C   UNL     1       1.505   2.525  21.564  0.00  0.00    +0.000 A 
ATOM     24  F   UNL     1       0.915   1.806  22.528  0.00  0.00    +0.000 F 
ATOM     25  C   UNL     1       0.723   3.224  20.653  0.00  0.00    +0.000 A 
ATOM     26  C   UNL     1       1.340   3.988  19.655  0.00  0.00    +0.000 A 
ENDBRANCH   5  20
BRANCH   3  27
ATOM     27  C   UNL     1       5.393   5.037  15.654  0.00  0.00    +0.000 A 
ATOM     28  C   UNL     1       4.893   4.304  14.567  0.00  0.00    +0.000 A 
ATOM     29  C   UNL     1       5.706   4.049  13.460  0.00  0.00    +0.000 A 
ATOM     30  C   UNL     1       7.020   4.514  13.434  0.00  0.00    +0.000 A 
ATOM     31  C   UNL     1       7.522   5.242  14.510  0.00  0.00    +0.000 A 
ATOM     32  C   UNL     1       6.713   5.509  15.617  0.00  0.00    +0.000 A 
ENDBRANCH   3  27
TORSDOF 3
ENDMDL
MODEL 5
REMARK VINA RESULT:      -8.4      4.431     10.580
REMARK  Name = 
REMARK  3 active torsions:
REMARK  status: ('A' for Active; 'I' for Inactive)
REMARK    1  A    between atoms: C_2  and  C_14
REMARK    2  A    between atoms: N_16  and  C_17
REMARK    3  A    between atoms: C_24  and  C_25
REMARK                            x       y       z     vdW  Elec       q    Type
REMARK                         _______ _______ _______ _____ _____    ______ ____
ROOT
ATOM      1  C   UNL     1       0.002  11.050  21.574  0.00  0.00    +0.000 A 
ATOM      2  C   UNL     1      -1.142  11.123  22.345  0.00  0.00    +0.000 A 
ATOM      3  N   UNL     1      -1.641  12.400  22.229  0.00  0.00    +0.000 N 
ATOM      4  N   UNL     1      -0.843  13.171  21.460  0.00  0.00    +0.000 NA
ATOM      5  C   UNL     1       0.174  12.382  21.074  0.00  0.00    +0.000 A 
ENDROOT
BRANCH   1   7
ATOM      6  O   UNL     1       1.258   9.191  22.218  0.00  0.00    +0.000 OA
ATOM      7  C   UNL     1       0.806   9.864  21.299  0.00  0.00    +0.000 C 
ATOM      8  N   UNL     1       1.031   9.621  19.960  0.00  0.00    +0.000 N 
ATOM      9  C   UNL     1       1.706   8.500  19.564  0.00  0.00    +0.000 A 
ATOM     10  N   UNL     1       2.013   7.455  20.279  0.00  0.00    +0.000 NA
ATOM     11  C   UNL     1       2.724   6.561  19.514  0.00  0.00    +0.000 A 
ATOM     12  C   UNL     1       3.222   5.323  19.961  0.00  0.00    +0.000 A 
ATOM     13  C   UNL     1       3.949   4.513  19.086  0.00  0.00    +0.000 A 
ATOM     14  C   UNL     1       4.184   4.935  17.781  0.00  0.00    +0.000 A 
ATOM     15 CL   UNL     1       5.092   3.925  16.722  0.00  0.00    +0.000 Cl
ATOM     16  C   UNL     1       3.698   6.158  17.306  0.00  0.00    +0.000 A 
ATOM     17  C   UNL     1       2.954   6.953  18.192  0.00  0.00    +0.000 A 
ATOM     18  S   UNL     1       2.183   8.478  17.929  0.00  0.00    +0.000 S 
ATOM     19  H   UNL     1       0.755  10.270  19.245  0.00  0.00    +0.000 HD
ENDBRANCH   1   7
BRANCH   5  20
ATOM     20  C   UNL     1       1.253  12.936  20.240  0.00  0.00    +0.000 A 
ATOM     21  C   UNL     1       2.321  13.653  20.805  0.00  0.00    +0.000 A 
ATOM     22  C   UNL     1       3.359  14.139  20.006  0.00  0.00    +0.000 A 
ATOM     23  C   UNL     1       3.317  13.942  18.633  0.00  0.00    +0.000 A 
ATOM     24  F   UNL     1       4.312  14.410  17.868  0.00  0.00    +0.000 F 
ATOM     25  C   UNL     1       2.253  13.271  18.043  0.00  0.00    +0.000 A 
ATOM     26  C   UNL     1       1.222  12.769  18.845  0.00  0.00    +0.000 A 
ENDBRANCH   5  20
BRANCH   3  27
ATOM     27  C   UNL     1      -2.845  12.910  22.793  0.00  0.00    +0.000 A 
ATOM     28  C   UNL     1      -3.484  12.247  23.853  0.00  0.00    +0.000 A 
ATOM     29  C   UNL     1      -4.671  12.758  24.385  0.00  0.00    +0.000 A 
ATOM     30  C   UNL     1      -5.229  13.922  23.861  0.00  0.00    +0.000 A 
ATOM     31  C   UNL     1      -4.599  14.584  22.811  0.00  0.00    +0.000 A 
ATOM     32  C   UNL     1      -3.407  14.086  22.278  0.00  0.00    +0.000 A 
ENDBRANCH   3  27
TORSDOF 3
ENDMDL
MODEL 6
REMARK VINA RESULT:      -8.4      4.417     10.491
REMARK  Name = 
REMARK  3 active torsions:
REMARK  status: ('A' for Active; 'I' for Inactive)
REMARK    1  A    between atoms: C_2  and  C_14
REMARK    2  A    between atoms: N_16  and  C_17
REMARK    3  A    between atoms: C_24  and  C_25
REMARK                            x       y       z     vdW  Elec       q    Type
REMARK                         _______ _______ _______ _____ _____    ______ ____
ROOT
ATOM      1  C   UNL     1      -0.016  10.818  21.455  0.00  0.00    +0.000 A 
ATOM      2  C   UNL     1      -1.176  10.808  22.207  0.00  0.00    +0.000 A 
ATOM      3  N   UNL     1      -1.740  12.060  22.118  0.00  0.00    +0.000 N 
ATOM      4  N   UNL     1      -0.971  12.894  21.386  0.00  0.00    +0.000 NA
ATOM      5  C   UNL     1       0.093  12.172  20.997  0.00  0.00    +0.000 A 
ENDROOT
BRANCH   1   7
ATOM      6  O   UNL     1       1.341   9.022  22.070  0.00  0.00    +0.000 OA
ATOM      7  C   UNL     1       0.854   9.684  21.162  0.00  0.00    +0.000 C 
ATOM      8  N   UNL     1       1.096   9.478  19.820  0.00  0.00    +0.000 N 
ATOM      9  C   UNL     1       1.833   8.405  19.406  0.00  0.00    +0.000 A 
ATOM     10  N   UNL     1       2.197   7.366  20.103  0.00  0.00    +0.000 NA
ATOM     11  C   UNL     1       2.959   6.527  19.324  0.00  0.00    +0.000 A 
ATOM     12  C   UNL     1       3.525   5.311  19.751  0.00  0.00    +0.000 A 
ATOM     13  C   UNL     1       4.299   4.560  18.864  0.00  0.00    +0.000 A 
ATOM     14  C   UNL     1       4.513   5.018  17.568  0.00  0.00    +0.000 A 
ATOM     15 CL   UNL     1       5.480   4.080  16.494  0.00  0.00    +0.000 Cl
ATOM     16  C   UNL     1       3.960   6.221  17.113  0.00  0.00    +0.000 A 
ATOM     17  C   UNL     1       3.170   6.956  18.011  0.00  0.00    +0.000 A 
ATOM     18  S   UNL     1       2.315   8.440  17.773  0.00  0.00    +0.000 S 
ATOM     19  H   UNL     1       0.785  10.125  19.116  0.00  0.00    +0.000 HD
ENDBRANCH   1   7
BRANCH   5  20
ATOM     20  C   UNL     1       1.155  12.806  20.199  0.00  0.00    +0.000 A 
ATOM     21  C   UNL     1       1.170  12.718  18.797  0.00  0.00    +0.000 A 
ATOM     22  C   UNL     1       2.162  13.358  18.050  0.00  0.00    +0.000 A 
ATOM     23  C   UNL     1       3.165  14.060  18.702  0.00  0.00    +0.000 A 
ATOM     24  F   UNL     1       4.116  14.673  17.985  0.00  0.00    +0.000 F 
ATOM     25  C   UNL     1       3.198  14.131  20.089  0.00  0.00    +0.000 A 
ATOM     26  C   UNL     1       2.194  13.504  20.837  0.00  0.00    +0.000 A 
ENDBRANCH   5  20
BRANCH   3  27
ATOM     27  C   UNL     1      -2.978  12.489  22.673  0.00  0.00    +0.000 A 
ATOM     28  C   UNL     1      -3.904  13.212  21.905  0.00  0.00    +0.000 A 
ATOM     29  C   UNL     1      -5.109  13.634  22.472  0.00  0.00    +0.000 A 
ATOM     30  C   UNL     1      -5.393  13.348  23.806  0.00  0.00    +0.000 A 
ATOM     31  C   UNL     1      -4.479  12.631  24.574  0.00  0.00    +0.000 A 
ATOM     32  C   UNL     1      -3.275  12.197  24.012  0.00  0.00    +0.000 A 
ENDBRANCH   3  27
TORSDOF 3
ENDMDL
MODEL 7
REMARK VINA RESULT:      -8.3      1.508      1.781
REMARK  Name = 
REMARK  3 active torsions:
REMARK  status: ('A' for Active; 'I' for Inactive)
REMARK    1  A    between atoms: C_2  and  C_14
REMARK    2  A    between atoms: N_16  and  C_17
REMARK    3  A    between atoms: C_24  and  C_25
REMARK                            x       y       z     vdW  Elec       q    Type
REMARK                         _______ _______ _______ _____ _____    ______ ____
ROOT
ATOM      1  C   UNL     1       3.327   6.333  18.370  0.00  0.00    +0.000 A 
ATOM      2  C   UNL     1       4.159   6.549  17.288  0.00  0.00    +0.000 A 
ATOM      3  N   UNL     1       4.583   5.320  16.839  0.00  0.00    +0.000 N 
ATOM      4  N   UNL     1       4.106   4.322  17.614  0.00  0.00    +0.000 NA
ATOM      5  C   UNL     1       3.364   4.914  18.565  0.00  0.00    +0.000 A 
ENDROOT
BRANCH   1   7
ATOM      6  O   UNL     1       2.530   7.331  20.324  0.00  0.00    +0.000 OA
ATOM      7  C   UNL     1       2.552   7.333  19.099  0.00  0.00    +0.000 C 
ATOM      8  N   UNL     1       1.845   8.206  18.299  0.00  0.00    +0.000 N 
ATOM      9  C   UNL     1       1.139   9.236  18.855  0.00  0.00    +0.000 A 
ATOM     10  N   UNL     1       1.194   9.677  20.079  0.00  0.00    +0.000 NA
ATOM     11  C   UNL     1       0.299  10.707  20.244  0.00  0.00    +0.000 A 
ATOM     12  C   UNL     1       0.088  11.418  21.440  0.00  0.00    +0.000 A 
ATOM     13  C   UNL     1      -0.870  12.435  21.479  0.00  0.00    +0.000 A 
ATOM     14  C   UNL     1      -1.614  12.734  20.343  0.00  0.00    +0.000 A 
ATOM     15 CL   UNL     1      -2.797  13.984  20.418  0.00  0.00    +0.000 Cl
ATOM     16  C   UNL     1      -1.422  12.048  19.138  0.00  0.00    +0.000 A 
ATOM     17  C   UNL     1      -0.444  11.041  19.109  0.00  0.00    +0.000 A 
ATOM     18  S   UNL     1       0.072  10.039  17.798  0.00  0.00    +0.000 S 
ATOM     19  H   UNL     1       1.785   8.089  17.303  0.00  0.00    +0.000 HD
ENDBRANCH   1   7
BRANCH   5  20
ATOM     20  C   UNL     1       2.721   4.096  19.605  0.00  0.00    +0.000 A 
ATOM     21  C   UNL     1       1.322   4.014  19.712  0.00  0.00    +0.000 A 
ATOM     22  C   UNL     1       0.724   3.202  20.679  0.00  0.00    +0.000 A 
ATOM     23  C   UNL     1       1.520   2.494  21.567  0.00  0.00    +0.000 A 
ATOM     24  F   UNL     1       0.947   1.717  22.494  0.00  0.00    +0.000 F 
ATOM     25  C   UNL     1       2.906   2.587  21.510  0.00  0.00    +0.000 A 
ATOM     26  C   UNL     1       3.505   3.387  20.530  0.00  0.00    +0.000 A 
ENDBRANCH   5  20
BRANCH   3  27
ATOM     27  C   UNL     1       5.398   5.051  15.702  0.00  0.00    +0.000 A 
ATOM     28  C   UNL     1       6.709   5.544  15.620  0.00  0.00    +0.000 A 
ATOM     29  C   UNL     1       7.488   5.279  14.491  0.00  0.00    +0.000 A 
ATOM     30  C   UNL     1       6.964   4.531  13.438  0.00  0.00    +0.000 A 
ATOM     31  C   UNL     1       5.664   4.039  13.514  0.00  0.00    +0.000 A 
ATOM     32  C   UNL     1       4.880   4.292  14.644  0.00  0.00    +0.000 A 
ENDBRANCH   3  27
TORSDOF 3
ENDMDL
MODEL 8
REMARK VINA RESULT:      -8.2      4.752      9.837
REMARK  Name = 
REMARK  3 active torsions:
REMARK  status: ('A' for Active; 'I' for Inactive)
REMARK    1  A    between atoms: C_2  and  C_14
REMARK    2  A    between atoms: N_16  and  C_17
REMARK    3  A    between atoms: C_24  and  C_25
REMARK                            x       y       z     vdW  Elec       q    Type
REMARK                         _______ _______ _______ _____ _____    ______ ____
ROOT
ATOM      1  C   UNL     1       0.258  13.015  19.831  0.00  0.00    +0.000 A 
ATOM      2  C   UNL     1       0.791  13.873  18.888  0.00  0.00    +0.000 A 
ATOM      3  N   UNL     1       0.161  15.088  19.028  0.00  0.00    +0.000 N 
ATOM      4  N   UNL     1      -0.792  15.039  19.984  0.00  0.00    +0.000 NA
ATOM      5  C   UNL     1      -0.771  13.785  20.465  0.00  0.00    +0.000 A 
ENDROOT
BRANCH   1   7
ATOM      6  O   UNL     1       0.753  11.263  21.292  0.00  0.00    +0.000 OA
ATOM      7  C   UNL     1       0.695  11.655  20.133  0.00  0.00    +0.000 C 
ATOM      8  N   UNL     1       1.063  10.913  19.031  0.00  0.00    +0.000 N 
ATOM      9  C   UNL     1       1.420   9.600  19.167  0.00  0.00    +0.000 A 
ATOM     10  N   UNL     1       1.263   8.833  20.208  0.00  0.00    +0.000 NA
ATOM     11  C   UNL     1       1.788   7.588  19.950  0.00  0.00    +0.000 A 
ATOM     12  C   UNL     1       1.797   6.506  20.851  0.00  0.00    +0.000 A 
ATOM     13  C   UNL     1       2.382   5.296  20.471  0.00  0.00    +0.000 A 
ATOM     14  C   UNL     1       2.957   5.166  19.211  0.00  0.00    +0.000 A 
ATOM     15 CL   UNL     1       3.681   3.668  18.767  0.00  0.00    +0.000 Cl
ATOM     16  C   UNL     1       2.958   6.222  18.292  0.00  0.00    +0.000 A 
ATOM     17  C   UNL     1       2.352   7.427  18.682  0.00  0.00    +0.000 A 
ATOM     18  S   UNL     1       2.143   8.896  17.796  0.00  0.00    +0.000 S 
ATOM     19  H   UNL     1       1.127  11.315  18.112  0.00  0.00    +0.000 HD
ENDBRANCH   1   7
BRANCH   5  20
ATOM     20  C   UNL     1      -1.726  13.388  21.512  0.00  0.00    +0.000 A 
ATOM     21  C   UNL     1      -3.032  12.977  21.195  0.00  0.00    +0.000 A 
ATOM     22  C   UNL     1      -3.916  12.564  22.196  0.00  0.00    +0.000 A 
ATOM     23  C   UNL     1      -3.510  12.594  23.522  0.00  0.00    +0.000 A 
ATOM     24  F   UNL     1      -4.358  12.199  24.481  0.00  0.00    +0.000 F 
ATOM     25  C   UNL     1      -2.238  13.032  23.868  0.00  0.00    +0.000 A 
ATOM     26  C   UNL     1      -1.347  13.429  22.864  0.00  0.00    +0.000 A 
ENDBRANCH   5  20
BRANCH   3  27
ATOM     27  C   UNL     1       0.437  16.289  18.317  0.00  0.00    +0.000 A 
ATOM     28  C   UNL     1      -0.592  17.183  17.980  0.00  0.00    +0.000 A 
ATOM     29  C   UNL     1      -0.302  18.351  17.271  0.00  0.00    +0.000 A 
ATOM     30  C   UNL     1       1.008  18.631  16.888  0.00  0.00    +0.000 A 
ATOM     31  C   UNL     1       2.033  17.749  17.219  0.00  0.00    +0.000 A 
ATOM     32  C   UNL     1       1.754  16.582  17.936  0.00  0.00    +0.000 A 
ENDBRANCH   3  27
TORSDOF 3
ENDMDL
MODEL 9
REMARK VINA RESULT:      -8.2      4.725      9.818
REMARK  Name = 
REMARK  3 active torsions:
REMARK  status: ('A' for Active; 'I' for Inactive)
REMARK    1  A    between atoms: C_2  and  C_14
REMARK    2  A    between atoms: N_16  and  C_17
REMARK    3  A    between atoms: C_24  and  C_25
REMARK                            x       y       z     vdW  Elec       q    Type
REMARK                         _______ _______ _______ _____ _____    ______ ____
ROOT
ATOM      1  C   UNL     1       0.326  12.933  19.814  0.00  0.00    +0.000 A 
ATOM      2  C   UNL     1       0.863  13.806  18.886  0.00  0.00    +0.000 A 
ATOM      3  N   UNL     1       0.219  15.013  19.032  0.00  0.00    +0.000 N 
ATOM      4  N   UNL     1      -0.745  14.945  19.975  0.00  0.00    +0.000 NA
ATOM      5  C   UNL     1      -0.717  13.687  20.443  0.00  0.00    +0.000 A 
ENDROOT
BRANCH   1   7
ATOM      6  O   UNL     1       0.894  11.196  21.266  0.00  0.00    +0.000 OA
ATOM      7  C   UNL     1       0.773  11.575  20.108  0.00  0.00    +0.000 C 
ATOM      8  N   UNL     1       1.074  10.817  18.996  0.00  0.00    +0.000 N 
ATOM      9  C   UNL     1       1.431   9.504  19.128  0.00  0.00    +0.000 A 
ATOM     10  N   UNL     1       1.330   8.750  20.185  0.00  0.00    +0.000 NA
ATOM     11  C   UNL     1       1.832   7.499  19.913  0.00  0.00    +0.000 A 
ATOM     12  C   UNL     1       1.888   6.428  20.825  0.00  0.00    +0.000 A 
ATOM     13  C   UNL     1       2.443   5.210  20.428  0.00  0.00    +0.000 A 
ATOM     14  C   UNL     1       2.945   5.062  19.139  0.00  0.00    +0.000 A 
ATOM     15 CL   UNL     1       3.636   3.554  18.674  0.00  0.00    +0.000 Cl
ATOM     16  C   UNL     1       2.900   6.106  18.209  0.00  0.00    +0.000 A 
ATOM     17  C   UNL     1       2.323   7.319  18.617  0.00  0.00    +0.000 A 
ATOM     18  S   UNL     1       2.072   8.779  17.726  0.00  0.00    +0.000 S 
ATOM     19  H   UNL     1       1.088  11.208  18.070  0.00  0.00    +0.000 HD
ENDBRANCH   1   7
BRANCH   5  20
ATOM     20  C   UNL     1      -1.681  13.270  21.475  0.00  0.00    +0.000 A 
ATOM     21  C   UNL     1      -1.291  13.093  22.813  0.00  0.00    +0.000 A 
ATOM     22  C   UNL     1      -2.224  12.736  23.790  0.00  0.00    +0.000 A 
ATOM     23  C   UNL     1      -3.545  12.518  23.428  0.00  0.00    +0.000 A 
ATOM     24  F   UNL     1      -4.439  12.174  24.364  0.00  0.00    +0.000 F 
ATOM     25  C   UNL     1      -3.951  12.647  22.105  0.00  0.00    +0.000 A 
ATOM     26  C   UNL     1      -3.020  13.022  21.130  0.00  0.00    +0.000 A 
ENDBRANCH   5  20
BRANCH   3  27
ATOM     27  C   UNL     1       0.492  16.224  18.335  0.00  0.00    +0.000 A 
ATOM     28  C   UNL     1       1.810  16.610  18.044  0.00  0.00    +0.000 A 
ATOM     29  C   UNL     1       2.057  17.808  17.370  0.00  0.00    +0.000 A 
ATOM     30  C   UNL     1       0.998  18.631  16.992  0.00  0.00    +0.000 A 
ATOM     31  C   UNL     1      -0.312  18.254  17.278  0.00  0.00    +0.000 A 
ATOM     32  C   UNL     1      -0.569  17.052  17.944  0.00  0.00    +0.000 A 
ENDBRANCH   3  27
TORSDOF 3
ENDMDL
