MODEL 1
REMARK VINA RESULT:      -7.8      0.000      0.000
REMARK  Name = 
REMARK  4 active torsions:
REMARK  status: ('A' for Active; 'I' for Inactive)
REMARK    1  A    between atoms: C_1  and  C_2
REMARK    2  A    between atoms: C_5  and  C_6
REMARK    3  A    between atoms: C_13  and  C_14
REMARK    4  A    between atoms: C_16  and  N_17
REMARK                            x       y       z     vdW  Elec       q    Type
REMARK                         _______ _______ _______ _____ _____    ______ ____
ROOT
ATOM      1  C   UNL     1      -3.456  12.475  20.538  0.00  0.00    +0.000 C 
ATOM      2  C   UNL     1      -4.504  12.711  19.368  0.00  0.00    +0.000 C 
ATOM      3  C   UNL     1      -6.010  12.858  19.764  0.00  0.00    +0.000 C 
ATOM      4  C   UNL     1      -6.810  11.561  19.673  0.00  0.00    +0.000 C 
ATOM      5  C   UNL     1      -6.799  11.051  18.243  0.00  0.00    +0.000 C 
ATOM      6  C   UNL     1      -5.391  10.971  17.754  0.00  0.00    +0.000 C 
ATOM      7  C   UNL     1      -4.363  11.669  18.288  0.00  0.00    +0.000 C 
ATOM      8  C   UNL     1      -3.025  11.510  17.801  0.00  0.00    +0.000 C 
ATOM      9  C   UNL     1      -1.911  11.893  18.480  0.00  0.00    +0.000 C 
ATOM     10  C   UNL     1      -1.894  12.661  20.097  0.00  0.00    +0.000 C 
ATOM     11  C   UNL     1      -1.309  12.493  21.816  0.00  0.00    +0.000 C 
ATOM     12  O   UNL     1      -1.442  13.246  22.766  0.00  0.00    +0.000 OA
ATOM     13  C   UNL     1      -0.486  11.290  22.019  0.00  0.00    +0.000 A 
ATOM     14  C   UNL     1      -0.292  10.485  23.118  0.00  0.00    +0.000 A 
ATOM     15  C   UNL     1      -0.263   9.116  22.861  0.00  0.00    +0.000 A 
ATOM     16  C   UNL     1      -0.473   8.643  21.549  0.00  0.00    +0.000 A 
ATOM     17  C   UNL     1      -0.475   9.524  20.466  0.00  0.00    +0.000 A 
ATOM     18  C   UNL     1      -0.307  10.854  20.756  0.00  0.00    +0.000 A 
ATOM     19  C   UNL     1      -0.473  12.083  20.018  0.00  0.00    +0.000 C 
ATOM     20  O   UNL     1       0.509  12.741  19.656  0.00  0.00    +0.000 OA
ENDROOT
BRANCH   1  25
ATOM     21  C   UNL     1      -5.495  16.388  24.437  0.00  0.00    +0.000 C 
ATOM     22  C   UNL     1      -4.856  15.393  23.514  0.00  0.00    +0.000 A 
ATOM     23  C   UNL     1      -4.192  15.805  22.354  0.00  0.00    +0.000 A 
ATOM     24  C   UNL     1      -3.688  14.871  21.439  0.00  0.00    +0.000 A 
ATOM     25  C   UNL     1      -3.864  13.488  21.649  0.00  0.00    +0.000 A 
ATOM     26  C   UNL     1      -4.489  13.077  22.839  0.00  0.00    +0.000 A 
ATOM     27  C   UNL     1      -4.983  14.019  23.754  0.00  0.00    +0.000 A 
ENDBRANCH   1  25
BRANCH   9  28
ATOM     28  N   UNL     1      -0.691  11.629  17.774  0.00  0.00    +0.000 N 
ATOM     29  H   UNL     1       0.136  11.295  18.265  0.00  0.00    +0.000 HD
ATOM     30  H   UNL     1      -0.792  11.184  16.852  0.00  0.00    +0.000 HD
ENDBRANCH   9  28
BRANCH   8  31
ATOM     31  C   UNL     1      -2.908  11.001  16.466  0.00  0.00    +0.000 C 
ATOM     32  N   UNL     1      -2.752  10.577  15.401  0.00  0.00    +0.000 NA
ENDBRANCH   8  31
TORSDOF 3
ENDMDL
MODEL 2
REMARK VINA RESULT:      -7.3      0.523      1.021
REMARK  Name = 
REMARK  4 active torsions:
REMARK  status: ('A' for Active; 'I' for Inactive)
REMARK    1  A    between atoms: C_1  and  C_2
REMARK    2  A    between atoms: C_5  and  C_6
REMARK    3  A    between atoms: C_13  and  C_14
REMARK    4  A    between atoms: C_16  and  N_17
REMARK                            x       y       z     vdW  Elec       q    Type
REMARK                         _______ _______ _______ _____ _____    ______ ____
ROOT
ATOM      1  C   UNL     1      -3.441  12.355  20.554  0.00  0.00    +0.000 C 
ATOM      2  C   UNL     1      -4.613  12.539  19.499  0.00  0.00    +0.000 C 
ATOM      3  C   UNL     1      -6.067  12.707  20.054  0.00  0.00    +0.000 C 
ATOM      4  C   UNL     1      -6.867  11.409  20.115  0.00  0.00    +0.000 C 
ATOM      5  C   UNL     1      -7.015  10.832  18.718  0.00  0.00    +0.000 C 
ATOM      6  C   UNL     1      -5.671  10.727  18.079  0.00  0.00    +0.000 C 
ATOM      7  C   UNL     1      -4.591  11.447  18.460  0.00  0.00    +0.000 C 
ATOM      8  C   UNL     1      -3.316  11.262  17.835  0.00  0.00    +0.000 C 
ATOM      9  C   UNL     1      -2.135  11.674  18.366  0.00  0.00    +0.000 C 
ATOM     10  C   UNL     1      -1.938  12.518  19.933  0.00  0.00    +0.000 C 
ATOM     11  C   UNL     1      -1.163  12.429  21.581  0.00  0.00    +0.000 C 
ATOM     12  O   UNL     1      -1.192  13.227  22.504  0.00  0.00    +0.000 OA
ATOM     13  C   UNL     1      -0.319  11.236  21.747  0.00  0.00    +0.000 A 
ATOM     14  C   UNL     1      -0.001  10.483  22.854  0.00  0.00    +0.000 A 
ATOM     15  C   UNL     1       0.003   9.103  22.659  0.00  0.00    +0.000 A 
ATOM     16  C   UNL     1      -0.351   8.569  21.403  0.00  0.00    +0.000 A 
ATOM     17  C   UNL     1      -0.477   9.399  20.287  0.00  0.00    +0.000 A 
ATOM     18  C   UNL     1      -0.282  10.740  20.493  0.00  0.00    +0.000 A 
ATOM     19  C   UNL     1      -0.533  11.933  19.722  0.00  0.00    +0.000 C 
ATOM     20  O   UNL     1       0.400  12.572  19.222  0.00  0.00    +0.000 OA
ENDROOT
BRANCH   1  25
ATOM     21  C   UNL     1      -3.971  16.273  24.919  0.00  0.00    +0.000 C 
ATOM     22  C   UNL     1      -3.971  15.297  23.780  0.00  0.00    +0.000 A 
ATOM     23  C   UNL     1      -4.224  13.938  23.991  0.00  0.00    +0.000 A 
ATOM     24  C   UNL     1      -4.119  13.011  22.945  0.00  0.00    +0.000 A 
ATOM     25  C   UNL     1      -3.724  13.421  21.655  0.00  0.00    +0.000 A 
ATOM     26  C   UNL     1      -3.517  14.794  21.435  0.00  0.00    +0.000 A 
ATOM     27  C   UNL     1      -3.633  15.715  22.486  0.00  0.00    +0.000 A 
ENDBRANCH   1  25
BRANCH   9  28
ATOM     28  N   UNL     1      -1.000  11.374  17.540  0.00  0.00    +0.000 N 
ATOM     29  H   UNL     1      -0.092  11.795  17.726  0.00  0.00    +0.000 HD
ATOM     30  H   UNL     1      -0.912  10.396  17.236  0.00  0.00    +0.000 HD
ENDBRANCH   9  28
BRANCH   8  31
ATOM     31  C   UNL     1      -3.348  10.691  16.520  0.00  0.00    +0.000 C 
ATOM     32  N   UNL     1      -3.378  10.171  15.487  0.00  0.00    +0.000 NA
ENDBRANCH   8  31
TORSDOF 3
ENDMDL
MODEL 3
REMARK VINA RESULT:      -7.2      2.710      6.066
REMARK  Name = 
REMARK  4 active torsions:
REMARK  status: ('A' for Active; 'I' for Inactive)
REMARK    1  A    between atoms: C_1  and  C_2
REMARK    2  A    between atoms: C_5  and  C_6
REMARK    3  A    between atoms: C_13  and  C_14
REMARK    4  A    between atoms: C_16  and  N_17
REMARK                            x       y       z     vdW  Elec       q    Type
REMARK                         _______ _______ _______ _____ _____    ______ ____
ROOT
ATOM      1  C   UNL     1      -0.872  11.427  19.212  0.00  0.00    +0.000 C 
ATOM      2  C   UNL     1      -2.174  10.671  18.707  0.00  0.00    +0.000 C 
ATOM      3  C   UNL     1      -2.042   9.780  17.427  0.00  0.00    +0.000 C 
ATOM      4  C   UNL     1      -2.438  10.484  16.132  0.00  0.00    +0.000 C 
ATOM      5  C   UNL     1      -3.894  10.907  16.202  0.00  0.00    +0.000 C 
ATOM      6  C   UNL     1      -4.125  11.688  17.452  0.00  0.00    +0.000 C 
ATOM      7  C   UNL     1      -3.332  11.623  18.545  0.00  0.00    +0.000 C 
ATOM      8  C   UNL     1      -3.583  12.436  19.696  0.00  0.00    +0.000 C 
ATOM      9  C   UNL     1      -2.672  12.687  20.672  0.00  0.00    +0.000 C 
ATOM     10  C   UNL     1      -0.996  12.060  20.714  0.00  0.00    +0.000 C 
ATOM     11  C   UNL     1       0.767  12.529  20.744  0.00  0.00    +0.000 C 
ATOM     12  O   UNL     1       1.763  11.827  20.798  0.00  0.00    +0.000 OA
ATOM     13  C   UNL     1       0.964  13.986  20.794  0.00  0.00    +0.000 A 
ATOM     14  C   UNL     1       1.971  14.793  20.316  0.00  0.00    +0.000 A 
ATOM     15  C   UNL     1       1.554  15.980  19.717  0.00  0.00    +0.000 A 
ATOM     16  C   UNL     1       0.177  16.260  19.594  0.00  0.00    +0.000 A 
ATOM     17  C   UNL     1      -0.769  15.486  20.268  0.00  0.00    +0.000 A 
ATOM     18  C   UNL     1      -0.290  14.434  21.005  0.00  0.00    +0.000 A 
ATOM     19  C   UNL     1      -0.887  13.283  21.637  0.00  0.00    +0.000 C 
ATOM     20  O   UNL     1      -0.980  13.214  22.868  0.00  0.00    +0.000 OA
ENDROOT
BRANCH   1  25
ATOM     21  C   UNL     1       3.020   7.040  18.683  0.00  0.00    +0.000 C 
ATOM     22  C   UNL     1       2.128   8.229  18.883  0.00  0.00    +0.000 A 
ATOM     23  C   UNL     1       1.302   8.334  20.007  0.00  0.00    +0.000 A 
ATOM     24  C   UNL     1       0.393   9.392  20.141  0.00  0.00    +0.000 A 
ATOM     25  C   UNL     1       0.264  10.364  19.129  0.00  0.00    +0.000 A 
ATOM     26  C   UNL     1       1.129  10.284  18.024  0.00  0.00    +0.000 A 
ATOM     27  C   UNL     1       2.043   9.226  17.902  0.00  0.00    +0.000 A 
ENDBRANCH   1  25
BRANCH   9  28
ATOM     28  N   UNL     1      -3.173  13.528  21.721  0.00  0.00    +0.000 N 
ATOM     29  H   UNL     1      -2.734  14.423  21.929  0.00  0.00    +0.000 HD
ATOM     30  H   UNL     1      -4.196  13.577  21.809  0.00  0.00    +0.000 HD
ENDBRANCH   9  28
BRANCH   8  31
ATOM     31  C   UNL     1      -4.929  12.914  19.835  0.00  0.00    +0.000 C 
ATOM     32  N   UNL     1      -5.991  13.348  19.983  0.00  0.00    +0.000 NA
ENDBRANCH   8  31
TORSDOF 3
ENDMDL
MODEL 4
REMARK VINA RESULT:      -6.6      2.584      5.521
REMARK  Name = 
REMARK  4 active torsions:
REMARK  status: ('A' for Active; 'I' for Inactive)
REMARK    1  A    between atoms: C_1  and  C_2
REMARK    2  A    between atoms: C_5  and  C_6
REMARK    3  A    between atoms: C_13  and  C_14
REMARK    4  A    between atoms: C_16  and  N_17
REMARK                            x       y       z     vdW  Elec       q    Type
REMARK                         _______ _______ _______ _____ _____    ______ ____
ROOT
ATOM      1  C   UNL     1      -3.887  13.254  20.232  0.00  0.00    +0.000 C 
ATOM      2  C   UNL     1      -2.592  12.365  19.996  0.00  0.00    +0.000 C 
ATOM      3  C   UNL     1      -1.227  12.921  20.522  0.00  0.00    +0.000 C 
ATOM      4  C   UNL     1      -0.411  13.672  19.473  0.00  0.00    +0.000 C 
ATOM      5  C   UNL     1      -0.071  12.740  18.324  0.00  0.00    +0.000 C 
ATOM      6  C   UNL     1      -1.318  12.092  17.823  0.00  0.00    +0.000 C 
ATOM      7  C   UNL     1      -2.455  11.973  18.547  0.00  0.00    +0.000 C 
ATOM      8  C   UNL     1      -3.633  11.382  17.988  0.00  0.00    +0.000 C 
ATOM      9  C   UNL     1      -4.883  11.529  18.503  0.00  0.00    +0.000 C 
ATOM     10  C   UNL     1      -5.300  12.479  19.962  0.00  0.00    +0.000 C 
ATOM     11  C   UNL     1      -6.279  13.882  20.592  0.00  0.00    +0.000 C 
ATOM     12  O   UNL     1      -6.389  14.314  21.727  0.00  0.00    +0.000 OA
ATOM     13  C   UNL     1      -7.110  14.506  19.550  0.00  0.00    +0.000 A 
ATOM     14  C   UNL     1      -7.552  15.798  19.379  0.00  0.00    +0.000 A 
ATOM     15  C   UNL     1      -7.498  16.282  18.073  0.00  0.00    +0.000 A 
ATOM     16  C   UNL     1      -6.973  15.473  17.045  0.00  0.00    +0.000 A 
ATOM     17  C   UNL     1      -6.723  14.117  17.263  0.00  0.00    +0.000 A 
ATOM     18  C   UNL     1      -6.974  13.641  18.524  0.00  0.00    +0.000 A 
ATOM     19  C   UNL     1      -6.652  12.427  19.234  0.00  0.00    +0.000 C 
ATOM     20  O   UNL     1      -7.527  11.591  19.486  0.00  0.00    +0.000 OA
ENDROOT
BRANCH   1  25
ATOM     21  C   UNL     1      -2.896  14.916  25.794  0.00  0.00    +0.000 C 
ATOM     22  C   UNL     1      -3.283  14.523  24.399  0.00  0.00    +0.000 A 
ATOM     23  C   UNL     1      -3.619  13.201  24.086  0.00  0.00    +0.000 A 
ATOM     24  C   UNL     1      -3.876  12.814  22.764  0.00  0.00    +0.000 A 
ATOM     25  C   UNL     1      -3.773  13.741  21.708  0.00  0.00    +0.000 A 
ATOM     26  C   UNL     1      -3.482  15.078  22.031  0.00  0.00    +0.000 A 
ATOM     27  C   UNL     1      -3.234  15.458  23.358  0.00  0.00    +0.000 A 
ENDBRANCH   1  25
BRANCH   9  28
ATOM     28  N   UNL     1      -5.894  10.832  17.760  0.00  0.00    +0.000 N 
ATOM     29  H   UNL     1      -6.110  11.092  16.800  0.00  0.00    +0.000 HD
ATOM     30  H   UNL     1      -5.929   9.813  17.896  0.00  0.00    +0.000 HD
ENDBRANCH   9  28
BRANCH   8  31
ATOM     31  C   UNL     1      -3.418  10.506  16.873  0.00  0.00    +0.000 C 
ATOM     32  N   UNL     1      -3.284   9.838  15.938  0.00  0.00    +0.000 NA
ENDBRANCH   8  31
TORSDOF 3
ENDMDL
MODEL 5
REMARK VINA RESULT:      -6.5      9.521     11.856
REMARK  Name = 
REMARK  4 active torsions:
REMARK  status: ('A' for Active; 'I' for Inactive)
REMARK    1  A    between atoms: C_1  and  C_2
REMARK    2  A    between atoms: C_5  and  C_6
REMARK    3  A    between atoms: C_13  and  C_14
REMARK    4  A    between atoms: C_16  and  N_17
REMARK                            x       y       z     vdW  Elec       q    Type
REMARK                         _______ _______ _______ _____ _____    ______ ____
ROOT
ATOM      1  C   UNL     1       7.784  14.149  21.692  0.00  0.00    +0.000 C 
ATOM      2  C   UNL     1       7.112  15.570  21.915  0.00  0.00    +0.000 C 
ATOM      3  C   UNL     1       5.763  15.617  22.707  0.00  0.00    +0.000 C 
ATOM      4  C   UNL     1       4.518  15.615  21.824  0.00  0.00    +0.000 C 
ATOM      5  C   UNL     1       4.523  16.842  20.929  0.00  0.00    +0.000 C 
ATOM      6  C   UNL     1       5.824  16.922  20.203  0.00  0.00    +0.000 C 
ATOM      7  C   UNL     1       6.961  16.315  20.613  0.00  0.00    +0.000 C 
ATOM      8  C   UNL     1       8.165  16.393  19.843  0.00  0.00    +0.000 C 
ATOM      9  C   UNL     1       9.226  15.556  19.990  0.00  0.00    +0.000 C 
ATOM     10  C   UNL     1       9.328  14.204  21.159  0.00  0.00    +0.000 C 
ATOM     11  C   UNL     1       9.534  12.401  21.332  0.00  0.00    +0.000 C 
ATOM     12  O   UNL     1       9.590  11.711  22.337  0.00  0.00    +0.000 OA
ATOM     13  C   UNL     1       9.741  11.728  20.040  0.00  0.00    +0.000 A 
ATOM     14  C   UNL     1       9.421  10.464  19.601  0.00  0.00    +0.000 A 
ATOM     15  C   UNL     1       8.914  10.391  18.305  0.00  0.00    +0.000 A 
ATOM     16  C   UNL     1       8.719  11.571  17.559  0.00  0.00    +0.000 A 
ATOM     17  C   UNL     1       9.241  12.788  18.001  0.00  0.00    +0.000 A 
ATOM     18  C   UNL     1       9.903  12.772  19.201  0.00  0.00    +0.000 A 
ATOM     19  C   UNL     1      10.373  13.784  20.116  0.00  0.00    +0.000 C 
ATOM     20  O   UNL     1      11.581  14.021  20.231  0.00  0.00    +0.000 OA
ENDROOT
BRANCH   1  25
ATOM     21  C   UNL     1       6.999  11.872  27.066  0.00  0.00    +0.000 C 
ATOM     22  C   UNL     1       7.301  12.359  25.680  0.00  0.00    +0.000 A 
ATOM     23  C   UNL     1       8.200  13.409  25.461  0.00  0.00    +0.000 A 
ATOM     24  C   UNL     1       8.401  13.933  24.178  0.00  0.00    +0.000 A 
ATOM     25  C   UNL     1       7.679  13.436  23.074  0.00  0.00    +0.000 A 
ATOM     26  C   UNL     1       6.812  12.351  23.289  0.00  0.00    +0.000 A 
ATOM     27  C   UNL     1       6.623  11.826  24.576  0.00  0.00    +0.000 A 
ENDBRANCH   1  25
BRANCH   9  28
ATOM     28  N   UNL     1      10.314  15.848  19.101  0.00  0.00    +0.000 N 
ATOM     29  H   UNL     1      10.511  15.249  18.302  0.00  0.00    +0.000 HD
ATOM     30  H   UNL     1      10.457  16.842  18.877  0.00  0.00    +0.000 HD
ENDBRANCH   9  28
BRANCH   8  31
ATOM     31  C   UNL     1       8.252  17.504  18.940  0.00  0.00    +0.000 C 
ATOM     32  N   UNL     1       8.384  18.406  18.228  0.00  0.00    +0.000 NA
ENDBRANCH   8  31
TORSDOF 3
ENDMDL
MODEL 6
REMARK VINA RESULT:      -6.3      2.767      6.765
REMARK  Name = 
REMARK  4 active torsions:
REMARK  status: ('A' for Active; 'I' for Inactive)
REMARK    1  A    between atoms: C_1  and  C_2
REMARK    2  A    between atoms: C_5  and  C_6
REMARK    3  A    between atoms: C_13  and  C_14
REMARK    4  A    between atoms: C_16  and  N_17
REMARK                            x       y       z     vdW  Elec       q    Type
REMARK                         _______ _______ _______ _____ _____    ______ ____
ROOT
ATOM      1  C   UNL     1      -2.886  11.642  19.873  0.00  0.00    +0.000 C 
ATOM      2  C   UNL     1      -1.384  11.643  20.390  0.00  0.00    +0.000 C 
ATOM      3  C   UNL     1      -0.511  10.383  20.077  0.00  0.00    +0.000 C 
ATOM      4  C   UNL     1      -0.474   9.352  21.203  0.00  0.00    +0.000 C 
ATOM      5  C   UNL     1       0.122   9.977  22.451  0.00  0.00    +0.000 C 
ATOM      6  C   UNL     1      -0.601  11.244  22.766  0.00  0.00    +0.000 C 
ATOM      7  C   UNL     1      -1.313  11.956  21.863  0.00  0.00    +0.000 C 
ATOM      8  C   UNL     1      -2.023  13.140  22.242  0.00  0.00    +0.000 C 
ATOM      9  C   UNL     1      -3.016  13.708  21.508  0.00  0.00    +0.000 C 
ATOM     10  C   UNL     1      -3.627  13.097  19.940  0.00  0.00    +0.000 C 
ATOM     11  C   UNL     1      -5.097  12.476  19.058  0.00  0.00    +0.000 C 
ATOM     12  O   UNL     1      -5.225  12.129  17.896  0.00  0.00    +0.000 OA
ATOM     13  C   UNL     1      -6.307  12.489  19.896  0.00  0.00    +0.000 A 
ATOM     14  C   UNL     1      -7.428  11.690  19.902  0.00  0.00    +0.000 A 
ATOM     15  C   UNL     1      -7.897  11.327  21.163  0.00  0.00    +0.000 A 
ATOM     16  C   UNL     1      -7.200  11.739  22.318  0.00  0.00    +0.000 A 
ATOM     17  C   UNL     1      -6.188  12.697  22.235  0.00  0.00    +0.000 A 
ATOM     18  C   UNL     1      -5.891  13.169  20.983  0.00  0.00    +0.000 A 
ATOM     19  C   UNL     1      -4.813  13.947  20.420  0.00  0.00    +0.000 C 
ATOM     20  O   UNL     1      -4.993  15.119  20.073  0.00  0.00    +0.000 OA
ENDROOT
BRANCH   1  25
ATOM     21  C   UNL     1      -3.123   9.826  14.276  0.00  0.00    +0.000 C 
ATOM     22  C   UNL     1      -2.942  10.220  15.712  0.00  0.00    +0.000 A 
ATOM     23  C   UNL     1      -3.478   9.448  16.748  0.00  0.00    +0.000 A 
ATOM     24  C   UNL     1      -3.400   9.872  18.081  0.00  0.00    +0.000 A 
ATOM     25  C   UNL     1      -2.805  11.106  18.412  0.00  0.00    +0.000 A 
ATOM     26  C   UNL     1      -2.225  11.857  17.374  0.00  0.00    +0.000 A 
ATOM     27  C   UNL     1      -2.300  11.420  16.043  0.00  0.00    +0.000 A 
ENDBRANCH   1  25
BRANCH   9  28
ATOM     28  N   UNL     1      -3.564  14.892  22.105  0.00  0.00    +0.000 N 
ATOM     29  H   UNL     1      -4.283  14.831  22.822  0.00  0.00    +0.000 HD
ATOM     30  H   UNL     1      -2.895  15.648  22.300  0.00  0.00    +0.000 HD
ENDBRANCH   9  28
BRANCH   8  31
ATOM     31  C   UNL     1      -1.554  13.789  23.433  0.00  0.00    +0.000 C 
ATOM     32  N   UNL     1      -1.163  14.364  24.357  0.00  0.00    +0.000 NA
ENDBRANCH   8  31
TORSDOF 3
ENDMDL
MODEL 7
REMARK VINA RESULT:      -6.3      8.842     12.389
REMARK  Name = 
REMARK  4 active torsions:
REMARK  status: ('A' for Active; 'I' for Inactive)
REMARK    1  A    between atoms: C_1  and  C_2
REMARK    2  A    between atoms: C_5  and  C_6
REMARK    3  A    between atoms: C_13  and  C_14
REMARK    4  A    between atoms: C_16  and  N_17
REMARK                            x       y       z     vdW  Elec       q    Type
REMARK                         _______ _______ _______ _____ _____    ______ ____
ROOT
ATOM      1  C   UNL     1       7.656  14.583  20.449  0.00  0.00    +0.000 C 
ATOM      2  C   UNL     1       8.445  14.339  21.805  0.00  0.00    +0.000 C 
ATOM      3  C   UNL     1       9.338  13.059  21.903  0.00  0.00    +0.000 C 
ATOM      4  C   UNL     1       8.649  11.864  22.558  0.00  0.00    +0.000 C 
ATOM      5  C   UNL     1       8.260  12.214  23.983  0.00  0.00    +0.000 C 
ATOM      6  C   UNL     1       7.479  13.486  23.986  0.00  0.00    +0.000 C 
ATOM      7  C   UNL     1       7.521  14.405  22.995  0.00  0.00    +0.000 C 
ATOM      8  C   UNL     1       6.708  15.583  23.038  0.00  0.00    +0.000 C 
ATOM      9  C   UNL     1       6.432  16.364  21.961  0.00  0.00    +0.000 C 
ATOM     10  C   UNL     1       7.019  16.081  20.294  0.00  0.00    +0.000 C 
ATOM     11  C   UNL     1       6.509  15.770  18.571  0.00  0.00    +0.000 C 
ATOM     12  O   UNL     1       7.188  15.629  17.567  0.00  0.00    +0.000 OA
ATOM     13  C   UNL     1       5.048  15.780  18.402  0.00  0.00    +0.000 A 
ATOM     14  C   UNL     1       4.220  15.117  17.526  0.00  0.00    +0.000 A 
ATOM     15  C   UNL     1       3.046  14.610  18.079  0.00  0.00    +0.000 A 
ATOM     16  C   UNL     1       2.799  14.755  19.460  0.00  0.00    +0.000 A 
ATOM     17  C   UNL     1       3.591  15.600  20.240  0.00  0.00    +0.000 A 
ATOM     18  C   UNL     1       4.628  16.230  19.602  0.00  0.00    +0.000 A 
ATOM     19  C   UNL     1       5.791  16.966  20.038  0.00  0.00    +0.000 C 
ATOM     20  O   UNL     1       5.856  18.191  19.890  0.00  0.00    +0.000 OA
ENDROOT
BRANCH   1  25
ATOM     21  C   UNL     1      11.915  13.211  16.620  0.00  0.00    +0.000 C 
ATOM     22  C   UNL     1      10.767  13.628  17.491  0.00  0.00    +0.000 A 
ATOM     23  C   UNL     1      10.814  14.812  18.235  0.00  0.00    +0.000 A 
ATOM     24  C   UNL     1       9.788  15.147  19.128  0.00  0.00    +0.000 A 
ATOM     25  C   UNL     1       8.692  14.282  19.325  0.00  0.00    +0.000 A 
ATOM     26  C   UNL     1       8.624  13.117  18.541  0.00  0.00    +0.000 A 
ATOM     27  C   UNL     1       9.652  12.794  17.643  0.00  0.00    +0.000 A 
ENDBRANCH   1  25
BRANCH   9  28
ATOM     28  N   UNL     1       5.598  17.491  22.269  0.00  0.00    +0.000 N 
ATOM     29  H   UNL     1       4.708  17.367  22.748  0.00  0.00    +0.000 HD
ATOM     30  H   UNL     1       6.086  18.338  22.587  0.00  0.00    +0.000 HD
ENDBRANCH   9  28
BRANCH   8  31
ATOM     31  C   UNL     1       6.261  15.979  24.342  0.00  0.00    +0.000 C 
ATOM     32  N   UNL     1       5.848  16.323  25.366  0.00  0.00    +0.000 NA
ENDBRANCH   8  31
TORSDOF 3
ENDMDL
MODEL 8
REMARK VINA RESULT:      -6.3      7.107     10.176
REMARK  Name = 
REMARK  4 active torsions:
REMARK  status: ('A' for Active; 'I' for Inactive)
REMARK    1  A    between atoms: C_1  and  C_2
REMARK    2  A    between atoms: C_5  and  C_6
REMARK    3  A    between atoms: C_13  and  C_14
REMARK    4  A    between atoms: C_16  and  N_17
REMARK                            x       y       z     vdW  Elec       q    Type
REMARK                         _______ _______ _______ _____ _____    ______ ____
ROOT
ATOM      1  C   UNL     1       3.286   5.854  18.705  0.00  0.00    +0.000 C 
ATOM      2  C   UNL     1       2.240   4.739  19.137  0.00  0.00    +0.000 C 
ATOM      3  C   UNL     1       1.299   5.060  20.346  0.00  0.00    +0.000 C 
ATOM      4  C   UNL     1       1.803   4.535  21.687  0.00  0.00    +0.000 C 
ATOM      5  C   UNL     1       1.921   3.022  21.635  0.00  0.00    +0.000 C 
ATOM      6  C   UNL     1       2.732   2.627  20.447  0.00  0.00    +0.000 C 
ATOM      7  C   UNL     1       2.917   3.411  19.360  0.00  0.00    +0.000 C 
ATOM      8  C   UNL     1       3.748   2.990  18.272  0.00  0.00    +0.000 C 
ATOM      9  C   UNL     1       4.256   3.825  17.328  0.00  0.00    +0.000 C 
ATOM     10  C   UNL     1       3.994   5.594  17.256  0.00  0.00    +0.000 C 
ATOM     11  C   UNL     1       4.818   7.221  17.279  0.00  0.00    +0.000 C 
ATOM     12  O   UNL     1       4.343   8.340  17.183  0.00  0.00    +0.000 OA
ATOM     13  C   UNL     1       6.283   7.112  17.345  0.00  0.00    +0.000 A 
ATOM     14  C   UNL     1       7.241   7.934  17.894  0.00  0.00    +0.000 A 
ATOM     15  C   UNL     1       8.266   7.284  18.578  0.00  0.00    +0.000 A 
ATOM     16  C   UNL     1       8.246   5.880  18.708  0.00  0.00    +0.000 A 
ATOM     17  C   UNL     1       7.348   5.110  17.967  0.00  0.00    +0.000 A 
ATOM     18  C   UNL     1       6.478   5.791  17.156  0.00  0.00    +0.000 A 
ATOM     19  C   UNL     1       5.280   5.442  16.430  0.00  0.00    +0.000 C 
ATOM     20  O   UNL     1       5.290   5.358  15.197  0.00  0.00    +0.000 OA
ENDROOT
BRANCH   1  25
ATOM     21  C   UNL     1      -0.254  10.559  18.803  0.00  0.00    +0.000 C 
ATOM     22  C   UNL     1       0.752   9.448  18.749  0.00  0.00    +0.000 A 
ATOM     23  C   UNL     1       0.997   8.749  17.562  0.00  0.00    +0.000 A 
ATOM     24  C   UNL     1       1.858   7.644  17.538  0.00  0.00    +0.000 A 
ATOM     25  C   UNL     1       2.477   7.186  18.718  0.00  0.00    +0.000 A 
ATOM     26  C   UNL     1       2.266   7.918  19.899  0.00  0.00    +0.000 A 
ATOM     27  C   UNL     1       1.410   9.029  19.913  0.00  0.00    +0.000 A 
ENDBRANCH   1  25
BRANCH   9  28
ATOM     28  N   UNL     1       5.055   3.155  16.342  0.00  0.00    +0.000 N 
ATOM     29  H   UNL     1       5.784   3.651  15.834  0.00  0.00    +0.000 HD
ATOM     30  H   UNL     1       5.337   2.192  16.570  0.00  0.00    +0.000 HD
ENDBRANCH   9  28
BRANCH   8  31
ATOM     31  C   UNL     1       3.947   1.574  18.157  0.00  0.00    +0.000 C 
ATOM     32  N   UNL     1       4.156   0.438  18.106  0.00  0.00    +0.000 NA
ENDBRANCH   8  31
TORSDOF 3
ENDMDL
MODEL 9
REMARK VINA RESULT:      -6.2     10.245     12.227
REMARK  Name = 
REMARK  4 active torsions:
REMARK  status: ('A' for Active; 'I' for Inactive)
REMARK    1  A    between atoms: C_1  and  C_2
REMARK    2  A    between atoms: C_5  and  C_6
REMARK    3  A    between atoms: C_13  and  C_14
REMARK    4  A    between atoms: C_16  and  N_17
REMARK                            x       y       z     vdW  Elec       q    Type
REMARK                         _______ _______ _______ _____ _____    ______ ____
ROOT
ATOM      1  C   UNL     1       8.227  14.248  21.175  0.00  0.00    +0.000 C 
ATOM      2  C   UNL     1       7.872  15.795  21.151  0.00  0.00    +0.000 C 
ATOM      3  C   UNL     1       6.514  16.235  21.792  0.00  0.00    +0.000 C 
ATOM      4  C   UNL     1       5.366  16.368  20.794  0.00  0.00    +0.000 C 
ATOM      5  C   UNL     1       5.705  17.426  19.759  0.00  0.00    +0.000 C 
ATOM      6  C   UNL     1       7.040  17.128  19.164  0.00  0.00    +0.000 C 
ATOM      7  C   UNL     1       7.982  16.361  19.758  0.00  0.00    +0.000 C 
ATOM      8  C   UNL     1       9.226  16.075  19.110  0.00  0.00    +0.000 C 
ATOM      9  C   UNL     1      10.063  15.064  19.465  0.00  0.00    +0.000 C 
ATOM     10  C   UNL     1       9.779  13.903  20.797  0.00  0.00    +0.000 C 
ATOM     11  C   UNL     1       9.569  12.139  21.212  0.00  0.00    +0.000 C 
ATOM     12  O   UNL     1       9.400  11.604  22.295  0.00  0.00    +0.000 OA
ATOM     13  C   UNL     1       9.715  11.261  20.041  0.00  0.00    +0.000 A 
ATOM     14  C   UNL     1       9.156  10.042  19.731  0.00  0.00    +0.000 A 
ATOM     15  C   UNL     1       8.739   9.893  18.410  0.00  0.00    +0.000 A 
ATOM     16  C   UNL     1       8.863  10.969  17.508  0.00  0.00    +0.000 A 
ATOM     17  C   UNL     1       9.609  12.100  17.846  0.00  0.00    +0.000 A 
ATOM     18  C   UNL     1      10.163  12.117  19.100  0.00  0.00    +0.000 A 
ATOM     19  C   UNL     1      10.778  13.129  19.925  0.00  0.00    +0.000 C 
ATOM     20  O   UNL     1      11.997  13.122  20.131  0.00  0.00    +0.000 OA
ENDROOT
BRANCH   1  25
ATOM     21  C   UNL     1       7.166  11.976  26.503  0.00  0.00    +0.000 C 
ATOM     22  C   UNL     1       7.351  12.659  25.181  0.00  0.00    +0.000 A 
ATOM     23  C   UNL     1       6.543  12.342  24.083  0.00  0.00    +0.000 A 
ATOM     24  C   UNL     1       6.784  12.902  22.822  0.00  0.00    +0.000 A 
ATOM     25  C   UNL     1       7.869  13.778  22.617  0.00  0.00    +0.000 A 
ATOM     26  C   UNL     1       8.650  14.131  23.731  0.00  0.00    +0.000 A 
ATOM     27  C   UNL     1       8.396  13.572  24.992  0.00  0.00    +0.000 A 
ENDBRANCH   1  25
BRANCH   9  28
ATOM     28  N   UNL     1      11.249  14.993  18.661  0.00  0.00    +0.000 N 
ATOM     29  H   UNL     1      12.065  15.560  18.881  0.00  0.00    +0.000 HD
ATOM     30  H   UNL     1      11.514  14.054  18.334  0.00  0.00    +0.000 HD
ENDBRANCH   9  28
BRANCH   8  31
ATOM     31  C   UNL     1       9.621  17.003  18.090  0.00  0.00    +0.000 C 
ATOM     32  N   UNL     1       9.998  17.750  17.291  0.00  0.00    +0.000 NA
ENDBRANCH   8  31
TORSDOF 3
ENDMDL
