MODEL 1
REMARK VINA RESULT:      -7.3      0.000      0.000
REMARK  Name = 
REMARK  6 active torsions:
REMARK  status: ('A' for Active; 'I' for Inactive)
REMARK    1  A    between atoms: C_1  and  C_2
REMARK    2  A    between atoms: C_2  and  S_3
REMARK    3  A    between atoms: C_2  and  C_15
REMARK    4  A    between atoms: S_3  and  C_4
REMARK    5  A    between atoms: C_7  and  C_8
REMARK    6  A    between atoms: N_13  and  C_14
REMARK                            x       y       z     vdW  Elec       q    Type
REMARK                         _______ _______ _______ _____ _____    ______ ____
ROOT
ATOM      1  S   UNL     1       4.571   5.584  19.146  0.00  0.00    +0.000 S 
ENDROOT
BRANCH   1   2
ATOM      2  C   UNL     1       5.657   5.668  17.800  0.00  0.00    +0.000 A 
ATOM      3  N   UNL     1       6.716   6.431  17.673  0.00  0.00    +0.000 NA
ATOM      4  N   UNL     1       7.262   6.177  16.429  0.00  0.00    +0.000 NA
ATOM      5  C   UNL     1       6.493   5.297  15.812  0.00  0.00    +0.000 A 
ATOM      6  N   UNL     1       5.495   4.907  16.670  0.00  0.00    +0.000 N 
ATOM      7  C   UNL     1       4.531   3.854  16.488  0.00  0.00    +0.000 C 
BRANCH   5   8
ATOM      8  C   UNL     1       6.681   4.850  14.463  0.00  0.00    +0.000 A 
ATOM      9  C   UNL     1       6.050   3.818  13.789  0.00  0.00    +0.000 A 
ATOM     10  C   UNL     1       6.597   3.763  12.482  0.00  0.00    +0.000 A 
ATOM     11  C   UNL     1       7.547   4.754  12.430  0.00  0.00    +0.000 A 
ATOM     12  O   UNL     1       7.602   5.416  13.611  0.00  0.00    +0.000 OA
ENDBRANCH   5   8
ENDBRANCH   1   2
BRANCH   1  14
ATOM     13  C   UNL     1       3.404   7.567  17.592  0.00  0.00    +0.000 C 
ATOM     14  C   UNL     1       3.054   6.392  18.509  0.00  0.00    +0.000 C 
BRANCH  14  15
ATOM     15  C   UNL     1       2.228   6.923  19.700  0.00  0.00    +0.000 C 
ATOM     16  O   UNL     1       1.939   6.181  20.639  0.00  0.00    +0.000 OA
ATOM     17  N   UNL     1       1.887   8.259  19.618  0.00  0.00    +0.000 N 
ATOM     18  C   UNL     1       1.141   8.847  20.606  0.00  0.00    +0.000 A 
ATOM     19  N   UNL     1       0.877   8.403  21.809  0.00  0.00    +0.000 NA
ATOM     20  C   UNL     1       0.016   9.265  22.448  0.00  0.00    +0.000 A 
ATOM     21  C   UNL     1      -0.361  10.370  21.718  0.00  0.00    +0.000 A 
ATOM     22  S   UNL     1       0.442  10.350  20.195  0.00  0.00    +0.000 S 
ATOM     23  H   UNL     1       1.995   8.765  18.750  0.00  0.00    +0.000 HD
ENDBRANCH  14  15
ENDBRANCH   1  14
TORSDOF 4
ENDMDL
MODEL 2
REMARK VINA RESULT:      -7.2      3.988      5.306
REMARK  Name = 
REMARK  6 active torsions:
REMARK  status: ('A' for Active; 'I' for Inactive)
REMARK    1  A    between atoms: C_1  and  C_2
REMARK    2  A    between atoms: C_2  and  S_3
REMARK    3  A    between atoms: C_2  and  C_15
REMARK    4  A    between atoms: S_3  and  C_4
REMARK    5  A    between atoms: C_7  and  C_8
REMARK    6  A    between atoms: N_13  and  C_14
REMARK                            x       y       z     vdW  Elec       q    Type
REMARK                         _______ _______ _______ _____ _____    ______ ____
ROOT
ATOM      1  S   UNL     1       1.531   8.628  19.683  0.00  0.00    +0.000 S 
ENDROOT
BRANCH   1   2
ATOM      2  C   UNL     1       2.440   7.357  18.937  0.00  0.00    +0.000 A 
ATOM      3  N   UNL     1       3.223   7.444  17.889  0.00  0.00    +0.000 NA
ATOM      4  N   UNL     1       3.722   6.179  17.640  0.00  0.00    +0.000 NA
ATOM      5  C   UNL     1       3.190   5.346  18.518  0.00  0.00    +0.000 A 
ATOM      6  N   UNL     1       2.415   6.064  19.393  0.00  0.00    +0.000 N 
ATOM      7  C   UNL     1       1.782   5.602  20.600  0.00  0.00    +0.000 C 
BRANCH   5   8
ATOM      8  C   UNL     1       3.393   3.926  18.525  0.00  0.00    +0.000 A 
ATOM      9  C   UNL     1       2.929   2.973  17.635  0.00  0.00    +0.000 A 
ATOM     10  C   UNL     1       3.386   1.709  18.086  0.00  0.00    +0.000 A 
ATOM     11  C   UNL     1       4.093   1.953  19.238  0.00  0.00    +0.000 A 
ATOM     12  O   UNL     1       4.108   3.281  19.509  0.00  0.00    +0.000 OA
ENDBRANCH   5   8
ENDBRANCH   1   2
BRANCH   1  14
ATOM     13  C   UNL     1       2.001  10.916  18.182  0.00  0.00    +0.000 C 
ATOM     14  C   UNL     1       1.074   9.701  18.269  0.00  0.00    +0.000 C 
BRANCH  14  15
ATOM     15  C   UNL     1      -0.374  10.197  18.460  0.00  0.00    +0.000 C 
ATOM     16  O   UNL     1      -0.844  10.331  19.591  0.00  0.00    +0.000 OA
ATOM     17  N   UNL     1      -1.047  10.486  17.289  0.00  0.00    +0.000 N 
ATOM     18  C   UNL     1      -2.347  10.923  17.324  0.00  0.00    +0.000 A 
ATOM     19  N   UNL     1      -3.034  11.371  18.344  0.00  0.00    +0.000 NA
ATOM     20  C   UNL     1      -4.332  11.618  17.960  0.00  0.00    +0.000 A 
ATOM     21  C   UNL     1      -4.616  11.358  16.638  0.00  0.00    +0.000 A 
ATOM     22  S   UNL     1      -3.184  10.840  15.837  0.00  0.00    +0.000 S 
ATOM     23  H   UNL     1      -0.678  10.188  16.397  0.00  0.00    +0.000 HD
ENDBRANCH  14  15
ENDBRANCH   1  14
TORSDOF 4
ENDMDL
MODEL 3
REMARK VINA RESULT:      -7.1      2.651      8.068
REMARK  Name = 
REMARK  6 active torsions:
REMARK  status: ('A' for Active; 'I' for Inactive)
REMARK    1  A    between atoms: C_1  and  C_2
REMARK    2  A    between atoms: C_2  and  S_3
REMARK    3  A    between atoms: C_2  and  C_15
REMARK    4  A    between atoms: S_3  and  C_4
REMARK    5  A    between atoms: C_7  and  C_8
REMARK    6  A    between atoms: N_13  and  C_14
REMARK                            x       y       z     vdW  Elec       q    Type
REMARK                         _______ _______ _______ _____ _____    ______ ____
ROOT
ATOM      1  S   UNL     1       2.745   6.229  19.687  0.00  0.00    +0.000 S 
ENDROOT
BRANCH   1   2
ATOM      2  C   UNL     1       2.242   7.710  18.945  0.00  0.00    +0.000 A 
ATOM      3  N   UNL     1       2.464   8.102  17.712  0.00  0.00    +0.000 NA
ATOM      4  N   UNL     1       1.897   9.355  17.570  0.00  0.00    +0.000 NA
ATOM      5  C   UNL     1       1.386   9.713  18.734  0.00  0.00    +0.000 A 
ATOM      6  N   UNL     1       1.534   8.673  19.618  0.00  0.00    +0.000 N 
ATOM      7  C   UNL     1       0.986   8.551  20.943  0.00  0.00    +0.000 C 
BRANCH   5   8
ATOM      8  C   UNL     1       0.790  10.987  19.010  0.00  0.00    +0.000 A 
ATOM      9  C   UNL     1      -0.462  11.461  18.658  0.00  0.00    +0.000 A 
ATOM     10  C   UNL     1      -0.571  12.787  19.147  0.00  0.00    +0.000 A 
ATOM     11  C   UNL     1       0.628  13.062  19.759  0.00  0.00    +0.000 A 
ATOM     12  O   UNL     1       1.450  11.988  19.687  0.00  0.00    +0.000 OA
ENDBRANCH   5   8
ENDBRANCH   1   2
BRANCH   1  14
ATOM     13  C   UNL     1       1.486   3.762  19.493  0.00  0.00    +0.000 C 
ATOM     14  C   UNL     1       1.951   4.948  18.644  0.00  0.00    +0.000 C 
BRANCH  14  15
ATOM     15  C   UNL     1       2.972   4.441  17.605  0.00  0.00    +0.000 C 
ATOM     16  O   UNL     1       2.787   3.373  17.018  0.00  0.00    +0.000 OA
ATOM     17  N   UNL     1       4.049   5.278  17.394  0.00  0.00    +0.000 N 
ATOM     18  C   UNL     1       5.034   4.933  16.505  0.00  0.00    +0.000 A 
ATOM     19  N   UNL     1       5.018   4.003  15.584  0.00  0.00    +0.000 NA
ATOM     20  C   UNL     1       6.248   3.930  14.971  0.00  0.00    +0.000 A 
ATOM     21  C   UNL     1       7.191   4.821  15.433  0.00  0.00    +0.000 A 
ATOM     22  S   UNL     1       6.486   5.823  16.642  0.00  0.00    +0.000 S 
ATOM     23  H   UNL     1       4.239   6.042  18.027  0.00  0.00    +0.000 HD
ENDBRANCH  14  15
ENDBRANCH   1  14
TORSDOF 4
ENDMDL
MODEL 4
REMARK VINA RESULT:      -7.1      2.573      8.212
REMARK  Name = 
REMARK  6 active torsions:
REMARK  status: ('A' for Active; 'I' for Inactive)
REMARK    1  A    between atoms: C_1  and  C_2
REMARK    2  A    between atoms: C_2  and  S_3
REMARK    3  A    between atoms: C_2  and  C_15
REMARK    4  A    between atoms: S_3  and  C_4
REMARK    5  A    between atoms: C_7  and  C_8
REMARK    6  A    between atoms: N_13  and  C_14
REMARK                            x       y       z     vdW  Elec       q    Type
REMARK                         _______ _______ _______ _____ _____    ______ ____
ROOT
ATOM      1  S   UNL     1       4.410   4.147  17.882  0.00  0.00    +0.000 S 
ENDROOT
BRANCH   1   2
ATOM      2  C   UNL     1       3.709   5.722  18.040  0.00  0.00    +0.000 A 
ATOM      3  N   UNL     1       3.941   6.779  17.299  0.00  0.00    +0.000 NA
ATOM      4  N   UNL     1       3.176   7.814  17.804  0.00  0.00    +0.000 NA
ATOM      5  C   UNL     1       2.532   7.370  18.869  0.00  0.00    +0.000 A 
ATOM      6  N   UNL     1       2.800   6.032  19.019  0.00  0.00    +0.000 N 
ATOM      7  C   UNL     1       2.192   5.104  19.937  0.00  0.00    +0.000 C 
BRANCH   5   8
ATOM      8  C   UNL     1       1.706   8.175  19.721  0.00  0.00    +0.000 A 
ATOM      9  C   UNL     1       1.390   7.994  21.057  0.00  0.00    +0.000 A 
ATOM     10  C   UNL     1       0.526   9.050  21.439  0.00  0.00    +0.000 A 
ATOM     11  C   UNL     1       0.344   9.814  20.312  0.00  0.00    +0.000 A 
ATOM     12  O   UNL     1       1.052   9.301  19.276  0.00  0.00    +0.000 OA
ENDBRANCH   5   8
ENDBRANCH   1   2
BRANCH   1  14
ATOM     13  C   UNL     1       6.437   5.525  19.187  0.00  0.00    +0.000 C 
ATOM     14  C   UNL     1       6.202   4.463  18.109  0.00  0.00    +0.000 C 
BRANCH  14  15
ATOM     15  C   UNL     1       6.797   4.969  16.779  0.00  0.00    +0.000 C 
ATOM     16  O   UNL     1       7.462   6.006  16.747  0.00  0.00    +0.000 OA
ATOM     17  N   UNL     1       6.542   4.163  15.686  0.00  0.00    +0.000 N 
ATOM     18  C   UNL     1       7.005   4.511  14.444  0.00  0.00    +0.000 A 
ATOM     19  N   UNL     1       7.907   5.405  14.125  0.00  0.00    +0.000 NA
ATOM     20  C   UNL     1       8.008   5.500  12.756  0.00  0.00    +0.000 A 
ATOM     21  C   UNL     1       7.180   4.662  12.044  0.00  0.00    +0.000 A 
ATOM     22  S   UNL     1       6.283   3.681  13.137  0.00  0.00    +0.000 S 
ATOM     23  H   UNL     1       5.848   3.431  15.738  0.00  0.00    +0.000 HD
ENDBRANCH  14  15
ENDBRANCH   1  14
TORSDOF 4
ENDMDL
MODEL 5
REMARK VINA RESULT:      -7.1      3.844      4.273
REMARK  Name = 
REMARK  6 active torsions:
REMARK  status: ('A' for Active; 'I' for Inactive)
REMARK    1  A    between atoms: C_1  and  C_2
REMARK    2  A    between atoms: C_2  and  S_3
REMARK    3  A    between atoms: C_2  and  C_15
REMARK    4  A    between atoms: S_3  and  C_4
REMARK    5  A    between atoms: C_7  and  C_8
REMARK    6  A    between atoms: N_13  and  C_14
REMARK                            x       y       z     vdW  Elec       q    Type
REMARK                         _______ _______ _______ _____ _____    ______ ____
ROOT
ATOM      1  S   UNL     1       5.671   6.470  17.392  0.00  0.00    +0.000 S 
ENDROOT
BRANCH   1   2
ATOM      2  C   UNL     1       6.300   5.757  15.945  0.00  0.00    +0.000 A 
ATOM      3  N   UNL     1       7.451   6.005  15.366  0.00  0.00    +0.000 NA
ATOM      4  N   UNL     1       7.519   5.221  14.230  0.00  0.00    +0.000 NA
ATOM      5  C   UNL     1       6.386   4.550  14.122  0.00  0.00    +0.000 A 
ATOM      6  N   UNL     1       5.608   4.819  15.221  0.00  0.00    +0.000 N 
ATOM      7  C   UNL     1       4.374   4.191  15.608  0.00  0.00    +0.000 C 
BRANCH   5   8
ATOM      8  C   UNL     1       6.041   3.697  13.023  0.00  0.00    +0.000 A 
ATOM      9  C   UNL     1       6.850   2.840  12.295  0.00  0.00    +0.000 A 
ATOM     10  C   UNL     1       6.043   2.233  11.300  0.00  0.00    +0.000 A 
ATOM     11  C   UNL     1       4.786   2.763  11.460  0.00  0.00    +0.000 A 
ATOM     12  O   UNL     1       4.772   3.639  12.493  0.00  0.00    +0.000 OA
ENDBRANCH   5   8
ENDBRANCH   1   2
BRANCH   1  14
ATOM     13  C   UNL     1       7.590   4.651  18.241  0.00  0.00    +0.000 C 
ATOM     14  C   UNL     1       6.332   5.385  18.714  0.00  0.00    +0.000 C 
BRANCH  14  15
ATOM     15  C   UNL     1       5.262   4.340  19.090  0.00  0.00    +0.000 C 
ATOM     16  O   UNL     1       5.580   3.306  19.679  0.00  0.00    +0.000 OA
ATOM     17  N   UNL     1       3.971   4.680  18.737  0.00  0.00    +0.000 N 
ATOM     18  C   UNL     1       2.931   3.827  19.004  0.00  0.00    +0.000 A 
ATOM     19  N   UNL     1       2.906   2.786  19.797  0.00  0.00    +0.000 NA
ATOM     20  C   UNL     1       1.686   2.156  19.704  0.00  0.00    +0.000 A 
ATOM     21  C   UNL     1       0.787   2.736  18.838  0.00  0.00    +0.000 A 
ATOM     22  S   UNL     1       1.482   4.158  18.161  0.00  0.00    +0.000 S 
ATOM     23  H   UNL     1       3.796   5.446  18.103  0.00  0.00    +0.000 HD
ENDBRANCH  14  15
ENDBRANCH   1  14
TORSDOF 4
ENDMDL
MODEL 6
REMARK VINA RESULT:      -7.0      1.318      1.595
REMARK  Name = 
REMARK  6 active torsions:
REMARK  status: ('A' for Active; 'I' for Inactive)
REMARK    1  A    between atoms: C_1  and  C_2
REMARK    2  A    between atoms: C_2  and  S_3
REMARK    3  A    between atoms: C_2  and  C_15
REMARK    4  A    between atoms: S_3  and  C_4
REMARK    5  A    between atoms: C_7  and  C_8
REMARK    6  A    between atoms: N_13  and  C_14
REMARK                            x       y       z     vdW  Elec       q    Type
REMARK                         _______ _______ _______ _____ _____    ______ ____
ROOT
ATOM      1  S   UNL     1       5.382   5.575  19.249  0.00  0.00    +0.000 S 
ENDROOT
BRANCH   1   2
ATOM      2  C   UNL     1       5.414   5.838  17.537  0.00  0.00    +0.000 A 
ATOM      3  N   UNL     1       4.717   6.710  16.849  0.00  0.00    +0.000 NA
ATOM      4  N   UNL     1       5.053   6.549  15.518  0.00  0.00    +0.000 NA
ATOM      5  C   UNL     1       5.912   5.550  15.427  0.00  0.00    +0.000 A 
ATOM      6  N   UNL     1       6.210   5.108  16.692  0.00  0.00    +0.000 N 
ATOM      7  C   UNL     1       7.214   4.155  17.084  0.00  0.00    +0.000 C 
BRANCH   5   8
ATOM      8  C   UNL     1       6.424   5.021  14.196  0.00  0.00    +0.000 A 
ATOM      9  C   UNL     1       5.998   3.918  13.475  0.00  0.00    +0.000 A 
ATOM     10  C   UNL     1       6.839   3.800  12.339  0.00  0.00    +0.000 A 
ATOM     11  C   UNL     1       7.746   4.827  12.434  0.00  0.00    +0.000 A 
ATOM     12  O   UNL     1       7.504   5.569  13.541  0.00  0.00    +0.000 OA
ENDBRANCH   5   8
ENDBRANCH   1   2
BRANCH   1  14
ATOM     13  C   UNL     1       3.261   4.141  18.174  0.00  0.00    +0.000 C 
ATOM     14  C   UNL     1       3.807   4.671  19.503  0.00  0.00    +0.000 C 
BRANCH  14  15
ATOM     15  C   UNL     1       2.768   5.632  20.116  0.00  0.00    +0.000 C 
ATOM     16  O   UNL     1       2.063   5.270  21.059  0.00  0.00    +0.000 OA
ATOM     17  N   UNL     1       2.730   6.888  19.542  0.00  0.00    +0.000 N 
ATOM     18  C   UNL     1       1.838   7.829  19.988  0.00  0.00    +0.000 A 
ATOM     19  N   UNL     1       1.132   7.832  21.090  0.00  0.00    +0.000 NA
ATOM     20  C   UNL     1       0.294   8.924  21.106  0.00  0.00    +0.000 A 
ATOM     21  C   UNL     1       0.382   9.750  20.008  0.00  0.00    +0.000 A 
ATOM     22  S   UNL     1       1.601   9.161  18.946  0.00  0.00    +0.000 S 
ATOM     23  H   UNL     1       3.197   7.066  18.664  0.00  0.00    +0.000 HD
ENDBRANCH  14  15
ENDBRANCH   1  14
TORSDOF 4
ENDMDL
MODEL 7
REMARK VINA RESULT:      -6.9      3.998      6.894
REMARK  Name = 
REMARK  6 active torsions:
REMARK  status: ('A' for Active; 'I' for Inactive)
REMARK    1  A    between atoms: C_1  and  C_2
REMARK    2  A    between atoms: C_2  and  S_3
REMARK    3  A    between atoms: C_2  and  C_15
REMARK    4  A    between atoms: S_3  and  C_4
REMARK    5  A    between atoms: C_7  and  C_8
REMARK    6  A    between atoms: N_13  and  C_14
REMARK                            x       y       z     vdW  Elec       q    Type
REMARK                         _______ _______ _______ _____ _____    ______ ____
ROOT
ATOM      1  S   UNL     1       5.313   6.608  16.585  0.00  0.00    +0.000 S 
ENDROOT
BRANCH   1   2
ATOM      2  C   UNL     1       4.526   5.190  17.193  0.00  0.00    +0.000 A 
ATOM      3  N   UNL     1       4.287   4.071  16.551  0.00  0.00    +0.000 NA
ATOM      4  N   UNL     1       3.622   3.229  17.423  0.00  0.00    +0.000 NA
ATOM      5  C   UNL     1       3.433   3.877  18.559  0.00  0.00    +0.000 A 
ATOM      6  N   UNL     1       4.042   5.104  18.473  0.00  0.00    +0.000 N 
ATOM      7  C   UNL     1       4.234   6.073  19.519  0.00  0.00    +0.000 C 
BRANCH   5   8
ATOM      8  C   UNL     1       2.698   3.366  19.679  0.00  0.00    +0.000 A 
ATOM      9  C   UNL     1       1.348   3.484  19.964  0.00  0.00    +0.000 A 
ATOM     10  C   UNL     1       1.112   2.822  21.196  0.00  0.00    +0.000 A 
ATOM     11  C   UNL     1       2.334   2.348  21.608  0.00  0.00    +0.000 A 
ATOM     12  O   UNL     1       3.291   2.664  20.703  0.00  0.00    +0.000 OA
ENDBRANCH   5   8
ENDBRANCH   1   2
BRANCH   1  14
ATOM     13  C   UNL     1       7.282   4.769  17.256  0.00  0.00    +0.000 C 
ATOM     14  C   UNL     1       7.093   6.203  16.754  0.00  0.00    +0.000 C 
BRANCH  14  15
ATOM     15  C   UNL     1       7.735   7.170  17.770  0.00  0.00    +0.000 C 
ATOM     16  O   UNL     1       8.068   6.771  18.887  0.00  0.00    +0.000 OA
ATOM     17  N   UNL     1       7.912   8.460  17.310  0.00  0.00    +0.000 N 
ATOM     18  C   UNL     1       8.460   9.419  18.122  0.00  0.00    +0.000 A 
ATOM     19  N   UNL     1       9.107   9.265  19.250  0.00  0.00    +0.000 NA
ATOM     20  C   UNL     1       9.408  10.496  19.787  0.00  0.00    +0.000 A 
ATOM     21  C   UNL     1       8.990  11.581  19.049  0.00  0.00    +0.000 A 
ATOM     22  S   UNL     1       8.241  11.030  17.600  0.00  0.00    +0.000 S 
ATOM     23  H   UNL     1       7.460   8.770  16.461  0.00  0.00    +0.000 HD
ENDBRANCH  14  15
ENDBRANCH   1  14
TORSDOF 4
ENDMDL
MODEL 8
REMARK VINA RESULT:      -6.9      2.772      7.945
REMARK  Name = 
REMARK  6 active torsions:
REMARK  status: ('A' for Active; 'I' for Inactive)
REMARK    1  A    between atoms: C_1  and  C_2
REMARK    2  A    between atoms: C_2  and  S_3
REMARK    3  A    between atoms: C_2  and  C_15
REMARK    4  A    between atoms: S_3  and  C_4
REMARK    5  A    between atoms: C_7  and  C_8
REMARK    6  A    between atoms: N_13  and  C_14
REMARK                            x       y       z     vdW  Elec       q    Type
REMARK                         _______ _______ _______ _____ _____    ______ ____
ROOT
ATOM      1  S   UNL     1       2.419   6.453  20.210  0.00  0.00    +0.000 S 
ENDROOT
BRANCH   1   2
ATOM      2  C   UNL     1       2.047   7.822  19.218  0.00  0.00    +0.000 A 
ATOM      3  N   UNL     1       2.390   8.020  17.968  0.00  0.00    +0.000 NA
ATOM      4  N   UNL     1       1.893   9.255  17.594  0.00  0.00    +0.000 NA
ATOM      5  C   UNL     1       1.300   9.797  18.644  0.00  0.00    +0.000 A 
ATOM      6  N   UNL     1       1.327   8.895  19.679  0.00  0.00    +0.000 N 
ATOM      7  C   UNL     1       0.663   8.988  20.951  0.00  0.00    +0.000 C 
BRANCH   5   8
ATOM      8  C   UNL     1       0.741  11.116  18.676  0.00  0.00    +0.000 A 
ATOM      9  C   UNL     1       1.367  12.325  18.933  0.00  0.00    +0.000 A 
ATOM     10  C   UNL     1       0.380  13.340  18.866  0.00  0.00    +0.000 A 
ATOM     11  C   UNL     1      -0.803  12.698  18.588  0.00  0.00    +0.000 A 
ATOM     12  O   UNL     1      -0.597  11.364  18.467  0.00  0.00    +0.000 OA
ENDBRANCH   5   8
ENDBRANCH   1   2
BRANCH   1  14
ATOM     13  C   UNL     1       1.229   3.944  20.176  0.00  0.00    +0.000 C 
ATOM     14  C   UNL     1       1.748   5.045  19.247  0.00  0.00    +0.000 C 
BRANCH  14  15
ATOM     15  C   UNL     1       2.870   4.458  18.365  0.00  0.00    +0.000 C 
ATOM     16  O   UNL     1       3.051   3.240  18.314  0.00  0.00    +0.000 OA
ATOM     17  N   UNL     1       3.597   5.392  17.654  0.00  0.00    +0.000 N 
ATOM     18  C   UNL     1       4.631   4.998  16.844  0.00  0.00    +0.000 A 
ATOM     19  N   UNL     1       4.921   3.798  16.410  0.00  0.00    +0.000 NA
ATOM     20  C   UNL     1       6.096   3.831  15.695  0.00  0.00    +0.000 A 
ATOM     21  C   UNL     1       6.686   5.070  15.586  0.00  0.00    +0.000 A 
ATOM     22  S   UNL     1       5.696   6.244  16.364  0.00  0.00    +0.000 S 
ATOM     23  H   UNL     1       3.523   6.376  17.872  0.00  0.00    +0.000 HD
ENDBRANCH  14  15
ENDBRANCH   1  14
TORSDOF 4
ENDMDL
MODEL 9
REMARK VINA RESULT:      -6.8      2.660      8.172
REMARK  Name = 
REMARK  6 active torsions:
REMARK  status: ('A' for Active; 'I' for Inactive)
REMARK    1  A    between atoms: C_1  and  C_2
REMARK    2  A    between atoms: C_2  and  S_3
REMARK    3  A    between atoms: C_2  and  C_15
REMARK    4  A    between atoms: S_3  and  C_4
REMARK    5  A    between atoms: C_7  and  C_8
REMARK    6  A    between atoms: N_13  and  C_14
REMARK                            x       y       z     vdW  Elec       q    Type
REMARK                         _______ _______ _______ _____ _____    ______ ____
ROOT
ATOM      1  S   UNL     1       2.996   6.472  19.774  0.00  0.00    +0.000 S 
ENDROOT
BRANCH   1   2
ATOM      2  C   UNL     1       1.851   7.736  20.077  0.00  0.00    +0.000 A 
ATOM      3  N   UNL     1       1.161   7.943  21.173  0.00  0.00    +0.000 NA
ATOM      4  N   UNL     1       0.362   9.051  20.954  0.00  0.00    +0.000 NA
ATOM      5  C   UNL     1       0.555   9.460  19.712  0.00  0.00    +0.000 A 
ATOM      6  N   UNL     1       1.534   8.686  19.140  0.00  0.00    +0.000 N 
ATOM      7  C   UNL     1       2.180   8.873  17.869  0.00  0.00    +0.000 C 
BRANCH   5   8
ATOM      8  C   UNL     1      -0.163  10.530  19.083  0.00  0.00    +0.000 A 
ATOM      9  C   UNL     1      -1.314  10.476  18.315  0.00  0.00    +0.000 A 
ATOM     10  C   UNL     1      -1.618  11.799  17.908  0.00  0.00    +0.000 A 
ATOM     11  C   UNL     1      -0.628  12.592  18.435  0.00  0.00    +0.000 A 
ATOM     12  O   UNL     1       0.248  11.842  19.146  0.00  0.00    +0.000 OA
ENDBRANCH   5   8
ENDBRANCH   1   2
BRANCH   1  14
ATOM     13  C   UNL     1       1.478   4.156  19.572  0.00  0.00    +0.000 C 
ATOM     14  C   UNL     1       2.053   5.297  18.729  0.00  0.00    +0.000 C 
BRANCH  14  15
ATOM     15  C   UNL     1       2.998   4.698  17.667  0.00  0.00    +0.000 C 
ATOM     16  O   UNL     1       2.717   3.635  17.110  0.00  0.00    +0.000 OA
ATOM     17  N   UNL     1       4.123   5.453  17.400  0.00  0.00    +0.000 N 
ATOM     18  C   UNL     1       5.049   5.021  16.485  0.00  0.00    +0.000 A 
ATOM     19  N   UNL     1       4.934   4.077  15.586  0.00  0.00    +0.000 NA
ATOM     20  C   UNL     1       6.133   3.905  14.933  0.00  0.00    +0.000 A 
ATOM     21  C   UNL     1       7.152   4.735  15.343  0.00  0.00    +0.000 A 
ATOM     22  S   UNL     1       6.563   5.808  16.553  0.00  0.00    +0.000 S 
ATOM     23  H   UNL     1       4.389   6.213  18.010  0.00  0.00    +0.000 HD
ENDBRANCH  14  15
ENDBRANCH   1  14
TORSDOF 4
ENDMDL
