MODEL 1
REMARK VINA RESULT:      -8.3      0.000      0.000
REMARK  Name = 
REMARK  8 active torsions:
REMARK  status: ('A' for Active; 'I' for Inactive)
REMARK    1  A    between atoms: C_1  and  C_2
REMARK    2  A    between atoms: C_2  and  N_3
REMARK    3  A    between atoms: N_3  and  C_4
REMARK    4  A    between atoms: N_3  and  C_12
REMARK    5  A    between atoms: C_6  and  C_7
REMARK    6  A    between atoms: C_9  and  C_10
REMARK    7  A    between atoms: C_14  and  C_15
REMARK    8  A    between atoms: N_22  and  C_23
REMARK                            x       y       z     vdW  Elec       q    Type
REMARK                         _______ _______ _______ _____ _____    ______ ____
ROOT
ATOM      1  C   UNL     1       5.199   4.971  16.660  0.00  0.00    +0.000 A 
ATOM      2  C   UNL     1       4.243   4.001  17.049  0.00  0.00    +0.000 A 
ATOM      3  C   UNL     1       3.140   4.628  17.619  0.00  0.00    +0.000 A 
ATOM      4  N   UNL     1       3.442   5.981  17.597  0.00  0.00    +0.000 N 
ATOM      5  C   UNL     1       2.675   7.079  18.147  0.00  0.00    +0.000 C 
ATOM      6  C   UNL     1       4.638   6.190  16.947  0.00  0.00    +0.000 A 
ENDROOT
BRANCH   3   7
ATOM      7  C   UNL     1       1.957   4.028  18.222  0.00  0.00    +0.000 C 
ATOM      8  O   UNL     1       0.938   3.811  17.565  0.00  0.00    +0.000 OA
ATOM      9  N   UNL     1       1.974   3.708  19.574  0.00  0.00    +0.000 N 
ATOM     10  C   UNL     1       3.099   3.665  20.491  0.00  0.00    +0.000 C 
ATOM     11  C   UNL     1       2.695   2.619  21.517  0.00  0.00    +0.000 C 
ATOM     12  C   UNL     1       1.181   2.768  21.609  0.00  0.00    +0.000 C 
ATOM     13  C   UNL     1       0.754   3.298  20.244  0.00  0.00    +0.000 C 
ENDBRANCH   3   7
BRANCH   1  14
ATOM     14  N   UNL     1       6.426   4.726  16.100  0.00  0.00    +0.000 N 
BRANCH  14  15
ATOM     15  C   UNL     1       6.677   4.614  14.697  0.00  0.00    +0.000 A 
ATOM     16  C   UNL     1       6.027   3.625  13.928  0.00  0.00    +0.000 A 
ATOM     17  C   UNL     1       6.213   3.504  12.540  0.00  0.00    +0.000 A 
ATOM     18  C   UNL     1       5.481   2.457  11.751  0.00  0.00    +0.000 C 
ATOM     19  C   UNL     1       7.087   4.377  11.888  0.00  0.00    +0.000 A 
ATOM     20  C   UNL     1       7.753   5.366  12.615  0.00  0.00    +0.000 A 
ATOM     21  C   UNL     1       8.692   6.317  11.933  0.00  0.00    +0.000 C 
ATOM     22  C   UNL     1       7.536   5.477  14.001  0.00  0.00    +0.000 A 
ENDBRANCH  14  15
BRANCH  14  24
ATOM     23  C   UNL     1       7.591   5.445  18.191  0.00  0.00    +0.000 C 
ATOM     24  C   UNL     1       7.568   4.480  17.012  0.00  0.00    +0.000 C 
ENDBRANCH  14  24
ENDBRANCH   1  14
TORSDOF 4
ENDMDL
MODEL 2
REMARK VINA RESULT:      -8.0      0.183      1.760
REMARK  Name = 
REMARK  8 active torsions:
REMARK  status: ('A' for Active; 'I' for Inactive)
REMARK    1  A    between atoms: C_1  and  C_2
REMARK    2  A    between atoms: C_2  and  N_3
REMARK    3  A    between atoms: N_3  and  C_4
REMARK    4  A    between atoms: N_3  and  C_12
REMARK    5  A    between atoms: C_6  and  C_7
REMARK    6  A    between atoms: C_9  and  C_10
REMARK    7  A    between atoms: C_14  and  C_15
REMARK    8  A    between atoms: N_22  and  C_23
REMARK                            x       y       z     vdW  Elec       q    Type
REMARK                         _______ _______ _______ _____ _____    ______ ____
ROOT
ATOM      1  C   UNL     1       5.217   5.033  16.599  0.00  0.00    +0.000 A 
ATOM      2  C   UNL     1       4.247   4.073  16.980  0.00  0.00    +0.000 A 
ATOM      3  C   UNL     1       3.173   4.707  17.596  0.00  0.00    +0.000 A 
ATOM      4  N   UNL     1       3.508   6.053  17.610  0.00  0.00    +0.000 N 
ATOM      5  C   UNL     1       2.780   7.150  18.213  0.00  0.00    +0.000 C 
ATOM      6  C   UNL     1       4.693   6.254  16.938  0.00  0.00    +0.000 A 
ENDROOT
BRANCH   3   7
ATOM      7  C   UNL     1       1.990   4.115  18.207  0.00  0.00    +0.000 C 
ATOM      8  O   UNL     1       0.955   3.936  17.566  0.00  0.00    +0.000 OA
ATOM      9  N   UNL     1       2.028   3.762  19.551  0.00  0.00    +0.000 N 
ATOM     10  C   UNL     1       3.169   3.674  20.443  0.00  0.00    +0.000 C 
ATOM     11  C   UNL     1       2.764   2.611  21.451  0.00  0.00    +0.000 C 
ATOM     12  C   UNL     1       1.255   2.787  21.577  0.00  0.00    +0.000 C 
ATOM     13  C   UNL     1       0.813   3.359  20.234  0.00  0.00    +0.000 C 
ENDBRANCH   3   7
BRANCH   1  14
ATOM     14  N   UNL     1       6.424   4.778  16.002  0.00  0.00    +0.000 N 
BRANCH  14  15
ATOM     15  C   UNL     1       6.625   4.623  14.594  0.00  0.00    +0.000 A 
ATOM     16  C   UNL     1       7.471   5.505  13.888  0.00  0.00    +0.000 A 
ATOM     17  C   UNL     1       7.727   5.365  12.514  0.00  0.00    +0.000 A 
ATOM     18  C   UNL     1       8.656   6.306  11.802  0.00  0.00    +0.000 C 
ATOM     19  C   UNL     1       7.114   4.330  11.804  0.00  0.00    +0.000 A 
ATOM     20  C   UNL     1       6.266   3.440  12.466  0.00  0.00    +0.000 A 
ATOM     21  C   UNL     1       5.601   2.319  11.724  0.00  0.00    +0.000 C 
ATOM     22  C   UNL     1       6.038   3.591  13.847  0.00  0.00    +0.000 A 
ENDBRANCH  14  15
BRANCH  14  24
ATOM     23  C   UNL     1       7.284   4.814  18.348  0.00  0.00    +0.000 C 
ATOM     24  C   UNL     1       7.601   4.566  16.879  0.00  0.00    +0.000 C 
ENDBRANCH  14  24
ENDBRANCH   1  14
TORSDOF 4
ENDMDL
MODEL 3
REMARK VINA RESULT:      -7.9      3.491      6.034
REMARK  Name = 
REMARK  8 active torsions:
REMARK  status: ('A' for Active; 'I' for Inactive)
REMARK    1  A    between atoms: C_1  and  C_2
REMARK    2  A    between atoms: C_2  and  N_3
REMARK    3  A    between atoms: N_3  and  C_4
REMARK    4  A    between atoms: N_3  and  C_12
REMARK    5  A    between atoms: C_6  and  C_7
REMARK    6  A    between atoms: C_9  and  C_10
REMARK    7  A    between atoms: C_14  and  C_15
REMARK    8  A    between atoms: N_22  and  C_23
REMARK                            x       y       z     vdW  Elec       q    Type
REMARK                         _______ _______ _______ _____ _____    ______ ____
ROOT
ATOM      1  C   UNL     1       2.467   6.808  18.612  0.00  0.00    +0.000 A 
ATOM      2  C   UNL     1       2.238   8.027  17.928  0.00  0.00    +0.000 A 
ATOM      3  C   UNL     1       1.747   8.980  18.814  0.00  0.00    +0.000 A 
ATOM      4  N   UNL     1       1.655   8.326  20.033  0.00  0.00    +0.000 N 
ATOM      5  C   UNL     1       1.120   8.829  21.281  0.00  0.00    +0.000 C 
ATOM      6  C   UNL     1       2.165   7.051  19.928  0.00  0.00    +0.000 A 
ENDROOT
BRANCH   3   7
ATOM      7  C   UNL     1       1.307  10.342  18.541  0.00  0.00    +0.000 C 
ATOM      8  O   UNL     1       2.112  11.260  18.383  0.00  0.00    +0.000 OA
ATOM      9  N   UNL     1      -0.054  10.613  18.473  0.00  0.00    +0.000 N 
ATOM     10  C   UNL     1      -1.170   9.686  18.408  0.00  0.00    +0.000 C 
ATOM     11  C   UNL     1      -2.239  10.455  17.649  0.00  0.00    +0.000 C 
ATOM     12  C   UNL     1      -2.009  11.903  18.064  0.00  0.00    +0.000 C 
ATOM     13  C   UNL     1      -0.524  11.984  18.402  0.00  0.00    +0.000 C 
ENDBRANCH   3   7
BRANCH   1  14
ATOM     14  N   UNL     1       2.911   5.635  18.059  0.00  0.00    +0.000 N 
BRANCH  14  15
ATOM     15  C   UNL     1       4.271   5.357  17.714  0.00  0.00    +0.000 A 
ATOM     16  C   UNL     1       4.592   4.775  16.468  0.00  0.00    +0.000 A 
ATOM     17  C   UNL     1       5.915   4.522  16.071  0.00  0.00    +0.000 A 
ATOM     18  C   UNL     1       6.219   3.929  14.726  0.00  0.00    +0.000 C 
ATOM     19  C   UNL     1       6.963   4.837  16.941  0.00  0.00    +0.000 A 
ATOM     20  C   UNL     1       6.686   5.408  18.184  0.00  0.00    +0.000 A 
ATOM     21  C   UNL     1       7.797   5.759  19.131  0.00  0.00    +0.000 C 
ATOM     22  C   UNL     1       5.353   5.668  18.551  0.00  0.00    +0.000 A 
ENDBRANCH  14  15
BRANCH  14  24
ATOM     23  C   UNL     1       1.879   3.458  18.722  0.00  0.00    +0.000 C 
ATOM     24  C   UNL     1       1.904   4.603  17.718  0.00  0.00    +0.000 C 
ENDBRANCH  14  24
ENDBRANCH   1  14
TORSDOF 4
ENDMDL
MODEL 4
REMARK VINA RESULT:      -7.9      3.494      6.145
REMARK  Name = 
REMARK  8 active torsions:
REMARK  status: ('A' for Active; 'I' for Inactive)
REMARK    1  A    between atoms: C_1  and  C_2
REMARK    2  A    between atoms: C_2  and  N_3
REMARK    3  A    between atoms: N_3  and  C_4
REMARK    4  A    between atoms: N_3  and  C_12
REMARK    5  A    between atoms: C_6  and  C_7
REMARK    6  A    between atoms: C_9  and  C_10
REMARK    7  A    between atoms: C_14  and  C_15
REMARK    8  A    between atoms: N_22  and  C_23
REMARK                            x       y       z     vdW  Elec       q    Type
REMARK                         _______ _______ _______ _____ _____    ______ ____
ROOT
ATOM      1  C   UNL     1       2.469   6.826  18.597  0.00  0.00    +0.000 A 
ATOM      2  C   UNL     1       2.211   8.042  17.919  0.00  0.00    +0.000 A 
ATOM      3  C   UNL     1       1.727   8.989  18.817  0.00  0.00    +0.000 A 
ATOM      4  N   UNL     1       1.669   8.332  20.037  0.00  0.00    +0.000 N 
ATOM      5  C   UNL     1       1.155   8.828  21.296  0.00  0.00    +0.000 C 
ATOM      6  C   UNL     1       2.192   7.064  19.919  0.00  0.00    +0.000 A 
ENDROOT
BRANCH   3   7
ATOM      7  C   UNL     1       1.264  10.345  18.555  0.00  0.00    +0.000 C 
ATOM      8  O   UNL     1       2.053  11.280  18.415  0.00  0.00    +0.000 OA
ATOM      9  N   UNL     1      -0.101  10.591  18.477  0.00  0.00    +0.000 N 
ATOM     10  C   UNL     1      -1.199   9.646  18.391  0.00  0.00    +0.000 C 
ATOM     11  C   UNL     1      -2.275  10.403  17.630  0.00  0.00    +0.000 C 
ATOM     12  C   UNL     1      -2.076  11.850  18.064  0.00  0.00    +0.000 C 
ATOM     13  C   UNL     1      -0.596  11.954  18.417  0.00  0.00    +0.000 C 
ENDBRANCH   3   7
BRANCH   1  14
ATOM     14  N   UNL     1       2.916   5.659  18.034  0.00  0.00    +0.000 N 
BRANCH  14  15
ATOM     15  C   UNL     1       4.267   5.408  17.634  0.00  0.00    +0.000 A 
ATOM     16  C   UNL     1       5.340   5.717  18.497  0.00  0.00    +0.000 A 
ATOM     17  C   UNL     1       6.678   5.450  18.162  0.00  0.00    +0.000 A 
ATOM     18  C   UNL     1       7.792   5.765  19.118  0.00  0.00    +0.000 C 
ATOM     19  C   UNL     1       6.972   4.876  16.923  0.00  0.00    +0.000 A 
ATOM     20  C   UNL     1       5.938   4.562  16.039  0.00  0.00    +0.000 A 
ATOM     21  C   UNL     1       6.232   3.939  14.705  0.00  0.00    +0.000 C 
ATOM     22  C   UNL     1       4.605   4.822  16.405  0.00  0.00    +0.000 A 
ENDBRANCH  14  15
BRANCH  14  24
ATOM     23  C   UNL     1       2.098   3.371  18.618  0.00  0.00    +0.000 C 
ATOM     24  C   UNL     1       1.918   4.603  17.740  0.00  0.00    +0.000 C 
ENDBRANCH  14  24
ENDBRANCH   1  14
TORSDOF 4
ENDMDL
MODEL 5
REMARK VINA RESULT:      -7.7      1.802      3.194
REMARK  Name = 
REMARK  8 active torsions:
REMARK  status: ('A' for Active; 'I' for Inactive)
REMARK    1  A    between atoms: C_1  and  C_2
REMARK    2  A    between atoms: C_2  and  N_3
REMARK    3  A    between atoms: N_3  and  C_4
REMARK    4  A    between atoms: N_3  and  C_12
REMARK    5  A    between atoms: C_6  and  C_7
REMARK    6  A    between atoms: C_9  and  C_10
REMARK    7  A    between atoms: C_14  and  C_15
REMARK    8  A    between atoms: N_22  and  C_23
REMARK                            x       y       z     vdW  Elec       q    Type
REMARK                         _______ _______ _______ _____ _____    ______ ____
ROOT
ATOM      1  C   UNL     1       5.797   4.729  14.975  0.00  0.00    +0.000 A 
ATOM      2  C   UNL     1       5.612   3.801  16.029  0.00  0.00    +0.000 A 
ATOM      3  C   UNL     1       5.007   4.430  17.111  0.00  0.00    +0.000 A 
ATOM      4  N   UNL     1       4.849   5.751  16.718  0.00  0.00    +0.000 N 
ATOM      5  C   UNL     1       4.349   6.863  17.498  0.00  0.00    +0.000 C 
ATOM      6  C   UNL     1       5.246   5.908  15.409  0.00  0.00    +0.000 A 
ENDROOT
BRANCH   3   7
ATOM      7  C   UNL     1       4.695   3.889  18.427  0.00  0.00    +0.000 C 
ATOM      8  O   UNL     1       5.515   3.914  19.346  0.00  0.00    +0.000 OA
ATOM      9  N   UNL     1       3.449   3.314  18.644  0.00  0.00    +0.000 N 
ATOM     10  C   UNL     1       2.263   3.357  17.809  0.00  0.00    +0.000 C 
ATOM     11  C   UNL     1       1.115   3.237  18.798  0.00  0.00    +0.000 C 
ATOM     12  C   UNL     1       1.676   2.346  19.900  0.00  0.00    +0.000 C 
ATOM     13  C   UNL     1       3.181   2.592  19.874  0.00  0.00    +0.000 C 
ENDBRANCH   3   7
BRANCH   1  14
ATOM     14  N   UNL     1       6.395   4.481  13.767  0.00  0.00    +0.000 N 
BRANCH  14  15
ATOM     15  C   UNL     1       5.828   3.687  12.720  0.00  0.00    +0.000 A 
ATOM     16  C   UNL     1       6.341   2.403  12.434  0.00  0.00    +0.000 A 
ATOM     17  C   UNL     1       5.789   1.574  11.443  0.00  0.00    +0.000 A 
ATOM     18  C   UNL     1       6.344   0.203  11.187  0.00  0.00    +0.000 C 
ATOM     19  C   UNL     1       4.705   2.033  10.692  0.00  0.00    +0.000 A 
ATOM     20  C   UNL     1       4.172   3.300  10.942  0.00  0.00    +0.000 A 
ATOM     21  C   UNL     1       3.004   3.809  10.150  0.00  0.00    +0.000 C 
ATOM     22  C   UNL     1       4.732   4.105  11.952  0.00  0.00    +0.000 A 
ENDBRANCH  14  15
BRANCH  14  24
ATOM     23  C   UNL     1       7.933   5.648  12.180  0.00  0.00    +0.000 C 
ATOM     24  C   UNL     1       7.765   5.004  13.550  0.00  0.00    +0.000 C 
ENDBRANCH  14  24
ENDBRANCH   1  14
TORSDOF 4
ENDMDL
MODEL 6
REMARK VINA RESULT:      -7.6      1.782      3.210
REMARK  Name = 
REMARK  8 active torsions:
REMARK  status: ('A' for Active; 'I' for Inactive)
REMARK    1  A    between atoms: C_1  and  C_2
REMARK    2  A    between atoms: C_2  and  N_3
REMARK    3  A    between atoms: N_3  and  C_4
REMARK    4  A    between atoms: N_3  and  C_12
REMARK    5  A    between atoms: C_6  and  C_7
REMARK    6  A    between atoms: C_9  and  C_10
REMARK    7  A    between atoms: C_14  and  C_15
REMARK    8  A    between atoms: N_22  and  C_23
REMARK                            x       y       z     vdW  Elec       q    Type
REMARK                         _______ _______ _______ _____ _____    ______ ____
ROOT
ATOM      1  C   UNL     1       5.779   4.708  15.046  0.00  0.00    +0.000 A 
ATOM      2  C   UNL     1       5.621   3.788  16.111  0.00  0.00    +0.000 A 
ATOM      3  C   UNL     1       5.011   4.417  17.191  0.00  0.00    +0.000 A 
ATOM      4  N   UNL     1       4.823   5.730  16.785  0.00  0.00    +0.000 N 
ATOM      5  C   UNL     1       4.306   6.841  17.556  0.00  0.00    +0.000 C 
ATOM      6  C   UNL     1       5.208   5.880  15.471  0.00  0.00    +0.000 A 
ENDROOT
BRANCH   3   7
ATOM      7  C   UNL     1       4.718   3.884  18.515  0.00  0.00    +0.000 C 
ATOM      8  O   UNL     1       5.582   3.822  19.390  0.00  0.00    +0.000 OA
ATOM      9  N   UNL     1       3.438   3.419  18.790  0.00  0.00    +0.000 N 
ATOM     10  C   UNL     1       2.220   3.579  18.017  0.00  0.00    +0.000 C 
ATOM     11  C   UNL     1       1.117   3.545  19.063  0.00  0.00    +0.000 C 
ATOM     12  C   UNL     1       1.653   2.591  20.124  0.00  0.00    +0.000 C 
ATOM     13  C   UNL     1       3.170   2.703  20.023  0.00  0.00    +0.000 C 
ENDBRANCH   3   7
BRANCH   1  14
ATOM     14  N   UNL     1       6.375   4.459  13.837  0.00  0.00    +0.000 N 
BRANCH  14  15
ATOM     15  C   UNL     1       5.821   3.635  12.806  0.00  0.00    +0.000 A 
ATOM     16  C   UNL     1       4.725   4.085  12.038  0.00  0.00    +0.000 A 
ATOM     17  C   UNL     1       4.177   3.326  10.991  0.00  0.00    +0.000 A 
ATOM     18  C   UNL     1       3.029   3.850  10.176  0.00  0.00    +0.000 C 
ATOM     19  C   UNL     1       4.713   2.069  10.701  0.00  0.00    +0.000 A 
ATOM     20  C   UNL     1       5.794   1.587  11.442  0.00  0.00    +0.000 A 
ATOM     21  C   UNL     1       6.389   0.242  11.143  0.00  0.00    +0.000 C 
ATOM     22  C   UNL     1       6.337   2.373  12.475  0.00  0.00    +0.000 A 
ENDBRANCH  14  15
BRANCH  14  24
ATOM     23  C   UNL     1       7.881   5.605  12.205  0.00  0.00    +0.000 C 
ATOM     24  C   UNL     1       7.728   5.015  13.601  0.00  0.00    +0.000 C 
ENDBRANCH  14  24
ENDBRANCH   1  14
TORSDOF 4
ENDMDL
MODEL 7
REMARK VINA RESULT:      -7.3      4.054      7.904
REMARK  Name = 
REMARK  8 active torsions:
REMARK  status: ('A' for Active; 'I' for Inactive)
REMARK    1  A    between atoms: C_1  and  C_2
REMARK    2  A    between atoms: C_2  and  N_3
REMARK    3  A    between atoms: N_3  and  C_4
REMARK    4  A    between atoms: N_3  and  C_12
REMARK    5  A    between atoms: C_6  and  C_7
REMARK    6  A    between atoms: C_9  and  C_10
REMARK    7  A    between atoms: C_14  and  C_15
REMARK    8  A    between atoms: N_22  and  C_23
REMARK                            x       y       z     vdW  Elec       q    Type
REMARK                         _______ _______ _______ _____ _____    ______ ____
ROOT
ATOM      1  C   UNL     1       1.839   8.365  19.374  0.00  0.00    +0.000 A 
ATOM      2  C   UNL     1       2.209   7.104  19.901  0.00  0.00    +0.000 A 
ATOM      3  C   UNL     1       3.092   6.470  19.033  0.00  0.00    +0.000 A 
ATOM      4  N   UNL     1       3.237   7.343  17.965  0.00  0.00    +0.000 N 
ATOM      5  C   UNL     1       3.978   7.141  16.738  0.00  0.00    +0.000 C 
ATOM      6  C   UNL     1       2.551   8.512  18.211  0.00  0.00    +0.000 A 
ENDROOT
BRANCH   3   7
ATOM      7  C   UNL     1       3.673   5.138  19.131  0.00  0.00    +0.000 C 
ATOM      8  O   UNL     1       4.798   4.957  19.598  0.00  0.00    +0.000 OA
ATOM      9  N   UNL     1       2.945   4.047  18.670  0.00  0.00    +0.000 N 
ATOM     10  C   UNL     1       1.547   3.975  18.288  0.00  0.00    +0.000 C 
ATOM     11  C   UNL     1       1.162   2.534  18.584  0.00  0.00    +0.000 C 
ATOM     12  C   UNL     1       2.440   1.752  18.307  0.00  0.00    +0.000 C 
ATOM     13  C   UNL     1       3.570   2.742  18.570  0.00  0.00    +0.000 C 
ENDBRANCH   3   7
BRANCH   1  14
ATOM     14  N   UNL     1       0.957   9.254  19.931  0.00  0.00    +0.000 N 
BRANCH  14  15
ATOM     15  C   UNL     1       0.133  10.161  19.193  0.00  0.00    +0.000 A 
ATOM     16  C   UNL     1      -0.912   9.679  18.375  0.00  0.00    +0.000 A 
ATOM     17  C   UNL     1      -1.770  10.535  17.665  0.00  0.00    +0.000 A 
ATOM     18  C   UNL     1      -2.889   9.986  16.828  0.00  0.00    +0.000 C 
ATOM     19  C   UNL     1      -1.581  11.916  17.748  0.00  0.00    +0.000 A 
ATOM     20  C   UNL     1      -0.555  12.432  18.542  0.00  0.00    +0.000 A 
ATOM     21  C   UNL     1      -0.339  13.913  18.649  0.00  0.00    +0.000 C 
ATOM     22  C   UNL     1       0.280  11.554  19.257  0.00  0.00    +0.000 A 
ENDBRANCH  14  15
BRANCH  14  24
ATOM     23  C   UNL     1      -0.420   8.846  21.976  0.00  0.00    +0.000 C 
ATOM     24  C   UNL     1       0.903   9.345  21.410  0.00  0.00    +0.000 C 
ENDBRANCH  14  24
ENDBRANCH   1  14
TORSDOF 4
ENDMDL
MODEL 8
REMARK VINA RESULT:      -7.2      4.094      8.125
REMARK  Name = 
REMARK  8 active torsions:
REMARK  status: ('A' for Active; 'I' for Inactive)
REMARK    1  A    between atoms: C_1  and  C_2
REMARK    2  A    between atoms: C_2  and  N_3
REMARK    3  A    between atoms: N_3  and  C_4
REMARK    4  A    between atoms: N_3  and  C_12
REMARK    5  A    between atoms: C_6  and  C_7
REMARK    6  A    between atoms: C_9  and  C_10
REMARK    7  A    between atoms: C_14  and  C_15
REMARK    8  A    between atoms: N_22  and  C_23
REMARK                            x       y       z     vdW  Elec       q    Type
REMARK                         _______ _______ _______ _____ _____    ______ ____
ROOT
ATOM      1  C   UNL     1       1.806   8.390  19.447  0.00  0.00    +0.000 A 
ATOM      2  C   UNL     1       2.191   7.132  19.970  0.00  0.00    +0.000 A 
ATOM      3  C   UNL     1       3.060   6.500  19.087  0.00  0.00    +0.000 A 
ATOM      4  N   UNL     1       3.181   7.370  18.015  0.00  0.00    +0.000 N 
ATOM      5  C   UNL     1       3.899   7.169  16.774  0.00  0.00    +0.000 C 
ATOM      6  C   UNL     1       2.495   8.537  18.270  0.00  0.00    +0.000 A 
ENDROOT
BRANCH   3   7
ATOM      7  C   UNL     1       3.648   5.170  19.177  0.00  0.00    +0.000 C 
ATOM      8  O   UNL     1       4.776   4.994  19.640  0.00  0.00    +0.000 OA
ATOM      9  N   UNL     1       2.926   4.077  18.714  0.00  0.00    +0.000 N 
ATOM     10  C   UNL     1       1.527   3.999  18.335  0.00  0.00    +0.000 C 
ATOM     11  C   UNL     1       1.150   2.555  18.626  0.00  0.00    +0.000 C 
ATOM     12  C   UNL     1       2.432   1.782  18.341  0.00  0.00    +0.000 C 
ATOM     13  C   UNL     1       3.558   2.776  18.605  0.00  0.00    +0.000 C 
ENDBRANCH   3   7
BRANCH   1  14
ATOM     14  N   UNL     1       0.930   9.276  20.019  0.00  0.00    +0.000 N 
BRANCH  14  15
ATOM     15  C   UNL     1       0.065  10.155  19.294  0.00  0.00    +0.000 A 
ATOM     16  C   UNL     1       0.271  11.551  19.322  0.00  0.00    +0.000 A 
ATOM     17  C   UNL     1      -0.529  12.447  18.593  0.00  0.00    +0.000 A 
ATOM     18  C   UNL     1      -0.260  13.923  18.624  0.00  0.00    +0.000 C 
ATOM     19  C   UNL     1      -1.584  11.951  17.823  0.00  0.00    +0.000 A 
ATOM     20  C   UNL     1      -1.824  10.577  17.774  0.00  0.00    +0.000 A 
ATOM     21  C   UNL     1      -2.948  10.024  16.948  0.00  0.00    +0.000 C 
ATOM     22  C   UNL     1      -0.997   9.699  18.499  0.00  0.00    +0.000 A 
ENDBRANCH  14  15
BRANCH  14  24
ATOM     23  C   UNL     1      -0.377   8.921  22.119  0.00  0.00    +0.000 C 
ATOM     24  C   UNL     1       0.929   9.396  21.496  0.00  0.00    +0.000 C 
ENDBRANCH  14  24
ENDBRANCH   1  14
TORSDOF 4
ENDMDL
MODEL 9
REMARK VINA RESULT:      -7.2      5.469      8.870
REMARK  Name = 
REMARK  8 active torsions:
REMARK  status: ('A' for Active; 'I' for Inactive)
REMARK    1  A    between atoms: C_1  and  C_2
REMARK    2  A    between atoms: C_2  and  N_3
REMARK    3  A    between atoms: N_3  and  C_4
REMARK    4  A    between atoms: N_3  and  C_12
REMARK    5  A    between atoms: C_6  and  C_7
REMARK    6  A    between atoms: C_9  and  C_10
REMARK    7  A    between atoms: C_14  and  C_15
REMARK    8  A    between atoms: N_22  and  C_23
REMARK                            x       y       z     vdW  Elec       q    Type
REMARK                         _______ _______ _______ _____ _____    ______ ____
ROOT
ATOM      1  C   UNL     1       0.582   9.912  20.126  0.00  0.00    +0.000 A 
ATOM      2  C   UNL     1      -0.779   9.898  19.733  0.00  0.00    +0.000 A 
ATOM      3  C   UNL     1      -1.096  11.089  19.088  0.00  0.00    +0.000 A 
ATOM      4  N   UNL     1       0.071  11.836  19.115  0.00  0.00    +0.000 N 
ATOM      5  C   UNL     1       0.276  13.194  18.657  0.00  0.00    +0.000 C 
ATOM      6  C   UNL     1       1.096  11.097  19.662  0.00  0.00    +0.000 A 
ENDROOT
BRANCH   3   7
ATOM      7  C   UNL     1      -2.386  11.539  18.582  0.00  0.00    +0.000 C 
ATOM      8  O   UNL     1      -3.061  12.372  19.188  0.00  0.00    +0.000 OA
ATOM      9  N   UNL     1      -2.873  11.003  17.396  0.00  0.00    +0.000 N 
ATOM     10  C   UNL     1      -2.187  10.190  16.409  0.00  0.00    +0.000 C 
ATOM     11  C   UNL     1      -2.898  10.518  15.107  0.00  0.00    +0.000 C 
ATOM     12  C   UNL     1      -4.337  10.781  15.536  0.00  0.00    +0.000 C 
ATOM     13  C   UNL     1      -4.233  11.279  16.974  0.00  0.00    +0.000 C 
ENDBRANCH   3   7
BRANCH   1  14
ATOM     14  N   UNL     1       1.240   8.930  20.819  0.00  0.00    +0.000 N 
BRANCH  14  15
ATOM     15  C   UNL     1       1.682   7.690  20.259  0.00  0.00    +0.000 A 
ATOM     16  C   UNL     1       2.493   7.671  19.103  0.00  0.00    +0.000 A 
ATOM     17  C   UNL     1       2.982   6.479  18.544  0.00  0.00    +0.000 A 
ATOM     18  C   UNL     1       3.866   6.501  17.331  0.00  0.00    +0.000 C 
ATOM     19  C   UNL     1       2.645   5.258  19.132  0.00  0.00    +0.000 A 
ATOM     20  C   UNL     1       1.840   5.234  20.273  0.00  0.00    +0.000 A 
ATOM     21  C   UNL     1       1.471   3.933  20.924  0.00  0.00    +0.000 C 
ATOM     22  C   UNL     1       1.377   6.443  20.825  0.00  0.00    +0.000 A 
ENDBRANCH  14  15
BRANCH  14  24
ATOM     23  C   UNL     1       0.133   9.326  23.023  0.00  0.00    +0.000 C 
ATOM     24  C   UNL     1       1.444   9.123  22.274  0.00  0.00    +0.000 C 
ENDBRANCH  14  24
ENDBRANCH   1  14
TORSDOF 4
ENDMDL
