MODEL 1
REMARK VINA RESULT:      -7.4      0.000      0.000
REMARK  Name = 
REMARK  5 active torsions:
REMARK  status: ('A' for Active; 'I' for Inactive)
REMARK    1  A    between atoms: C_2  and  C_3
REMARK    2  A    between atoms: C_6  and  O_7
REMARK    3  A    between atoms: O_7  and  C_8
REMARK    4  A    between atoms: C_11  and  S_12
REMARK    5  A    between atoms: S_12  and  N_15
REMARK                            x       y       z     vdW  Elec       q    Type
REMARK                         _______ _______ _______ _____ _____    ______ ____
ROOT
ATOM      1  C   UNL     1       1.388   9.433  18.912  0.00  0.00    +0.000 A 
ATOM      2  C   UNL     1       2.079   8.847  17.858  0.00  0.00    +0.000 A 
ATOM      3  C   UNL     1       2.625   7.576  18.045  0.00  0.00    +0.000 A 
ATOM      4  C   UNL     1       2.451   6.939  19.275  0.00  0.00    +0.000 A 
ATOM      5  C   UNL     1       1.775   7.606  20.278  0.00  0.00    +0.000 A 
ATOM      6  N   UNL     1       1.207   8.825  20.108  0.00  0.00    +0.000 NA
ENDROOT
BRANCH   4   7
ATOM      7  S   UNL     1       3.210   5.382  19.629  0.00  0.00    +0.000 S 
ATOM      8  O   UNL     1       4.643   5.586  19.563  0.00  0.00    +0.000 OA
ATOM      9  O   UNL     1       2.588   4.868  20.830  0.00  0.00    +0.000 OA
BRANCH   7  10
ATOM     10  N   UNL     1       2.768   4.381  18.347  0.00  0.00    +0.000 NA
ATOM     11  C   UNL     1       1.386   3.891  18.237  0.00  0.00    +0.000 C 
ATOM     12  C   UNL     1       1.509   2.400  18.487  0.00  0.00    +0.000 C 
ATOM     13  C   UNL     1       2.852   2.033  17.879  0.00  0.00    +0.000 C 
ATOM     14  C   UNL     1       3.685   3.311  17.904  0.00  0.00    +0.000 C 
ENDBRANCH   7  10
ENDBRANCH   4   7
BRANCH   1  15
ATOM     15  O   UNL     1       0.852  10.698  18.691  0.00  0.00    +0.000 OA
BRANCH  15  19
ATOM     16  C   UNL     1      -3.274  11.039  18.104  0.00  0.00    +0.000 A 
ATOM     17  C   UNL     1      -2.558  10.074  17.388  0.00  0.00    +0.000 A 
ATOM     18  C   UNL     1      -1.183   9.935  17.584  0.00  0.00    +0.000 A 
ATOM     19  C   UNL     1      -0.504  10.787  18.460  0.00  0.00    +0.000 A 
ATOM     20  C   UNL     1      -1.224  11.729  19.203  0.00  0.00    +0.000 A 
ATOM     21  C   UNL     1      -2.605  11.856  19.023  0.00  0.00    +0.000 A 
BRANCH  16  23
ATOM     22  N   UNL     1      -5.827  11.298  17.725  0.00  0.00    +0.000 NA
ATOM     23  C   UNL     1      -4.683  11.175  17.893  0.00  0.00    +0.000 C 
ENDBRANCH  16  23
ENDBRANCH  15  19
ENDBRANCH   1  15
TORSDOF 5
ENDMDL
MODEL 2
REMARK VINA RESULT:      -7.4      0.097      1.013
REMARK  Name = 
REMARK  5 active torsions:
REMARK  status: ('A' for Active; 'I' for Inactive)
REMARK    1  A    between atoms: C_2  and  C_3
REMARK    2  A    between atoms: C_6  and  O_7
REMARK    3  A    between atoms: O_7  and  C_8
REMARK    4  A    between atoms: C_11  and  S_12
REMARK    5  A    between atoms: S_12  and  N_15
REMARK                            x       y       z     vdW  Elec       q    Type
REMARK                         _______ _______ _______ _____ _____    ______ ____
ROOT
ATOM      1  C   UNL     1       1.449   9.403  18.856  0.00  0.00    +0.000 A 
ATOM      2  C   UNL     1       2.164   8.806  17.826  0.00  0.00    +0.000 A 
ATOM      3  C   UNL     1       2.690   7.529  18.034  0.00  0.00    +0.000 A 
ATOM      4  C   UNL     1       2.473   6.900  19.260  0.00  0.00    +0.000 A 
ATOM      5  C   UNL     1       1.775   7.578  20.240  0.00  0.00    +0.000 A 
ATOM      6  N   UNL     1       1.225   8.802  20.049  0.00  0.00    +0.000 NA
ENDROOT
BRANCH   4   7
ATOM      7  S   UNL     1       3.205   5.336  19.642  0.00  0.00    +0.000 S 
ATOM      8  O   UNL     1       4.641   5.515  19.578  0.00  0.00    +0.000 OA
ATOM      9  O   UNL     1       2.569   4.852  20.850  0.00  0.00    +0.000 OA
BRANCH   7  10
ATOM     10  N   UNL     1       2.750   4.322  18.376  0.00  0.00    +0.000 NA
ATOM     11  C   UNL     1       1.371   3.817  18.294  0.00  0.00    +0.000 C 
ATOM     12  C   UNL     1       1.515   2.329  18.552  0.00  0.00    +0.000 C 
ATOM     13  C   UNL     1       2.850   1.971  17.922  0.00  0.00    +0.000 C 
ATOM     14  C   UNL     1       3.670   3.258  17.923  0.00  0.00    +0.000 C 
ENDBRANCH   7  10
ENDBRANCH   4   7
BRANCH   1  15
ATOM     15  O   UNL     1       0.933  10.673  18.615  0.00  0.00    +0.000 OA
BRANCH  15  19
ATOM     16  C   UNL     1      -3.212  10.976  18.158  0.00  0.00    +0.000 A 
ATOM     17  C   UNL     1      -2.556  11.837  19.043  0.00  0.00    +0.000 A 
ATOM     18  C   UNL     1      -1.171  11.761  19.196  0.00  0.00    +0.000 A 
ATOM     19  C   UNL     1      -0.435  10.797  18.501  0.00  0.00    +0.000 A 
ATOM     20  C   UNL     1      -1.084   9.958  17.589  0.00  0.00    +0.000 A 
ATOM     21  C   UNL     1      -2.470  10.046  17.420  0.00  0.00    +0.000 A 
BRANCH  16  23
ATOM     22  N   UNL     1      -5.788  11.141  17.896  0.00  0.00    +0.000 NA
ATOM     23  C   UNL     1      -4.634  11.060  18.012  0.00  0.00    +0.000 C 
ENDBRANCH  16  23
ENDBRANCH  15  19
ENDBRANCH   1  15
TORSDOF 5
ENDMDL
MODEL 3
REMARK VINA RESULT:      -7.3      0.657      1.058
REMARK  Name = 
REMARK  5 active torsions:
REMARK  status: ('A' for Active; 'I' for Inactive)
REMARK    1  A    between atoms: C_2  and  C_3
REMARK    2  A    between atoms: C_6  and  O_7
REMARK    3  A    between atoms: O_7  and  C_8
REMARK    4  A    between atoms: C_11  and  S_12
REMARK    5  A    between atoms: S_12  and  N_15
REMARK                            x       y       z     vdW  Elec       q    Type
REMARK                         _______ _______ _______ _____ _____    ______ ____
ROOT
ATOM      1  C   UNL     1       1.281   9.466  18.888  0.00  0.00    +0.000 A 
ATOM      2  C   UNL     1       1.077   8.977  20.173  0.00  0.00    +0.000 A 
ATOM      3  C   UNL     1       1.609   7.729  20.501  0.00  0.00    +0.000 A 
ATOM      4  C   UNL     1       2.329   7.024  19.535  0.00  0.00    +0.000 A 
ATOM      5  C   UNL     1       2.458   7.572  18.273  0.00  0.00    +0.000 A 
ATOM      6  N   UNL     1       1.981   8.797  17.942  0.00  0.00    +0.000 NA
ENDROOT
BRANCH   4   7
ATOM      7  S   UNL     1       2.931   5.389  19.836  0.00  0.00    +0.000 S 
ATOM      8  O   UNL     1       4.363   5.420  19.619  0.00  0.00    +0.000 OA
ATOM      9  O   UNL     1       2.381   4.959  21.104  0.00  0.00    +0.000 OA
BRANCH   7  10
ATOM     10  N   UNL     1       2.242   4.442  18.625  0.00  0.00    +0.000 NA
ATOM     11  C   UNL     1       1.088   3.582  18.928  0.00  0.00    +0.000 C 
ATOM     12  C   UNL     1       1.638   2.176  18.792  0.00  0.00    +0.000 C 
ATOM     13  C   UNL     1       2.658   2.283  17.672  0.00  0.00    +0.000 C 
ATOM     14  C   UNL     1       3.113   3.740  17.660  0.00  0.00    +0.000 C 
ENDBRANCH   7  10
ENDBRANCH   4   7
BRANCH   1  15
ATOM     15  O   UNL     1       0.743  10.716  18.595  0.00  0.00    +0.000 OA
BRANCH  15  19
ATOM     16  C   UNL     1      -3.398  11.033  18.109  0.00  0.00    +0.000 A 
ATOM     17  C   UNL     1      -2.693  10.075  17.372  0.00  0.00    +0.000 A 
ATOM     18  C   UNL     1      -1.313   9.945  17.534  0.00  0.00    +0.000 A 
ATOM     19  C   UNL     1      -0.619  10.797  18.398  0.00  0.00    +0.000 A 
ATOM     20  C   UNL     1      -1.326  11.731  19.162  0.00  0.00    +0.000 A 
ATOM     21  C   UNL     1      -2.712  11.850  19.016  0.00  0.00    +0.000 A 
BRANCH  16  23
ATOM     22  N   UNL     1      -5.962  11.253  17.783  0.00  0.00    +0.000 NA
ATOM     23  C   UNL     1      -4.812  11.160  17.933  0.00  0.00    +0.000 C 
ENDBRANCH  16  23
ENDBRANCH  15  19
ENDBRANCH   1  15
TORSDOF 5
ENDMDL
MODEL 4
REMARK VINA RESULT:      -7.3      0.710      1.486
REMARK  Name = 
REMARK  5 active torsions:
REMARK  status: ('A' for Active; 'I' for Inactive)
REMARK    1  A    between atoms: C_2  and  C_3
REMARK    2  A    between atoms: C_6  and  O_7
REMARK    3  A    between atoms: O_7  and  C_8
REMARK    4  A    between atoms: C_11  and  S_12
REMARK    5  A    between atoms: S_12  and  N_15
REMARK                            x       y       z     vdW  Elec       q    Type
REMARK                         _______ _______ _______ _____ _____    ______ ____
ROOT
ATOM      1  C   UNL     1       1.276   9.468  18.882  0.00  0.00    +0.000 A 
ATOM      2  C   UNL     1       1.075   9.001  20.174  0.00  0.00    +0.000 A 
ATOM      3  C   UNL     1       1.587   7.748  20.517  0.00  0.00    +0.000 A 
ATOM      4  C   UNL     1       2.286   7.017  19.555  0.00  0.00    +0.000 A 
ATOM      5  C   UNL     1       2.415   7.545  18.285  0.00  0.00    +0.000 A 
ATOM      6  N   UNL     1       1.957   8.773  17.940  0.00  0.00    +0.000 NA
ENDROOT
BRANCH   4   7
ATOM      7  S   UNL     1       2.862   5.376  19.875  0.00  0.00    +0.000 S 
ATOM      8  O   UNL     1       4.282   5.363  19.587  0.00  0.00    +0.000 OA
ATOM      9  O   UNL     1       2.366   4.998  21.182  0.00  0.00    +0.000 OA
BRANCH   7  10
ATOM     10  N   UNL     1       2.089   4.413  18.729  0.00  0.00    +0.000 NA
ATOM     11  C   UNL     1       1.057   3.452  19.149  0.00  0.00    +0.000 C 
ATOM     12  C   UNL     1       1.691   2.101  18.883  0.00  0.00    +0.000 C 
ATOM     13  C   UNL     1       2.536   2.325  17.641  0.00  0.00    +0.000 C 
ATOM     14  C   UNL     1       2.872   3.814  17.628  0.00  0.00    +0.000 C 
ENDBRANCH   7  10
ENDBRANCH   4   7
BRANCH   1  15
ATOM     15  O   UNL     1       0.758  10.723  18.574  0.00  0.00    +0.000 OA
BRANCH  15  19
ATOM     16  C   UNL     1      -3.388  11.004  18.115  0.00  0.00    +0.000 A 
ATOM     17  C   UNL     1      -2.735  11.877  18.992  0.00  0.00    +0.000 A 
ATOM     18  C   UNL     1      -1.350  11.808  19.145  0.00  0.00    +0.000 A 
ATOM     19  C   UNL     1      -0.610  10.840  18.460  0.00  0.00    +0.000 A 
ATOM     20  C   UNL     1      -1.256   9.990  17.556  0.00  0.00    +0.000 A 
ATOM     21  C   UNL     1      -2.642  10.070  17.386  0.00  0.00    +0.000 A 
BRANCH  16  23
ATOM     22  N   UNL     1      -5.965  11.155  17.856  0.00  0.00    +0.000 NA
ATOM     23  C   UNL     1      -4.810  11.081  17.968  0.00  0.00    +0.000 C 
ENDBRANCH  16  23
ENDBRANCH  15  19
ENDBRANCH   1  15
TORSDOF 5
ENDMDL
MODEL 5
REMARK VINA RESULT:      -7.1      1.346      2.034
REMARK  Name = 
REMARK  5 active torsions:
REMARK  status: ('A' for Active; 'I' for Inactive)
REMARK    1  A    between atoms: C_2  and  C_3
REMARK    2  A    between atoms: C_6  and  O_7
REMARK    3  A    between atoms: O_7  and  C_8
REMARK    4  A    between atoms: C_11  and  S_12
REMARK    5  A    between atoms: S_12  and  N_15
REMARK                            x       y       z     vdW  Elec       q    Type
REMARK                         _______ _______ _______ _____ _____    ______ ____
ROOT
ATOM      1  C   UNL     1       1.293   9.701  18.685  0.00  0.00    +0.000 A 
ATOM      2  C   UNL     1       1.200   9.033  19.900  0.00  0.00    +0.000 A 
ATOM      3  C   UNL     1       1.784   7.770  20.012  0.00  0.00    +0.000 A 
ATOM      4  C   UNL     1       2.445   7.230  18.908  0.00  0.00    +0.000 A 
ATOM      5  C   UNL     1       2.465   7.950  17.729  0.00  0.00    +0.000 A 
ATOM      6  N   UNL     1       1.936   9.192  17.607  0.00  0.00    +0.000 NA
ENDROOT
BRANCH   4   7
ATOM      7  S   UNL     1       3.107   5.590  18.933  0.00  0.00    +0.000 S 
ATOM      8  O   UNL     1       3.111   5.115  17.564  0.00  0.00    +0.000 OA
ATOM      9  O   UNL     1       4.329   5.637  19.707  0.00  0.00    +0.000 OA
BRANCH   7  10
ATOM     10  N   UNL     1       1.982   4.680  19.796  0.00  0.00    +0.000 NA
ATOM     11  C   UNL     1       2.214   4.375  21.216  0.00  0.00    +0.000 C 
ATOM     12  C   UNL     1       2.445   2.877  21.232  0.00  0.00    +0.000 C 
ATOM     13  C   UNL     1       1.537   2.350  20.134  0.00  0.00    +0.000 C 
ATOM     14  C   UNL     1       1.344   3.510  19.160  0.00  0.00    +0.000 C 
ENDBRANCH   7  10
ENDBRANCH   4   7
BRANCH   1  15
ATOM     15  O   UNL     1       0.705  10.960  18.608  0.00  0.00    +0.000 OA
BRANCH  15  19
ATOM     16  C   UNL     1      -3.452  11.064  18.177  0.00  0.00    +0.000 A 
ATOM     17  C   UNL     1      -2.827  11.992  19.017  0.00  0.00    +0.000 A 
ATOM     18  C   UNL     1      -1.439  11.983  19.159  0.00  0.00    +0.000 A 
ATOM     19  C   UNL     1      -0.668  11.020  18.502  0.00  0.00    +0.000 A 
ATOM     20  C   UNL     1      -1.287  10.113  17.635  0.00  0.00    +0.000 A 
ATOM     21  C   UNL     1      -2.677  10.134  17.476  0.00  0.00    +0.000 A 
BRANCH  16  23
ATOM     22  N   UNL     1      -6.033  11.099  17.918  0.00  0.00    +0.000 NA
ATOM     23  C   UNL     1      -4.877  11.081  18.041  0.00  0.00    +0.000 C 
ENDBRANCH  16  23
ENDBRANCH  15  19
ENDBRANCH   1  15
TORSDOF 5
ENDMDL
MODEL 6
REMARK VINA RESULT:      -7.0      0.872      1.206
REMARK  Name = 
REMARK  5 active torsions:
REMARK  status: ('A' for Active; 'I' for Inactive)
REMARK    1  A    between atoms: C_2  and  C_3
REMARK    2  A    between atoms: C_6  and  O_7
REMARK    3  A    between atoms: O_7  and  C_8
REMARK    4  A    between atoms: C_11  and  S_12
REMARK    5  A    between atoms: S_12  and  N_15
REMARK                            x       y       z     vdW  Elec       q    Type
REMARK                         _______ _______ _______ _____ _____    ______ ____
ROOT
ATOM      1  C   UNL     1       1.471   9.488  18.987  0.00  0.00    +0.000 A 
ATOM      2  C   UNL     1       2.124   9.192  17.797  0.00  0.00    +0.000 A 
ATOM      3  C   UNL     1       2.735   7.943  17.667  0.00  0.00    +0.000 A 
ATOM      4  C   UNL     1       2.660   7.039  18.727  0.00  0.00    +0.000 A 
ATOM      5  C   UNL     1       2.014   7.427  19.886  0.00  0.00    +0.000 A 
ATOM      6  N   UNL     1       1.385   8.619  20.022  0.00  0.00    +0.000 NA
ENDROOT
BRANCH   4   7
ATOM      7  S   UNL     1       3.505   5.486  18.684  0.00  0.00    +0.000 S 
ATOM      8  O   UNL     1       3.723   5.162  17.289  0.00  0.00    +0.000 OA
ATOM      9  O   UNL     1       4.617   5.581  19.607  0.00  0.00    +0.000 OA
BRANCH   7  10
ATOM     10  N   UNL     1       2.405   4.375  19.311  0.00  0.00    +0.000 NA
ATOM     11  C   UNL     1       2.876   3.275  20.167  0.00  0.00    +0.000 C 
ATOM     12  C   UNL     1       2.635   2.035  19.329  0.00  0.00    +0.000 C 
ATOM     13  C   UNL     1       1.369   2.352  18.552  0.00  0.00    +0.000 C 
ATOM     14  C   UNL     1       1.305   3.874  18.462  0.00  0.00    +0.000 C 
ENDBRANCH   7  10
ENDBRANCH   4   7
BRANCH   1  15
ATOM     15  O   UNL     1       0.868  10.739  19.083  0.00  0.00    +0.000 OA
BRANCH  15  19
ATOM     16  C   UNL     1      -3.188  11.106  18.137  0.00  0.00    +0.000 A 
ATOM     17  C   UNL     1      -2.414  10.148  17.474  0.00  0.00    +0.000 A 
ATOM     18  C   UNL     1      -1.063  10.001  17.789  0.00  0.00    +0.000 A 
ATOM     19  C   UNL     1      -0.462  10.837  18.734  0.00  0.00    +0.000 A 
ATOM     20  C   UNL     1      -1.242  11.771  19.424  0.00  0.00    +0.000 A 
ATOM     21  C   UNL     1      -2.602  11.907  19.124  0.00  0.00    +0.000 A 
BRANCH  16  23
ATOM     22  N   UNL     1      -5.695  11.366  17.521  0.00  0.00    +0.000 NA
ATOM     23  C   UNL     1      -4.573  11.251  17.804  0.00  0.00    +0.000 C 
ENDBRANCH  16  23
ENDBRANCH  15  19
ENDBRANCH   1  15
TORSDOF 5
ENDMDL
MODEL 7
REMARK VINA RESULT:      -6.9      1.879      2.298
REMARK  Name = 
REMARK  5 active torsions:
REMARK  status: ('A' for Active; 'I' for Inactive)
REMARK    1  A    between atoms: C_2  and  C_3
REMARK    2  A    between atoms: C_6  and  O_7
REMARK    3  A    between atoms: O_7  and  C_8
REMARK    4  A    between atoms: C_11  and  S_12
REMARK    5  A    between atoms: S_12  and  N_15
REMARK                            x       y       z     vdW  Elec       q    Type
REMARK                         _______ _______ _______ _____ _____    ______ ____
ROOT
ATOM      1  C   UNL     1       1.601   9.251  19.143  0.00  0.00    +0.000 A 
ATOM      2  C   UNL     1       2.230   9.077  17.917  0.00  0.00    +0.000 A 
ATOM      3  C   UNL     1       2.845   7.851  17.653  0.00  0.00    +0.000 A 
ATOM      4  C   UNL     1       2.799   6.848  18.622  0.00  0.00    +0.000 A 
ATOM      5  C   UNL     1       2.176   7.117  19.826  0.00  0.00    +0.000 A 
ATOM      6  N   UNL     1       1.542   8.285  20.091  0.00  0.00    +0.000 NA
ENDROOT
BRANCH   4   7
ATOM      7  S   UNL     1       3.652   5.314  18.411  0.00  0.00    +0.000 S 
ATOM      8  O   UNL     1       3.941   4.805  19.737  0.00  0.00    +0.000 OA
ATOM      9  O   UNL     1       2.889   4.529  17.464  0.00  0.00    +0.000 OA
BRANCH   7  10
ATOM     10  N   UNL     1       5.114   5.726  17.683  0.00  0.00    +0.000 NA
ATOM     11  C   UNL     1       5.342   5.422  16.262  0.00  0.00    +0.000 C 
ATOM     12  C   UNL     1       6.420   4.356  16.288  0.00  0.00    +0.000 C 
ATOM     13  C   UNL     1       7.285   4.732  17.478  0.00  0.00    +0.000 C 
ATOM     14  C   UNL     1       6.380   5.526  18.417  0.00  0.00    +0.000 C 
ENDBRANCH   7  10
ENDBRANCH   4   7
BRANCH   1  15
ATOM     15  O   UNL     1       0.993  10.482  19.373  0.00  0.00    +0.000 OA
BRANCH  15  19
ATOM     16  C   UNL     1      -2.864  11.153  17.904  0.00  0.00    +0.000 A 
ATOM     17  C   UNL     1      -2.080  10.143  17.335  0.00  0.00    +0.000 A 
ATOM     18  C   UNL     1      -0.797   9.894  17.824  0.00  0.00    +0.000 A 
ATOM     19  C   UNL     1      -0.268  10.679  18.853  0.00  0.00    +0.000 A 
ATOM     20  C   UNL     1      -1.062  11.666  19.446  0.00  0.00    +0.000 A 
ATOM     21  C   UNL     1      -2.357  11.904  18.971  0.00  0.00    +0.000 A 
BRANCH  16  23
ATOM     22  N   UNL     1      -5.244  11.616  16.982  0.00  0.00    +0.000 NA
ATOM     23  C   UNL     1      -4.177  11.402  17.392  0.00  0.00    +0.000 C 
ENDBRANCH  16  23
ENDBRANCH  15  19
ENDBRANCH   1  15
TORSDOF 5
ENDMDL
MODEL 8
REMARK VINA RESULT:      -6.8      1.051      1.234
REMARK  Name = 
REMARK  5 active torsions:
REMARK  status: ('A' for Active; 'I' for Inactive)
REMARK    1  A    between atoms: C_2  and  C_3
REMARK    2  A    between atoms: C_6  and  O_7
REMARK    3  A    between atoms: O_7  and  C_8
REMARK    4  A    between atoms: C_11  and  S_12
REMARK    5  A    between atoms: S_12  and  N_15
REMARK                            x       y       z     vdW  Elec       q    Type
REMARK                         _______ _______ _______ _____ _____    ______ ____
ROOT
ATOM      1  C   UNL     1       1.720   8.921  19.232  0.00  0.00    +0.000 A 
ATOM      2  C   UNL     1       2.290   8.930  17.966  0.00  0.00    +0.000 A 
ATOM      3  C   UNL     1       2.981   7.794  17.539  0.00  0.00    +0.000 A 
ATOM      4  C   UNL     1       3.068   6.694  18.394  0.00  0.00    +0.000 A 
ATOM      5  C   UNL     1       2.496   6.782  19.649  0.00  0.00    +0.000 A 
ATOM      6  N   UNL     1       1.790   7.859  20.070  0.00  0.00    +0.000 NA
ENDROOT
BRANCH   4   7
ATOM      7  S   UNL     1       4.024   5.267  17.975  0.00  0.00    +0.000 S 
ATOM      8  O   UNL     1       4.802   5.610  16.801  0.00  0.00    +0.000 OA
ATOM      9  O   UNL     1       4.671   4.816  19.189  0.00  0.00    +0.000 OA
BRANCH   7  10
ATOM     10  N   UNL     1       2.893   4.102  17.527  0.00  0.00    +0.000 NA
ATOM     11  C   UNL     1       1.458   4.349  17.734  0.00  0.00    +0.000 C 
ATOM     12  C   UNL     1       1.071   3.353  18.809  0.00  0.00    +0.000 C 
ATOM     13  C   UNL     1       1.942   2.142  18.525  0.00  0.00    +0.000 C 
ATOM     14  C   UNL     1       3.169   2.675  17.789  0.00  0.00    +0.000 C 
ENDBRANCH   7  10
ENDBRANCH   4   7
BRANCH   1  15
ATOM     15  O   UNL     1       1.032  10.066  19.625  0.00  0.00    +0.000 OA
BRANCH  15  19
ATOM     16  C   UNL     1      -2.619  10.983  17.806  0.00  0.00    +0.000 A 
ATOM     17  C   UNL     1      -1.797  10.005  17.237  0.00  0.00    +0.000 A 
ATOM     18  C   UNL     1      -0.583   9.674  17.840  0.00  0.00    +0.000 A 
ATOM     19  C   UNL     1      -0.158  10.347  18.989  0.00  0.00    +0.000 A 
ATOM     20  C   UNL     1      -0.994  11.301  19.579  0.00  0.00    +0.000 A 
ATOM     21  C   UNL     1      -2.221  11.619  18.987  0.00  0.00    +0.000 A 
BRANCH  16  23
ATOM     22  N   UNL     1      -4.864  11.591  16.656  0.00  0.00    +0.000 NA
ATOM     23  C   UNL     1      -3.861  11.316  17.177  0.00  0.00    +0.000 C 
ENDBRANCH  16  23
ENDBRANCH  15  19
ENDBRANCH   1  15
TORSDOF 5
ENDMDL
MODEL 9
REMARK VINA RESULT:      -6.7      1.922      2.538
REMARK  Name = 
REMARK  5 active torsions:
REMARK  status: ('A' for Active; 'I' for Inactive)
REMARK    1  A    between atoms: C_2  and  C_3
REMARK    2  A    between atoms: C_6  and  O_7
REMARK    3  A    between atoms: O_7  and  C_8
REMARK    4  A    between atoms: C_11  and  S_12
REMARK    5  A    between atoms: S_12  and  N_15
REMARK                            x       y       z     vdW  Elec       q    Type
REMARK                         _______ _______ _______ _____ _____    ______ ____
ROOT
ATOM      1  C   UNL     1       1.401   9.747  18.673  0.00  0.00    +0.000 A 
ATOM      2  C   UNL     1       1.270   8.955  19.806  0.00  0.00    +0.000 A 
ATOM      3  C   UNL     1       1.889   7.703  19.819  0.00  0.00    +0.000 A 
ATOM      4  C   UNL     1       2.620   7.298  18.702  0.00  0.00    +0.000 A 
ATOM      5  C   UNL     1       2.675   8.137  17.605  0.00  0.00    +0.000 A 
ATOM      6  N   UNL     1       2.112   9.370  17.583  0.00  0.00    +0.000 NA
ENDROOT
BRANCH   4   7
ATOM      7  S   UNL     1       3.333   5.684  18.595  0.00  0.00    +0.000 S 
ATOM      8  O   UNL     1       3.622   5.259  19.950  0.00  0.00    +0.000 OA
ATOM      9  O   UNL     1       2.474   4.895  17.736  0.00  0.00    +0.000 OA
BRANCH   7  10
ATOM     10  N   UNL     1       4.799   5.908  17.796  0.00  0.00    +0.000 NA
ATOM     11  C   UNL     1       4.953   5.468  16.401  0.00  0.00    +0.000 C 
ATOM     12  C   UNL     1       5.939   4.320  16.490  0.00  0.00    +0.000 C 
ATOM     13  C   UNL     1       6.872   4.718  17.621  0.00  0.00    +0.000 C 
ATOM     14  C   UNL     1       6.068   5.662  18.511  0.00  0.00    +0.000 C 
ENDBRANCH   7  10
ENDBRANCH   4   7
BRANCH   1  15
ATOM     15  O   UNL     1       0.777  10.991  18.694  0.00  0.00    +0.000 OA
BRANCH  15  19
ATOM     16  C   UNL     1      -3.373  11.008  18.190  0.00  0.00    +0.000 A 
ATOM     17  C   UNL     1      -2.787  11.922  19.072  0.00  0.00    +0.000 A 
ATOM     18  C   UNL     1      -1.401  11.941  19.240  0.00  0.00    +0.000 A 
ATOM     19  C   UNL     1      -0.595  11.021  18.565  0.00  0.00    +0.000 A 
ATOM     20  C   UNL     1      -1.176  10.130  17.656  0.00  0.00    +0.000 A 
ATOM     21  C   UNL     1      -2.563  10.122  17.471  0.00  0.00    +0.000 A 
BRANCH  16  23
ATOM     22  N   UNL     1      -5.952  10.994  17.906  0.00  0.00    +0.000 NA
ATOM     23  C   UNL     1      -4.796  10.995  18.028  0.00  0.00    +0.000 C 
ENDBRANCH  16  23
ENDBRANCH  15  19
ENDBRANCH   1  15
TORSDOF 5
ENDMDL
