MODEL 1
REMARK VINA RESULT:      -8.0      0.000      0.000
REMARK  Name = 
REMARK  9 active torsions:
REMARK  status: ('A' for Active; 'I' for Inactive)
REMARK    1  A    between atoms: C_1  and  C_2
REMARK    2  A    between atoms: C_2  and  N_3
REMARK    3  A    between atoms: C_6  and  C_7
REMARK    4  A    between atoms: C_7  and  C_8
REMARK    5  A    between atoms: N_10  and  C_11
REMARK    6  A    between atoms: C_11  and  C_12
REMARK    7  A    between atoms: C_12  and  C_13
REMARK    8  A    between atoms: N_19  and  N_20
REMARK    9  A    between atoms: C_21  and  C_23
REMARK                            x       y       z     vdW  Elec       q    Type
REMARK                         _______ _______ _______ _____ _____    ______ ____
ROOT
ATOM      1  N   UNL     1       4.103   3.672  19.370  0.00  0.00    +0.000 N 
ATOM      2  C   UNL     1       5.221   4.371  18.973  0.00  0.00    +0.000 C 
ATOM      3  O   UNL     1       6.292   3.882  18.624  0.00  0.00    +0.000 OA
ATOM      4  C   UNL     1       4.920   5.876  18.981  0.00  0.00    +0.000 C 
ATOM      5  N   UNL     1       3.573   5.836  19.518  0.00  0.00    +0.000 N 
ATOM      6  C   UNL     1       3.103   4.541  19.736  0.00  0.00    +0.000 C 
ATOM      7  S   UNL     1       1.592   4.168  20.341  0.00  0.00    +0.000 S 
ENDROOT
BRANCH   5   8
ATOM      8  N   UNL     1       2.813   6.986  19.734  0.00  0.00    +0.000 N 
ATOM      9  C   UNL     1       2.128   7.642  18.737  0.00  0.00    +0.000 C 
ATOM     10  O   UNL     1       2.019   7.237  17.575  0.00  0.00    +0.000 OA
ATOM     11  H   UNL     1       2.852   7.355  20.684  0.00  0.00    +0.000 HD
BRANCH   9  12
ATOM     12  C   UNL     1       1.431   8.882  19.123  0.00  0.00    +0.000 A 
ATOM     13  C   UNL     1       0.861   9.756  18.195  0.00  0.00    +0.000 A 
ATOM     14  C   UNL     1       0.147  10.861  18.660  0.00  0.00    +0.000 A 
ATOM     15  C   UNL     1       0.049  11.056  20.028  0.00  0.00    +0.000 A 
ATOM     16  N   UNL     1       0.618  10.249  20.950  0.00  0.00    +0.000 NA
ATOM     17  C   UNL     1       1.284   9.168  20.475  0.00  0.00    +0.000 A 
ENDBRANCH   9  12
ENDBRANCH   5   8
BRANCH   1  19
ATOM     18  C   UNL     1       3.359   1.730  18.056  0.00  0.00    +0.000 C 
ATOM     19  C   UNL     1       4.051   2.218  19.316  0.00  0.00    +0.000 C 
ENDBRANCH   1  19
BRANCH   4  20
ATOM     20  C   UNL     1       5.065   6.438  17.570  0.00  0.00    +0.000 C 
BRANCH  20  21
ATOM     21  C   UNL     1       6.492   6.866  17.311  0.00  0.00    +0.000 C 
ATOM     22  O   UNL     1       7.180   6.355  16.428  0.00  0.00    +0.000 OA
ATOM     23  N   UNL     1       6.921   7.917  18.079  0.00  0.00    +0.000 N 
ATOM     24  H   UNL     1       6.367   8.217  18.873  0.00  0.00    +0.000 HD
BRANCH  23  25
ATOM     25  C   UNL     1       8.265   8.437  17.917  0.00  0.00    +0.000 C 
BRANCH  25  26
ATOM     26  C   UNL     1       8.280   9.948  17.654  0.00  0.00    +0.000 C 
BRANCH  26  27
ATOM     27  C   UNL     1       9.361  10.630  18.449  0.00  0.00    +0.000 A 
ATOM     28  C   UNL     1       9.273  10.688  19.848  0.00  0.00    +0.000 A 
ATOM     29  C   UNL     1      10.239  11.370  20.586  0.00  0.00    +0.000 A 
ATOM     30  C   UNL     1      11.309  11.982  19.938  0.00  0.00    +0.000 A 
ATOM     31  C   UNL     1      11.408  11.923  18.548  0.00  0.00    +0.000 A 
ATOM     32  C   UNL     1      10.433  11.256  17.806  0.00  0.00    +0.000 A 
ENDBRANCH  26  27
ENDBRANCH  25  26
ENDBRANCH  23  25
ENDBRANCH  20  21
ENDBRANCH   4  20
TORSDOF 8
ENDMDL
MODEL 2
REMARK VINA RESULT:      -8.0      0.807      1.071
REMARK  Name = 
REMARK  9 active torsions:
REMARK  status: ('A' for Active; 'I' for Inactive)
REMARK    1  A    between atoms: C_1  and  C_2
REMARK    2  A    between atoms: C_2  and  N_3
REMARK    3  A    between atoms: C_6  and  C_7
REMARK    4  A    between atoms: C_7  and  C_8
REMARK    5  A    between atoms: N_10  and  C_11
REMARK    6  A    between atoms: C_11  and  C_12
REMARK    7  A    between atoms: C_12  and  C_13
REMARK    8  A    between atoms: N_19  and  N_20
REMARK    9  A    between atoms: C_21  and  C_23
REMARK                            x       y       z     vdW  Elec       q    Type
REMARK                         _______ _______ _______ _____ _____    ______ ____
ROOT
ATOM      1  N   UNL     1       4.195   3.632  19.392  0.00  0.00    +0.000 N 
ATOM      2  C   UNL     1       5.318   4.287  18.939  0.00  0.00    +0.000 C 
ATOM      3  O   UNL     1       6.358   3.757  18.557  0.00  0.00    +0.000 OA
ATOM      4  C   UNL     1       5.066   5.801  18.932  0.00  0.00    +0.000 C 
ATOM      5  N   UNL     1       3.741   5.815  19.522  0.00  0.00    +0.000 N 
ATOM      6  C   UNL     1       3.239   4.539  19.782  0.00  0.00    +0.000 C 
ATOM      7  S   UNL     1       1.742   4.226  20.452  0.00  0.00    +0.000 S 
ENDROOT
BRANCH   5   8
ATOM      8  N   UNL     1       3.028   6.993  19.747  0.00  0.00    +0.000 N 
ATOM      9  C   UNL     1       2.228   7.588  18.799  0.00  0.00    +0.000 C 
ATOM     10  O   UNL     1       1.965   7.102  17.694  0.00  0.00    +0.000 OA
ATOM     11  H   UNL     1       3.193   7.428  20.654  0.00  0.00    +0.000 HD
BRANCH   9  12
ATOM     12  C   UNL     1       1.599   8.867  19.177  0.00  0.00    +0.000 A 
ATOM     13  C   UNL     1       1.010   9.086  20.424  0.00  0.00    +0.000 A 
ATOM     14  C   UNL     1       0.516  10.358  20.721  0.00  0.00    +0.000 A 
ATOM     15  C   UNL     1       0.616  11.347  19.756  0.00  0.00    +0.000 A 
ATOM     16  N   UNL     1       1.148  11.157  18.529  0.00  0.00    +0.000 NA
ATOM     17  C   UNL     1       1.644   9.922  18.273  0.00  0.00    +0.000 A 
ENDBRANCH   9  12
ENDBRANCH   5   8
BRANCH   1  19
ATOM     18  C   UNL     1       3.426   1.688  18.095  0.00  0.00    +0.000 C 
ATOM     19  C   UNL     1       4.094   2.180  19.366  0.00  0.00    +0.000 C 
ENDBRANCH   1  19
BRANCH   4  20
ATOM     20  C   UNL     1       5.172   6.334  17.506  0.00  0.00    +0.000 C 
BRANCH  20  21
ATOM     21  C   UNL     1       6.547   6.913  17.255  0.00  0.00    +0.000 C 
ATOM     22  O   UNL     1       7.393   6.326  16.582  0.00  0.00    +0.000 OA
ATOM     23  N   UNL     1       6.738   8.170  17.764  0.00  0.00    +0.000 N 
ATOM     24  H   UNL     1       6.063   8.557  18.414  0.00  0.00    +0.000 HD
BRANCH  23  25
ATOM     25  C   UNL     1       8.008   8.848  17.578  0.00  0.00    +0.000 C 
BRANCH  25  26
ATOM     26  C   UNL     1       8.813   8.950  18.879  0.00  0.00    +0.000 C 
BRANCH  26  27
ATOM     27  C   UNL     1       9.313  10.352  19.102  0.00  0.00    +0.000 A 
ATOM     28  C   UNL     1       9.516  10.827  20.405  0.00  0.00    +0.000 A 
ATOM     29  C   UNL     1       9.922  12.143  20.621  0.00  0.00    +0.000 A 
ATOM     30  C   UNL     1      10.146  12.990  19.537  0.00  0.00    +0.000 A 
ATOM     31  C   UNL     1       9.953  12.525  18.237  0.00  0.00    +0.000 A 
ATOM     32  C   UNL     1       9.531  11.212  18.020  0.00  0.00    +0.000 A 
ENDBRANCH  26  27
ENDBRANCH  25  26
ENDBRANCH  23  25
ENDBRANCH  20  21
ENDBRANCH   4  20
TORSDOF 8
ENDMDL
MODEL 3
REMARK VINA RESULT:      -7.9      4.262      8.261
REMARK  Name = 
REMARK  9 active torsions:
REMARK  status: ('A' for Active; 'I' for Inactive)
REMARK    1  A    between atoms: C_1  and  C_2
REMARK    2  A    between atoms: C_2  and  N_3
REMARK    3  A    between atoms: C_6  and  C_7
REMARK    4  A    between atoms: C_7  and  C_8
REMARK    5  A    between atoms: N_10  and  C_11
REMARK    6  A    between atoms: C_11  and  C_12
REMARK    7  A    between atoms: C_12  and  C_13
REMARK    8  A    between atoms: N_19  and  N_20
REMARK    9  A    between atoms: C_21  and  C_23
REMARK                            x       y       z     vdW  Elec       q    Type
REMARK                         _______ _______ _______ _____ _____    ______ ____
ROOT
ATOM      1  N   UNL     1       2.552   4.361  20.546  0.00  0.00    +0.000 N 
ATOM      2  C   UNL     1       1.853   5.471  20.128  0.00  0.00    +0.000 C 
ATOM      3  O   UNL     1       0.874   5.960  20.685  0.00  0.00    +0.000 OA
ATOM      4  C   UNL     1       2.512   6.053  18.869  0.00  0.00    +0.000 C 
ATOM      5  N   UNL     1       3.541   5.051  18.667  0.00  0.00    +0.000 N 
ATOM      6  C   UNL     1       3.558   4.069  19.658  0.00  0.00    +0.000 C 
ATOM      7  S   UNL     1       4.627   2.787  19.705  0.00  0.00    +0.000 S 
ENDROOT
BRANCH   5   8
ATOM      8  N   UNL     1       4.453   5.110  17.613  0.00  0.00    +0.000 N 
ATOM      9  C   UNL     1       4.398   4.281  16.516  0.00  0.00    +0.000 C 
ATOM     10  O   UNL     1       3.490   3.476  16.286  0.00  0.00    +0.000 OA
ATOM     11  H   UNL     1       5.216   5.774  17.741  0.00  0.00    +0.000 HD
BRANCH   9  12
ATOM     12  C   UNL     1       5.481   4.429  15.525  0.00  0.00    +0.000 A 
ATOM     13  C   UNL     1       5.428   3.864  14.249  0.00  0.00    +0.000 A 
ATOM     14  C   UNL     1       6.463   4.130  13.351  0.00  0.00    +0.000 A 
ATOM     15  C   UNL     1       7.512   4.931  13.772  0.00  0.00    +0.000 A 
ATOM     16  N   UNL     1       7.610   5.462  15.010  0.00  0.00    +0.000 NA
ATOM     17  C   UNL     1       6.581   5.212  15.855  0.00  0.00    +0.000 A 
ENDBRANCH   9  12
ENDBRANCH   5   8
BRANCH   1  19
ATOM     18  C   UNL     1       1.313   2.508  21.589  0.00  0.00    +0.000 C 
ATOM     19  C   UNL     1       2.242   3.690  21.801  0.00  0.00    +0.000 C 
ENDBRANCH   1  19
BRANCH   4  20
ATOM     20  C   UNL     1       3.000   7.470  19.152  0.00  0.00    +0.000 C 
BRANCH  20  21
ATOM     21  C   UNL     1       2.132   8.484  18.441  0.00  0.00    +0.000 C 
ATOM     22  O   UNL     1       2.067   8.545  17.214  0.00  0.00    +0.000 OA
ATOM     23  N   UNL     1       1.370   9.265  19.269  0.00  0.00    +0.000 N 
ATOM     24  H   UNL     1       1.551   9.265  20.267  0.00  0.00    +0.000 HD
BRANCH  23  25
ATOM     25  C   UNL     1       0.479  10.266  18.713  0.00  0.00    +0.000 C 
BRANCH  25  26
ATOM     26  C   UNL     1      -0.966  10.101  19.201  0.00  0.00    +0.000 C 
BRANCH  26  27
ATOM     27  C   UNL     1      -1.950  10.406  18.103  0.00  0.00    +0.000 A 
ATOM     28  C   UNL     1      -2.990  11.319  18.327  0.00  0.00    +0.000 A 
ATOM     29  C   UNL     1      -3.941  11.561  17.336  0.00  0.00    +0.000 A 
ATOM     30  C   UNL     1      -3.850  10.908  16.108  0.00  0.00    +0.000 A 
ATOM     31  C   UNL     1      -2.815  10.003  15.875  0.00  0.00    +0.000 A 
ATOM     32  C   UNL     1      -1.872   9.747  16.872  0.00  0.00    +0.000 A 
ENDBRANCH  26  27
ENDBRANCH  25  26
ENDBRANCH  23  25
ENDBRANCH  20  21
ENDBRANCH   4  20
TORSDOF 8
ENDMDL
MODEL 4
REMARK VINA RESULT:      -7.8      4.191      7.923
REMARK  Name = 
REMARK  9 active torsions:
REMARK  status: ('A' for Active; 'I' for Inactive)
REMARK    1  A    between atoms: C_1  and  C_2
REMARK    2  A    between atoms: C_2  and  N_3
REMARK    3  A    between atoms: C_6  and  C_7
REMARK    4  A    between atoms: C_7  and  C_8
REMARK    5  A    between atoms: N_10  and  C_11
REMARK    6  A    between atoms: C_11  and  C_12
REMARK    7  A    between atoms: C_12  and  C_13
REMARK    8  A    between atoms: N_19  and  N_20
REMARK    9  A    between atoms: C_21  and  C_23
REMARK                            x       y       z     vdW  Elec       q    Type
REMARK                         _______ _______ _______ _____ _____    ______ ____
ROOT
ATOM      1  N   UNL     1       1.921   3.204  19.658  0.00  0.00    +0.000 N 
ATOM      2  C   UNL     1       1.541   4.524  19.574  0.00  0.00    +0.000 C 
ATOM      3  O   UNL     1       0.749   5.096  20.318  0.00  0.00    +0.000 OA
ATOM      4  C   UNL     1       2.299   5.209  18.428  0.00  0.00    +0.000 C 
ATOM      5  N   UNL     1       3.009   4.058  17.905  0.00  0.00    +0.000 N 
ATOM      6  C   UNL     1       2.784   2.891  18.636  0.00  0.00    +0.000 C 
ATOM      7  S   UNL     1       3.464   1.406  18.286  0.00  0.00    +0.000 S 
ENDROOT
BRANCH   5   8
ATOM      8  N   UNL     1       3.873   4.138  16.812  0.00  0.00    +0.000 N 
ATOM      9  C   UNL     1       5.235   4.293  16.933  0.00  0.00    +0.000 C 
ATOM     10  O   UNL     1       5.855   4.272  18.001  0.00  0.00    +0.000 OA
ATOM     11  H   UNL     1       3.416   4.140  15.901  0.00  0.00    +0.000 HD
BRANCH   9  12
ATOM     12  C   UNL     1       5.995   4.430  15.677  0.00  0.00    +0.000 A 
ATOM     13  C   UNL     1       5.630   3.789  14.492  0.00  0.00    +0.000 A 
ATOM     14  C   UNL     1       6.363   4.048  13.332  0.00  0.00    +0.000 A 
ATOM     15  C   UNL     1       7.438   4.918  13.411  0.00  0.00    +0.000 A 
ATOM     16  N   UNL     1       7.838   5.526  14.549  0.00  0.00    +0.000 NA
ATOM     17  C   UNL     1       7.095   5.280  15.656  0.00  0.00    +0.000 A 
ENDBRANCH   9  12
ENDBRANCH   5   8
BRANCH   1  19
ATOM     18  C   UNL     1       2.292   2.569  22.006  0.00  0.00    +0.000 C 
ATOM     19  C   UNL     1       1.474   2.347  20.747  0.00  0.00    +0.000 C 
ENDBRANCH   1  19
BRANCH   4  20
ATOM     20  C   UNL     1       3.163   6.336  18.984  0.00  0.00    +0.000 C 
BRANCH  20  21
ATOM     21  C   UNL     1       2.339   7.587  19.190  0.00  0.00    +0.000 C 
ATOM     22  O   UNL     1       1.991   7.967  20.308  0.00  0.00    +0.000 OA
ATOM     23  N   UNL     1       2.086   8.300  18.047  0.00  0.00    +0.000 N 
ATOM     24  H   UNL     1       2.282   7.884  17.143  0.00  0.00    +0.000 HD
BRANCH  23  25
ATOM     25  C   UNL     1       1.320   9.530  18.109  0.00  0.00    +0.000 C 
BRANCH  25  26
ATOM     26  C   UNL     1      -0.085   9.376  17.512  0.00  0.00    +0.000 C 
BRANCH  26  27
ATOM     27  C   UNL     1      -1.044  10.368  18.113  0.00  0.00    +0.000 A 
ATOM     28  C   UNL     1      -0.622  11.214  19.148  0.00  0.00    +0.000 A 
ATOM     29  C   UNL     1      -1.522  12.094  19.750  0.00  0.00    +0.000 A 
ATOM     30  C   UNL     1      -2.843  12.149  19.311  0.00  0.00    +0.000 A 
ATOM     31  C   UNL     1      -3.269  11.316  18.277  0.00  0.00    +0.000 A 
ATOM     32  C   UNL     1      -2.375  10.423  17.685  0.00  0.00    +0.000 A 
ENDBRANCH  26  27
ENDBRANCH  25  26
ENDBRANCH  23  25
ENDBRANCH  20  21
ENDBRANCH   4  20
TORSDOF 8
ENDMDL
MODEL 5
REMARK VINA RESULT:      -7.6      4.274      7.632
REMARK  Name = 
REMARK  9 active torsions:
REMARK  status: ('A' for Active; 'I' for Inactive)
REMARK    1  A    between atoms: C_1  and  C_2
REMARK    2  A    between atoms: C_2  and  N_3
REMARK    3  A    between atoms: C_6  and  C_7
REMARK    4  A    between atoms: C_7  and  C_8
REMARK    5  A    between atoms: N_10  and  C_11
REMARK    6  A    between atoms: C_11  and  C_12
REMARK    7  A    between atoms: C_12  and  C_13
REMARK    8  A    between atoms: N_19  and  N_20
REMARK    9  A    between atoms: C_21  and  C_23
REMARK                            x       y       z     vdW  Elec       q    Type
REMARK                         _______ _______ _______ _____ _____    ______ ____
ROOT
ATOM      1  N   UNL     1       2.699   3.954  20.052  0.00  0.00    +0.000 N 
ATOM      2  C   UNL     1       2.201   5.208  19.778  0.00  0.00    +0.000 C 
ATOM      3  O   UNL     1       1.510   5.891  20.529  0.00  0.00    +0.000 OA
ATOM      4  C   UNL     1       2.679   5.662  18.392  0.00  0.00    +0.000 C 
ATOM      5  N   UNL     1       3.377   4.458  17.985  0.00  0.00    +0.000 N 
ATOM      6  C   UNL     1       3.387   3.467  18.967  0.00  0.00    +0.000 C 
ATOM      7  S   UNL     1       4.115   1.973  18.801  0.00  0.00    +0.000 S 
ENDROOT
BRANCH   5   8
ATOM      8  N   UNL     1       4.021   4.339  16.753  0.00  0.00    +0.000 N 
ATOM      9  C   UNL     1       5.365   4.573  16.573  0.00  0.00    +0.000 C 
ATOM     10  O   UNL     1       6.167   4.806  17.484  0.00  0.00    +0.000 OA
ATOM     11  H   UNL     1       3.407   4.128  15.966  0.00  0.00    +0.000 HD
BRANCH   9  12
ATOM     12  C   UNL     1       5.872   4.470  15.193  0.00  0.00    +0.000 A 
ATOM     13  C   UNL     1       7.077   5.042  14.780  0.00  0.00    +0.000 A 
ATOM     14  C   UNL     1       7.516   4.818  13.473  0.00  0.00    +0.000 A 
ATOM     15  C   UNL     1       6.725   4.051  12.633  0.00  0.00    +0.000 A 
ATOM     16  N   UNL     1       5.539   3.515  12.992  0.00  0.00    +0.000 NA
ATOM     17  C   UNL     1       5.146   3.723  14.272  0.00  0.00    +0.000 A 
ENDBRANCH   9  12
ENDBRANCH   5   8
BRANCH   1  19
ATOM     18  C   UNL     1       1.236   2.543  21.439  0.00  0.00    +0.000 C 
ATOM     19  C   UNL     1       2.530   3.333  21.358  0.00  0.00    +0.000 C 
ENDBRANCH   1  19
BRANCH   4  20
ATOM     20  C   UNL     1       3.531   6.920  18.528  0.00  0.00    +0.000 C 
BRANCH  20  21
ATOM     21  C   UNL     1       2.782   8.130  18.016  0.00  0.00    +0.000 C 
ATOM     22  O   UNL     1       2.825   8.476  16.836  0.00  0.00    +0.000 OA
ATOM     23  N   UNL     1       1.993   8.750  18.948  0.00  0.00    +0.000 N 
ATOM     24  H   UNL     1       2.088   8.508  19.928  0.00  0.00    +0.000 HD
BRANCH  23  25
ATOM     25  C   UNL     1       1.208   9.913  18.581  0.00  0.00    +0.000 C 
BRANCH  25  26
ATOM     26  C   UNL     1      -0.260   9.787  19.009  0.00  0.00    +0.000 C 
BRANCH  26  27
ATOM     27  C   UNL     1      -0.419  10.016  20.488  0.00  0.00    +0.000 A 
ATOM     28  C   UNL     1      -0.243   8.953  21.386  0.00  0.00    +0.000 A 
ATOM     29  C   UNL     1      -0.447   9.144  22.753  0.00  0.00    +0.000 A 
ATOM     30  C   UNL     1      -0.810  10.399  23.235  0.00  0.00    +0.000 A 
ATOM     31  C   UNL     1      -0.980  11.463  22.349  0.00  0.00    +0.000 A 
ATOM     32  C   UNL     1      -0.793  11.271  20.980  0.00  0.00    +0.000 A 
ENDBRANCH  26  27
ENDBRANCH  25  26
ENDBRANCH  23  25
ENDBRANCH  20  21
ENDBRANCH   4  20
TORSDOF 8
ENDMDL
MODEL 6
REMARK VINA RESULT:      -7.6      4.134      6.935
REMARK  Name = 
REMARK  9 active torsions:
REMARK  status: ('A' for Active; 'I' for Inactive)
REMARK    1  A    between atoms: C_1  and  C_2
REMARK    2  A    between atoms: C_2  and  N_3
REMARK    3  A    between atoms: C_6  and  C_7
REMARK    4  A    between atoms: C_7  and  C_8
REMARK    5  A    between atoms: N_10  and  C_11
REMARK    6  A    between atoms: C_11  and  C_12
REMARK    7  A    between atoms: C_12  and  C_13
REMARK    8  A    between atoms: N_19  and  N_20
REMARK    9  A    between atoms: C_21  and  C_23
REMARK                            x       y       z     vdW  Elec       q    Type
REMARK                         _______ _______ _______ _____ _____    ______ ____
ROOT
ATOM      1  N   UNL     1       1.894   3.440  19.650  0.00  0.00    +0.000 N 
ATOM      2  C   UNL     1       1.508   4.752  19.497  0.00  0.00    +0.000 C 
ATOM      3  O   UNL     1       0.712   5.358  20.209  0.00  0.00    +0.000 OA
ATOM      4  C   UNL     1       2.263   5.379  18.317  0.00  0.00    +0.000 C 
ATOM      5  N   UNL     1       2.980   4.206  17.856  0.00  0.00    +0.000 N 
ATOM      6  C   UNL     1       2.760   3.078  18.647  0.00  0.00    +0.000 C 
ATOM      7  S   UNL     1       3.447   1.580  18.376  0.00  0.00    +0.000 S 
ENDROOT
BRANCH   5   8
ATOM      8  N   UNL     1       3.845   4.233  16.761  0.00  0.00    +0.000 N 
ATOM      9  C   UNL     1       5.208   4.385  16.876  0.00  0.00    +0.000 C 
ATOM     10  O   UNL     1       5.827   4.407  17.945  0.00  0.00    +0.000 OA
ATOM     11  H   UNL     1       3.388   4.199  15.851  0.00  0.00    +0.000 HD
BRANCH   9  12
ATOM     12  C   UNL     1       5.970   4.463  15.616  0.00  0.00    +0.000 A 
ATOM     13  C   UNL     1       5.610   3.761  14.464  0.00  0.00    +0.000 A 
ATOM     14  C   UNL     1       6.343   3.964  13.293  0.00  0.00    +0.000 A 
ATOM     15  C   UNL     1       7.413   4.843  13.330  0.00  0.00    +0.000 A 
ATOM     16  N   UNL     1       7.808   5.510  14.436  0.00  0.00    +0.000 NA
ATOM     17  C   UNL     1       7.065   5.317  15.553  0.00  0.00    +0.000 A 
ENDBRANCH   9  12
ENDBRANCH   5   8
BRANCH   1  19
ATOM     18  C   UNL     1       2.467   2.650  21.909  0.00  0.00    +0.000 C 
ATOM     19  C   UNL     1       1.450   2.638  20.782  0.00  0.00    +0.000 C 
ENDBRANCH   1  19
BRANCH   4  20
ATOM     20  C   UNL     1       3.122   6.539  18.814  0.00  0.00    +0.000 C 
BRANCH  20  21
ATOM     21  C   UNL     1       2.522   7.862  18.396  0.00  0.00    +0.000 C 
ATOM     22  O   UNL     1       2.761   8.375  17.304  0.00  0.00    +0.000 OA
ATOM     23  N   UNL     1       1.634   8.396  19.293  0.00  0.00    +0.000 N 
ATOM     24  H   UNL     1       1.566   8.005  20.226  0.00  0.00    +0.000 HD
BRANCH  23  25
ATOM     25  C   UNL     1       0.973   9.655  19.005  0.00  0.00    +0.000 C 
BRANCH  25  26
ATOM     26  C   UNL     1       1.066  10.645  20.173  0.00  0.00    +0.000 C 
BRANCH  26  27
ATOM     27  C   UNL     1       1.287  12.050  19.681  0.00  0.00    +0.000 A 
ATOM     28  C   UNL     1       0.596  13.118  20.272  0.00  0.00    +0.000 A 
ATOM     29  C   UNL     1       0.750  14.414  19.781  0.00  0.00    +0.000 A 
ATOM     30  C   UNL     1       1.607  14.657  18.710  0.00  0.00    +0.000 A 
ATOM     31  C   UNL     1       2.303  13.602  18.121  0.00  0.00    +0.000 A 
ATOM     32  C   UNL     1       2.138  12.302  18.599  0.00  0.00    +0.000 A 
ENDBRANCH  26  27
ENDBRANCH  25  26
ENDBRANCH  23  25
ENDBRANCH  20  21
ENDBRANCH   4  20
TORSDOF 8
ENDMDL
MODEL 7
REMARK VINA RESULT:      -7.5      4.195      7.105
REMARK  Name = 
REMARK  9 active torsions:
REMARK  status: ('A' for Active; 'I' for Inactive)
REMARK    1  A    between atoms: C_1  and  C_2
REMARK    2  A    between atoms: C_2  and  N_3
REMARK    3  A    between atoms: C_6  and  C_7
REMARK    4  A    between atoms: C_7  and  C_8
REMARK    5  A    between atoms: N_10  and  C_11
REMARK    6  A    between atoms: C_11  and  C_12
REMARK    7  A    between atoms: C_12  and  C_13
REMARK    8  A    between atoms: N_19  and  N_20
REMARK    9  A    between atoms: C_21  and  C_23
REMARK                            x       y       z     vdW  Elec       q    Type
REMARK                         _______ _______ _______ _____ _____    ______ ____
ROOT
ATOM      1  N   UNL     1       1.945   3.217  19.672  0.00  0.00    +0.000 N 
ATOM      2  C   UNL     1       1.542   4.529  19.565  0.00  0.00    +0.000 C 
ATOM      3  O   UNL     1       0.740   5.100  20.298  0.00  0.00    +0.000 OA
ATOM      4  C   UNL     1       2.287   5.205  18.406  0.00  0.00    +0.000 C 
ATOM      5  N   UNL     1       3.017   4.057  17.903  0.00  0.00    +0.000 N 
ATOM      6  C   UNL     1       2.813   2.900  18.655  0.00  0.00    +0.000 C 
ATOM      7  S   UNL     1       3.518   1.421  18.332  0.00  0.00    +0.000 S 
ENDROOT
BRANCH   5   8
ATOM      8  N   UNL     1       3.880   4.132  16.809  0.00  0.00    +0.000 N 
ATOM      9  C   UNL     1       5.239   4.313  16.926  0.00  0.00    +0.000 C 
ATOM     10  O   UNL     1       5.859   4.321  17.994  0.00  0.00    +0.000 OA
ATOM     11  H   UNL     1       3.422   4.111  15.898  0.00  0.00    +0.000 HD
BRANCH   9  12
ATOM     12  C   UNL     1       5.996   4.440  15.667  0.00  0.00    +0.000 A 
ATOM     13  C   UNL     1       5.629   3.789  14.488  0.00  0.00    +0.000 A 
ATOM     14  C   UNL     1       6.359   4.038  13.324  0.00  0.00    +0.000 A 
ATOM     15  C   UNL     1       7.433   4.911  13.394  0.00  0.00    +0.000 A 
ATOM     16  N   UNL     1       7.835   5.528  14.526  0.00  0.00    +0.000 NA
ATOM     17  C   UNL     1       7.095   5.291  15.636  0.00  0.00    +0.000 A 
ENDBRANCH   9  12
ENDBRANCH   5   8
BRANCH   1  19
ATOM     18  C   UNL     1       2.345   2.612  22.023  0.00  0.00    +0.000 C 
ATOM     19  C   UNL     1       1.513   2.372  20.777  0.00  0.00    +0.000 C 
ENDBRANCH   1  19
BRANCH   4  20
ATOM     20  C   UNL     1       3.132   6.358  18.941  0.00  0.00    +0.000 C 
BRANCH  20  21
ATOM     21  C   UNL     1       2.300   7.613  19.071  0.00  0.00    +0.000 C 
ATOM     22  O   UNL     1       1.944   8.054  20.163  0.00  0.00    +0.000 OA
ATOM     23  N   UNL     1       2.049   8.258  17.888  0.00  0.00    +0.000 N 
ATOM     24  H   UNL     1       2.252   7.793  17.010  0.00  0.00    +0.000 HD
BRANCH  23  25
ATOM     25  C   UNL     1       1.276   9.485  17.875  0.00  0.00    +0.000 C 
BRANCH  25  26
ATOM     26  C   UNL     1       2.152  10.731  18.056  0.00  0.00    +0.000 C 
BRANCH  26  27
ATOM     27  C   UNL     1       1.390  11.841  18.728  0.00  0.00    +0.000 A 
ATOM     28  C   UNL     1       0.342  11.539  19.610  0.00  0.00    +0.000 A 
ATOM     29  C   UNL     1      -0.408  12.562  20.189  0.00  0.00    +0.000 A 
ATOM     30  C   UNL     1      -0.106  13.893  19.908  0.00  0.00    +0.000 A 
ATOM     31  C   UNL     1       0.938  14.202  19.037  0.00  0.00    +0.000 A 
ATOM     32  C   UNL     1       1.679  13.179  18.443  0.00  0.00    +0.000 A 
ENDBRANCH  26  27
ENDBRANCH  25  26
ENDBRANCH  23  25
ENDBRANCH  20  21
ENDBRANCH   4  20
TORSDOF 8
ENDMDL
MODEL 8
REMARK VINA RESULT:      -7.5      5.387      9.132
REMARK  Name = 
REMARK  9 active torsions:
REMARK  status: ('A' for Active; 'I' for Inactive)
REMARK    1  A    between atoms: C_1  and  C_2
REMARK    2  A    between atoms: C_2  and  N_3
REMARK    3  A    between atoms: C_6  and  C_7
REMARK    4  A    between atoms: C_7  and  C_8
REMARK    5  A    between atoms: N_10  and  C_11
REMARK    6  A    between atoms: C_11  and  C_12
REMARK    7  A    between atoms: C_12  and  C_13
REMARK    8  A    between atoms: N_19  and  N_20
REMARK    9  A    between atoms: C_21  and  C_23
REMARK                            x       y       z     vdW  Elec       q    Type
REMARK                         _______ _______ _______ _____ _____    ______ ____
ROOT
ATOM      1  N   UNL     1       0.928  12.615  18.945  0.00  0.00    +0.000 N 
ATOM      2  C   UNL     1       0.992  11.264  19.200  0.00  0.00    +0.000 C 
ATOM      3  O   UNL     1       1.875  10.499  18.823  0.00  0.00    +0.000 OA
ATOM      4  C   UNL     1      -0.193  10.848  20.083  0.00  0.00    +0.000 C 
ATOM      5  N   UNL     1      -0.889  12.119  20.144  0.00  0.00    +0.000 N 
ATOM      6  C   UNL     1      -0.220  13.148  19.479  0.00  0.00    +0.000 C 
ATOM      7  S   UNL     1      -0.765  14.723  19.375  0.00  0.00    +0.000 S 
ENDROOT
BRANCH   5   8
ATOM      8  N   UNL     1      -2.079  12.294  20.851  0.00  0.00    +0.000 N 
ATOM      9  C   UNL     1      -2.127  12.677  22.171  0.00  0.00    +0.000 C 
ATOM     10  O   UNL     1      -1.146  13.010  22.844  0.00  0.00    +0.000 OA
ATOM     11  H   UNL     1      -2.925  12.051  20.336  0.00  0.00    +0.000 HD
BRANCH   9  12
ATOM     12  C   UNL     1      -3.465  12.748  22.788  0.00  0.00    +0.000 A 
ATOM     13  C   UNL     1      -4.596  13.193  22.102  0.00  0.00    +0.000 A 
ATOM     14  C   UNL     1      -5.836  13.144  22.743  0.00  0.00    +0.000 A 
ATOM     15  C   UNL     1      -5.887  12.670  24.044  0.00  0.00    +0.000 A 
ATOM     16  N   UNL     1      -4.807  12.266  24.746  0.00  0.00    +0.000 NA
ATOM     17  C   UNL     1      -3.619  12.298  24.094  0.00  0.00    +0.000 A 
ENDBRANCH   9  12
ENDBRANCH   5   8
BRANCH   1  19
ATOM     18  C   UNL     1       3.004  13.905  19.231  0.00  0.00    +0.000 C 
ATOM     19  C   UNL     1       2.003  13.315  18.255  0.00  0.00    +0.000 C 
ENDBRANCH   1  19
BRANCH   4  20
ATOM     20  C   UNL     1       0.322  10.299  21.410  0.00  0.00    +0.000 C 
BRANCH  20  21
ATOM     21  C   UNL     1       0.322   8.787  21.396  0.00  0.00    +0.000 C 
ATOM     22  O   UNL     1      -0.671   8.128  21.698  0.00  0.00    +0.000 OA
ATOM     23  N   UNL     1       1.485   8.221  20.943  0.00  0.00    +0.000 N 
ATOM     24  H   UNL     1       2.312   8.796  20.828  0.00  0.00    +0.000 HD
BRANCH  23  25
ATOM     25  C   UNL     1       1.611   6.778  20.863  0.00  0.00    +0.000 C 
BRANCH  25  26
ATOM     26  C   UNL     1       2.399   6.327  19.627  0.00  0.00    +0.000 C 
BRANCH  26  27
ATOM     27  C   UNL     1       2.072   4.904  19.262  0.00  0.00    +0.000 A 
ATOM     28  C   UNL     1       2.583   4.347  18.080  0.00  0.00    +0.000 A 
ATOM     29  C   UNL     1       2.235   3.049  17.705  0.00  0.00    +0.000 A 
ATOM     30  C   UNL     1       1.392   2.292  18.515  0.00  0.00    +0.000 A 
ATOM     31  C   UNL     1       0.885   2.835  19.695  0.00  0.00    +0.000 A 
ATOM     32  C   UNL     1       1.217   4.139  20.063  0.00  0.00    +0.000 A 
ENDBRANCH  26  27
ENDBRANCH  25  26
ENDBRANCH  23  25
ENDBRANCH  20  21
ENDBRANCH   4  20
TORSDOF 8
ENDMDL
MODEL 9
REMARK VINA RESULT:      -7.4      4.243      8.175
REMARK  Name = 
REMARK  9 active torsions:
REMARK  status: ('A' for Active; 'I' for Inactive)
REMARK    1  A    between atoms: C_1  and  C_2
REMARK    2  A    between atoms: C_2  and  N_3
REMARK    3  A    between atoms: C_6  and  C_7
REMARK    4  A    between atoms: C_7  and  C_8
REMARK    5  A    between atoms: N_10  and  C_11
REMARK    6  A    between atoms: C_11  and  C_12
REMARK    7  A    between atoms: C_12  and  C_13
REMARK    8  A    between atoms: N_19  and  N_20
REMARK    9  A    between atoms: C_21  and  C_23
REMARK                            x       y       z     vdW  Elec       q    Type
REMARK                         _______ _______ _______ _____ _____    ______ ____
ROOT
ATOM      1  N   UNL     1       2.625   4.108  20.304  0.00  0.00    +0.000 N 
ATOM      2  C   UNL     1       2.076   5.334  20.002  0.00  0.00    +0.000 C 
ATOM      3  O   UNL     1       1.353   6.002  20.735  0.00  0.00    +0.000 OA
ATOM      4  C   UNL     1       2.543   5.780  18.609  0.00  0.00    +0.000 C 
ATOM      5  N   UNL     1       3.294   4.598  18.231  0.00  0.00    +0.000 N 
ATOM      6  C   UNL     1       3.340   3.628  19.233  0.00  0.00    +0.000 C 
ATOM      7  S   UNL     1       4.130   2.163  19.102  0.00  0.00    +0.000 S 
ENDROOT
BRANCH   5   8
ATOM      8  N   UNL     1       3.949   4.481  17.004  0.00  0.00    +0.000 N 
ATOM      9  C   UNL     1       5.298   4.699  16.841  0.00  0.00    +0.000 C 
ATOM     10  O   UNL     1       6.093   4.914  17.762  0.00  0.00    +0.000 OA
ATOM     11  H   UNL     1       3.342   4.284  16.210  0.00  0.00    +0.000 HD
BRANCH   9  12
ATOM     12  C   UNL     1       5.819   4.601  15.465  0.00  0.00    +0.000 A 
ATOM     13  C   UNL     1       7.086   5.055  15.097  0.00  0.00    +0.000 A 
ATOM     14  C   UNL     1       7.525   4.842  13.789  0.00  0.00    +0.000 A 
ATOM     15  C   UNL     1       6.672   4.203  12.903  0.00  0.00    +0.000 A 
ATOM     16  N   UNL     1       5.428   3.784  13.219  0.00  0.00    +0.000 NA
ATOM     17  C   UNL     1       5.034   3.978  14.501  0.00  0.00    +0.000 A 
ENDBRANCH   9  12
ENDBRANCH   5   8
BRANCH   1  19
ATOM     18  C   UNL     1       1.246   2.619  21.695  0.00  0.00    +0.000 C 
ATOM     19  C   UNL     1       2.475   3.507  21.622  0.00  0.00    +0.000 C 
ENDBRANCH   1  19
BRANCH   4  20
ATOM     20  C   UNL     1       3.341   7.075  18.724  0.00  0.00    +0.000 C 
BRANCH  20  21
ATOM     21  C   UNL     1       2.496   8.259  18.313  0.00  0.00    +0.000 C 
ATOM     22  O   UNL     1       2.519   8.717  17.171  0.00  0.00    +0.000 OA
ATOM     23  N   UNL     1       1.650   8.722  19.286  0.00  0.00    +0.000 N 
ATOM     24  H   UNL     1       1.758   8.398  20.241  0.00  0.00    +0.000 HD
BRANCH  23  25
ATOM     25  C   UNL     1       0.771   9.844  19.016  0.00  0.00    +0.000 C 
BRANCH  25  26
ATOM     26  C   UNL     1      -0.209   9.557  17.872  0.00  0.00    +0.000 C 
BRANCH  26  27
ATOM     27  C   UNL     1      -1.510  10.287  18.072  0.00  0.00    +0.000 A 
ATOM     28  C   UNL     1      -1.572  11.386  18.941  0.00  0.00    +0.000 A 
ATOM     29  C   UNL     1      -2.787  12.029  19.178  0.00  0.00    +0.000 A 
ATOM     30  C   UNL     1      -3.944  11.594  18.536  0.00  0.00    +0.000 A 
ATOM     31  C   UNL     1      -3.890  10.506  17.665  0.00  0.00    +0.000 A 
ATOM     32  C   UNL     1      -2.679   9.850  17.440  0.00  0.00    +0.000 A 
ENDBRANCH  26  27
ENDBRANCH  25  26
ENDBRANCH  23  25
ENDBRANCH  20  21
ENDBRANCH   4  20
TORSDOF 8
ENDMDL
