MODEL 1
REMARK VINA RESULT:      -7.1      0.000      0.000
REMARK  Name = 
REMARK  4 active torsions:
REMARK  status: ('A' for Active; 'I' for Inactive)
REMARK    1  A    between atoms: C_2  and  C_4
REMARK    2  A    between atoms: N_6  and  N_7
REMARK    3  A    between atoms: C_8  and  C_9
REMARK    4  A    between atoms: C_13  and  C_14
REMARK                            x       y       z     vdW  Elec       q    Type
REMARK                         _______ _______ _______ _____ _____    ______ ____
ROOT
ATOM      1  N   UNL     1       4.565   4.340  16.670  0.00  0.00    +0.000 NA
ATOM      2  C   UNL     1       3.975   5.397  17.122  0.00  0.00    +0.000 C 
ENDROOT
BRANCH   2   3
ATOM      3  C   UNL     1       3.250   5.367  18.410  0.00  0.00    +0.000 A 
ATOM      4  C   UNL     1       2.829   6.569  18.983  0.00  0.00    +0.000 A 
ATOM      5  C   UNL     1       2.133   6.551  20.193  0.00  0.00    +0.000 A 
ATOM      6  C   UNL     1       1.865   5.339  20.832  0.00  0.00    +0.000 A 
ATOM      7  C   UNL     1       2.290   4.124  20.272  0.00  0.00    +0.000 A 
ATOM      8  C   UNL     1       2.983   4.149  19.051  0.00  0.00    +0.000 A 
BRANCH   7   9
ATOM      9  C   UNL     1       2.019   2.809  20.962  0.00  0.00    +0.000 C 
ATOM     10  F   UNL     1       1.647   1.817  20.103  0.00  0.00    +0.000 F 
ATOM     11  F   UNL     1       3.104   2.332  21.630  0.00  0.00    +0.000 F 
ATOM     12  F   UNL     1       1.017   2.896  21.879  0.00  0.00    +0.000 F 
ENDBRANCH   7   9
ENDBRANCH   2   3
BRANCH   1  15
ATOM     13  C   UNL     1       6.576   4.566  15.438  0.00  0.00    +0.000 C 
ATOM     14  O   UNL     1       7.361   4.572  16.378  0.00  0.00    +0.000 OA
ATOM     15  N   UNL     1       5.198   4.463  15.473  0.00  0.00    +0.000 N 
ATOM     16  H   UNL     1       4.683   4.470  14.595  0.00  0.00    +0.000 HD
BRANCH  13  18
ATOM     17  N   UNL     1       8.144   5.584  13.861  0.00  0.00    +0.000 N 
ATOM     18  C   UNL     1       7.127   4.680  14.005  0.00  0.00    +0.000 C 
ATOM     19  O   UNL     1       6.670   4.001  13.098  0.00  0.00    +0.000 OA
ATOM     20  H   UNL     1       8.577   5.731  12.961  0.00  0.00    +0.000 HD
ATOM     21  H   UNL     1       8.464   6.102  14.674  0.00  0.00    +0.000 HD
ENDBRANCH  13  18
ENDBRANCH   1  15
TORSDOF 4
ENDMDL
MODEL 2
REMARK VINA RESULT:      -7.1      5.123      7.476
REMARK  Name = 
REMARK  4 active torsions:
REMARK  status: ('A' for Active; 'I' for Inactive)
REMARK    1  A    between atoms: C_2  and  C_4
REMARK    2  A    between atoms: N_6  and  N_7
REMARK    3  A    between atoms: C_8  and  C_9
REMARK    4  A    between atoms: C_13  and  C_14
REMARK                            x       y       z     vdW  Elec       q    Type
REMARK                         _______ _______ _______ _____ _____    ______ ____
ROOT
ATOM      1  N   UNL     1       4.104   4.268  18.448  0.00  0.00    +0.000 NA
ATOM      2  C   UNL     1       3.929   4.115  17.176  0.00  0.00    +0.000 C 
ENDROOT
BRANCH   2   3
ATOM      3  C   UNL     1       5.043   4.329  16.228  0.00  0.00    +0.000 A 
ATOM      4  C   UNL     1       6.190   4.994  16.665  0.00  0.00    +0.000 A 
ATOM      5  C   UNL     1       7.253   5.191  15.782  0.00  0.00    +0.000 A 
ATOM      6  C   UNL     1       7.168   4.732  14.466  0.00  0.00    +0.000 A 
ATOM      7  C   UNL     1       6.017   4.070  14.011  0.00  0.00    +0.000 A 
ATOM      8  C   UNL     1       4.954   3.869  14.907  0.00  0.00    +0.000 A 
BRANCH   7   9
ATOM      9  C   UNL     1       5.908   3.583  12.586  0.00  0.00    +0.000 C 
ATOM     10  F   UNL     1       6.125   2.243  12.457  0.00  0.00    +0.000 F 
ATOM     11  F   UNL     1       4.681   3.812  12.045  0.00  0.00    +0.000 F 
ATOM     12  F   UNL     1       6.806   4.183  11.758  0.00  0.00    +0.000 F 
ENDBRANCH   7   9
ENDBRANCH   2   3
BRANCH   1  15
ATOM     13  C   UNL     1       3.063   3.077  20.212  0.00  0.00    +0.000 C 
ATOM     14  O   UNL     1       3.984   2.316  20.480  0.00  0.00    +0.000 OA
ATOM     15  N   UNL     1       3.018   4.058  19.239  0.00  0.00    +0.000 N 
ATOM     16  H   UNL     1       2.172   4.616  19.144  0.00  0.00    +0.000 HD
BRANCH  13  18
ATOM     17  N   UNL     1       0.622   3.197  20.296  0.00  0.00    +0.000 N 
ATOM     18  C   UNL     1       1.760   2.988  21.026  0.00  0.00    +0.000 C 
ATOM     19  O   UNL     1       1.779   2.746  22.224  0.00  0.00    +0.000 OA
ATOM     20  H   UNL     1      -0.286   3.157  20.735  0.00  0.00    +0.000 HD
ATOM     21  H   UNL     1       0.701   3.388  19.301  0.00  0.00    +0.000 HD
ENDBRANCH  13  18
ENDBRANCH   1  15
TORSDOF 4
ENDMDL
MODEL 3
REMARK VINA RESULT:      -7.1      1.188      1.268
REMARK  Name = 
REMARK  4 active torsions:
REMARK  status: ('A' for Active; 'I' for Inactive)
REMARK    1  A    between atoms: C_2  and  C_4
REMARK    2  A    between atoms: N_6  and  N_7
REMARK    3  A    between atoms: C_8  and  C_9
REMARK    4  A    between atoms: C_13  and  C_14
REMARK                            x       y       z     vdW  Elec       q    Type
REMARK                         _______ _______ _______ _____ _____    ______ ____
ROOT
ATOM      1  N   UNL     1       4.934   5.974  16.314  0.00  0.00    +0.000 NA
ATOM      2  C   UNL     1       4.178   4.997  16.695  0.00  0.00    +0.000 C 
ENDROOT
BRANCH   2   3
ATOM      3  C   UNL     1       3.398   5.086  17.947  0.00  0.00    +0.000 A 
ATOM      4  C   UNL     1       3.359   6.298  18.639  0.00  0.00    +0.000 A 
ATOM      5  C   UNL     1       2.616   6.398  19.817  0.00  0.00    +0.000 A 
ATOM      6  C   UNL     1       1.920   5.290  20.305  0.00  0.00    +0.000 A 
ATOM      7  C   UNL     1       1.958   4.063  19.624  0.00  0.00    +0.000 A 
ATOM      8  C   UNL     1       2.702   3.973  18.436  0.00  0.00    +0.000 A 
BRANCH   7   9
ATOM      9  C   UNL     1       1.222   2.855  20.151  0.00  0.00    +0.000 C 
ATOM     10  F   UNL     1       0.032   2.634  19.522  0.00  0.00    +0.000 F 
ATOM     11  F   UNL     1       1.933   1.704  20.010  0.00  0.00    +0.000 F 
ATOM     12  F   UNL     1       0.926   2.959  21.475  0.00  0.00    +0.000 F 
ENDBRANCH   7   9
ENDBRANCH   2   3
BRANCH   1  15
ATOM     13  C   UNL     1       6.841   5.148  15.177  0.00  0.00    +0.000 C 
ATOM     14  O   UNL     1       7.440   4.692  16.143  0.00  0.00    +0.000 OA
ATOM     15  N   UNL     1       5.620   5.795  15.154  0.00  0.00    +0.000 N 
ATOM     16  H   UNL     1       5.251   6.115  14.261  0.00  0.00    +0.000 HD
BRANCH  13  18
ATOM     17  N   UNL     1       6.841   4.117  12.959  0.00  0.00    +0.000 N 
ATOM     18  C   UNL     1       7.469   5.015  13.778  0.00  0.00    +0.000 C 
ATOM     19  O   UNL     1       8.447   5.676  13.460  0.00  0.00    +0.000 OA
ATOM     20  H   UNL     1       7.174   3.958  12.019  0.00  0.00    +0.000 HD
ATOM     21  H   UNL     1       6.030   3.613  13.307  0.00  0.00    +0.000 HD
ENDBRANCH  13  18
ENDBRANCH   1  15
TORSDOF 4
ENDMDL
MODEL 4
REMARK VINA RESULT:      -7.0      0.910      1.369
REMARK  Name = 
REMARK  4 active torsions:
REMARK  status: ('A' for Active; 'I' for Inactive)
REMARK    1  A    between atoms: C_2  and  C_4
REMARK    2  A    between atoms: N_6  and  N_7
REMARK    3  A    between atoms: C_8  and  C_9
REMARK    4  A    between atoms: C_13  and  C_14
REMARK                            x       y       z     vdW  Elec       q    Type
REMARK                         _______ _______ _______ _____ _____    ______ ____
ROOT
ATOM      1  N   UNL     1       5.005   5.953  16.263  0.00  0.00    +0.000 NA
ATOM      2  C   UNL     1       4.102   5.081  16.573  0.00  0.00    +0.000 C 
ENDROOT
BRANCH   2   3
ATOM      3  C   UNL     1       3.357   5.183  17.845  0.00  0.00    +0.000 A 
ATOM      4  C   UNL     1       3.318   6.407  18.515  0.00  0.00    +0.000 A 
ATOM      5  C   UNL     1       2.607   6.518  19.712  0.00  0.00    +0.000 A 
ATOM      6  C   UNL     1       1.945   5.408  20.241  0.00  0.00    +0.000 A 
ATOM      7  C   UNL     1       1.984   4.169  19.583  0.00  0.00    +0.000 A 
ATOM      8  C   UNL     1       2.694   4.067  18.375  0.00  0.00    +0.000 A 
BRANCH   7   9
ATOM      9  C   UNL     1       1.284   2.960  20.154  0.00  0.00    +0.000 C 
ATOM     10  F   UNL     1       0.881   3.130  21.446  0.00  0.00    +0.000 F 
ATOM     11  F   UNL     1       0.163   2.625  19.459  0.00  0.00    +0.000 F 
ATOM     12  F   UNL     1       2.073   1.851  20.157  0.00  0.00    +0.000 F 
ENDBRANCH   7   9
ENDBRANCH   2   3
BRANCH   1  15
ATOM     13  C   UNL     1       6.841   5.082  15.044  0.00  0.00    +0.000 C 
ATOM     14  O   UNL     1       7.458   4.590  15.981  0.00  0.00    +0.000 OA
ATOM     15  N   UNL     1       5.643   5.771  15.076  0.00  0.00    +0.000 N 
ATOM     16  H   UNL     1       5.254   6.118  14.202  0.00  0.00    +0.000 HD
BRANCH  13  18
ATOM     17  N   UNL     1       8.467   5.787  13.359  0.00  0.00    +0.000 N 
ATOM     18  C   UNL     1       7.414   4.953  13.623  0.00  0.00    +0.000 C 
ATOM     19  O   UNL     1       6.944   4.159  12.822  0.00  0.00    +0.000 OA
ATOM     20  H   UNL     1       8.917   5.777  12.456  0.00  0.00    +0.000 HD
ATOM     21  H   UNL     1       8.796   6.414  14.088  0.00  0.00    +0.000 HD
ENDBRANCH  13  18
ENDBRANCH   1  15
TORSDOF 4
ENDMDL
MODEL 5
REMARK VINA RESULT:      -7.0      0.955      1.326
REMARK  Name = 
REMARK  4 active torsions:
REMARK  status: ('A' for Active; 'I' for Inactive)
REMARK    1  A    between atoms: C_2  and  C_4
REMARK    2  A    between atoms: N_6  and  N_7
REMARK    3  A    between atoms: C_8  and  C_9
REMARK    4  A    between atoms: C_13  and  C_14
REMARK                            x       y       z     vdW  Elec       q    Type
REMARK                         _______ _______ _______ _____ _____    ______ ____
ROOT
ATOM      1  N   UNL     1       4.805   6.034  16.626  0.00  0.00    +0.000 NA
ATOM      2  C   UNL     1       4.102   5.037  17.054  0.00  0.00    +0.000 C 
ENDROOT
BRANCH   2   3
ATOM      3  C   UNL     1       3.333   5.138  18.312  0.00  0.00    +0.000 A 
ATOM      4  C   UNL     1       2.935   6.397  18.767  0.00  0.00    +0.000 A 
ATOM      5  C   UNL     1       2.198   6.504  19.948  0.00  0.00    +0.000 A 
ATOM      6  C   UNL     1       1.864   5.359  20.674  0.00  0.00    +0.000 A 
ATOM      7  C   UNL     1       2.265   4.088  20.233  0.00  0.00    +0.000 A 
ATOM      8  C   UNL     1       3.001   3.988  19.040  0.00  0.00    +0.000 A 
BRANCH   7   9
ATOM      9  C   UNL     1       1.923   2.845  21.018  0.00  0.00    +0.000 C 
ATOM     10  F   UNL     1       2.906   2.468  21.885  0.00  0.00    +0.000 F 
ATOM     11  F   UNL     1       0.802   2.993  21.774  0.00  0.00    +0.000 F 
ATOM     12  F   UNL     1       1.702   1.765  20.219  0.00  0.00    +0.000 F 
ENDBRANCH   7   9
ENDBRANCH   2   3
BRANCH   1  15
ATOM     13  C   UNL     1       6.552   4.962  15.436  0.00  0.00    +0.000 C 
ATOM     14  O   UNL     1       7.010   4.296  16.356  0.00  0.00    +0.000 OA
ATOM     15  N   UNL     1       5.486   5.842  15.465  0.00  0.00    +0.000 N 
ATOM     16  H   UNL     1       5.224   6.322  14.607  0.00  0.00    +0.000 HD
BRANCH  13  18
ATOM     17  N   UNL     1       6.694   3.844  13.266  0.00  0.00    +0.000 N 
ATOM     18  C   UNL     1       7.195   4.853  14.043  0.00  0.00    +0.000 C 
ATOM     19  O   UNL     1       8.077   5.623  13.693  0.00  0.00    +0.000 OA
ATOM     20  H   UNL     1       7.046   3.690  12.333  0.00  0.00    +0.000 HD
ATOM     21  H   UNL     1       5.956   3.254  13.639  0.00  0.00    +0.000 HD
ENDBRANCH  13  18
ENDBRANCH   1  15
TORSDOF 4
ENDMDL
MODEL 6
REMARK VINA RESULT:      -6.9      1.526      1.940
REMARK  Name = 
REMARK  4 active torsions:
REMARK  status: ('A' for Active; 'I' for Inactive)
REMARK    1  A    between atoms: C_2  and  C_4
REMARK    2  A    between atoms: N_6  and  N_7
REMARK    3  A    between atoms: C_8  and  C_9
REMARK    4  A    between atoms: C_13  and  C_14
REMARK                            x       y       z     vdW  Elec       q    Type
REMARK                         _______ _______ _______ _____ _____    ______ ____
ROOT
ATOM      1  N   UNL     1       5.830   5.071  16.291  0.00  0.00    +0.000 NA
ATOM      2  C   UNL     1       4.779   5.806  16.456  0.00  0.00    +0.000 C 
ENDROOT
BRANCH   2   3
ATOM      3  C   UNL     1       3.796   5.493  17.515  0.00  0.00    +0.000 A 
ATOM      4  C   UNL     1       3.444   6.487  18.431  0.00  0.00    +0.000 A 
ATOM      5  C   UNL     1       2.508   6.206  19.429  0.00  0.00    +0.000 A 
ATOM      6  C   UNL     1       1.933   4.937  19.516  0.00  0.00    +0.000 A 
ATOM      7  C   UNL     1       2.285   3.926  18.608  0.00  0.00    +0.000 A 
ATOM      8  C   UNL     1       3.222   4.218  17.602  0.00  0.00    +0.000 A 
BRANCH   7   9
ATOM      9  C   UNL     1       1.680   2.546  18.702  0.00  0.00    +0.000 C 
ATOM     10  F   UNL     1       2.122   1.697  17.731  0.00  0.00    +0.000 F 
ATOM     11  F   UNL     1       1.957   1.931  19.884  0.00  0.00    +0.000 F 
ATOM     12  F   UNL     1       0.324   2.561  18.590  0.00  0.00    +0.000 F 
ENDBRANCH   7   9
ENDBRANCH   2   3
BRANCH   1  15
ATOM     13  C   UNL     1       6.774   4.632  14.162  0.00  0.00    +0.000 C 
ATOM     14  O   UNL     1       6.196   3.579  13.925  0.00  0.00    +0.000 OA
ATOM     15  N   UNL     1       6.670   5.433  15.284  0.00  0.00    +0.000 N 
ATOM     16  H   UNL     1       7.220   6.288  15.329  0.00  0.00    +0.000 HD
BRANCH  13  18
ATOM     17  N   UNL     1       7.501   4.799  11.833  0.00  0.00    +0.000 N 
ATOM     18  C   UNL     1       7.753   5.197  13.118  0.00  0.00    +0.000 C 
ATOM     19  O   UNL     1       8.667   5.939  13.446  0.00  0.00    +0.000 OA
ATOM     20  H   UNL     1       8.083   5.118  11.073  0.00  0.00    +0.000 HD
ATOM     21  H   UNL     1       6.714   4.183  11.652  0.00  0.00    +0.000 HD
ENDBRANCH  13  18
ENDBRANCH   1  15
TORSDOF 4
ENDMDL
MODEL 7
REMARK VINA RESULT:      -6.9      5.119      7.433
REMARK  Name = 
REMARK  4 active torsions:
REMARK  status: ('A' for Active; 'I' for Inactive)
REMARK    1  A    between atoms: C_2  and  C_4
REMARK    2  A    between atoms: N_6  and  N_7
REMARK    3  A    between atoms: C_8  and  C_9
REMARK    4  A    between atoms: C_13  and  C_14
REMARK                            x       y       z     vdW  Elec       q    Type
REMARK                         _______ _______ _______ _____ _____    ______ ____
ROOT
ATOM      1  N   UNL     1       3.727   3.083  17.611  0.00  0.00    +0.000 NA
ATOM      2  C   UNL     1       4.023   4.240  17.114  0.00  0.00    +0.000 C 
ENDROOT
BRANCH   2   3
ATOM      3  C   UNL     1       5.125   4.385  16.139  0.00  0.00    +0.000 A 
ATOM      4  C   UNL     1       6.311   5.002  16.539  0.00  0.00    +0.000 A 
ATOM      5  C   UNL     1       7.363   5.134  15.630  0.00  0.00    +0.000 A 
ATOM      6  C   UNL     1       7.226   4.658  14.324  0.00  0.00    +0.000 A 
ATOM      7  C   UNL     1       6.036   4.044  13.906  0.00  0.00    +0.000 A 
ATOM      8  C   UNL     1       4.985   3.908  14.828  0.00  0.00    +0.000 A 
BRANCH   7   9
ATOM      9  C   UNL     1       5.872   3.539  12.492  0.00  0.00    +0.000 C 
ATOM     10  F   UNL     1       6.724   4.131  11.607  0.00  0.00    +0.000 F 
ATOM     11  F   UNL     1       6.097   2.201  12.383  0.00  0.00    +0.000 F 
ATOM     12  F   UNL     1       4.621   3.755  12.001  0.00  0.00    +0.000 F 
ENDBRANCH   7   9
ENDBRANCH   2   3
BRANCH   1  15
ATOM     13  C   UNL     1       2.966   2.733  19.827  0.00  0.00    +0.000 C 
ATOM     14  O   UNL     1       4.040   2.449  20.341  0.00  0.00    +0.000 OA
ATOM     15  N   UNL     1       2.705   3.051  18.507  0.00  0.00    +0.000 N 
ATOM     16  H   UNL     1       1.749   3.269  18.235  0.00  0.00    +0.000 HD
BRANCH  13  18
ATOM     17  N   UNL     1       1.939   2.586  22.042  0.00  0.00    +0.000 N 
ATOM     18  C   UNL     1       1.703   2.761  20.705  0.00  0.00    +0.000 C 
ATOM     19  O   UNL     1       0.596   2.930  20.214  0.00  0.00    +0.000 OA
ATOM     20  H   UNL     1       1.177   2.592  22.703  0.00  0.00    +0.000 HD
ATOM     21  H   UNL     1       2.894   2.456  22.362  0.00  0.00    +0.000 HD
ENDBRANCH  13  18
ENDBRANCH   1  15
TORSDOF 4
ENDMDL
MODEL 8
REMARK VINA RESULT:      -6.8      1.089      1.402
REMARK  Name = 
REMARK  4 active torsions:
REMARK  status: ('A' for Active; 'I' for Inactive)
REMARK    1  A    between atoms: C_2  and  C_4
REMARK    2  A    between atoms: N_6  and  N_7
REMARK    3  A    between atoms: C_8  and  C_9
REMARK    4  A    between atoms: C_13  and  C_14
REMARK                            x       y       z     vdW  Elec       q    Type
REMARK                         _______ _______ _______ _____ _____    ______ ____
ROOT
ATOM      1  N   UNL     1       5.297   4.227  17.103  0.00  0.00    +0.000 NA
ATOM      2  C   UNL     1       4.032   4.495  17.092  0.00  0.00    +0.000 C 
ENDROOT
BRANCH   2   3
ATOM      3  C   UNL     1       3.295   4.722  18.354  0.00  0.00    +0.000 A 
ATOM      4  C   UNL     1       2.956   6.026  18.718  0.00  0.00    +0.000 A 
ATOM      5  C   UNL     1       2.250   6.251  19.902  0.00  0.00    +0.000 A 
ATOM      6  C   UNL     1       1.891   5.179  20.721  0.00  0.00    +0.000 A 
ATOM      7  C   UNL     1       2.234   3.864  20.371  0.00  0.00    +0.000 A 
ATOM      8  C   UNL     1       2.937   3.644  19.175  0.00  0.00    +0.000 A 
BRANCH   7   9
ATOM      9  C   UNL     1       1.863   2.699  21.257  0.00  0.00    +0.000 C 
ATOM     10  F   UNL     1       0.865   2.989  22.139  0.00  0.00    +0.000 F 
ATOM     11  F   UNL     1       1.430   1.619  20.551  0.00  0.00    +0.000 F 
ATOM     12  F   UNL     1       2.908   2.263  22.012  0.00  0.00    +0.000 F 
ENDBRANCH   7   9
ENDBRANCH   2   3
BRANCH   1  15
ATOM     13  C   UNL     1       6.241   5.113  15.119  0.00  0.00    +0.000 C 
ATOM     14  O   UNL     1       6.090   6.303  15.366  0.00  0.00    +0.000 OA
ATOM     15  N   UNL     1       5.885   4.025  15.894  0.00  0.00    +0.000 N 
ATOM     16  H   UNL     1       6.083   3.089  15.547  0.00  0.00    +0.000 HD
BRANCH  13  18
ATOM     17  N   UNL     1       6.462   3.519  13.277  0.00  0.00    +0.000 N 
ATOM     18  C   UNL     1       6.909   4.705  13.794  0.00  0.00    +0.000 C 
ATOM     19  O   UNL     1       7.764   5.407  13.276  0.00  0.00    +0.000 OA
ATOM     20  H   UNL     1       6.835   3.164  12.409  0.00  0.00    +0.000 HD
ATOM     21  H   UNL     1       5.744   3.002  13.776  0.00  0.00    +0.000 HD
ENDBRANCH  13  18
ENDBRANCH   1  15
TORSDOF 4
ENDMDL
MODEL 9
REMARK VINA RESULT:      -6.8      1.573      1.854
REMARK  Name = 
REMARK  4 active torsions:
REMARK  status: ('A' for Active; 'I' for Inactive)
REMARK    1  A    between atoms: C_2  and  C_4
REMARK    2  A    between atoms: N_6  and  N_7
REMARK    3  A    between atoms: C_8  and  C_9
REMARK    4  A    between atoms: C_13  and  C_14
REMARK                            x       y       z     vdW  Elec       q    Type
REMARK                         _______ _______ _______ _____ _____    ______ ____
ROOT
ATOM      1  N   UNL     1       5.552   3.887  15.922  0.00  0.00    +0.000 NA
ATOM      2  C   UNL     1       4.557   4.657  16.222  0.00  0.00    +0.000 C 
ENDROOT
BRANCH   2   3
ATOM      3  C   UNL     1       3.924   4.589  17.556  0.00  0.00    +0.000 A 
ATOM      4  C   UNL     1       4.319   5.494  18.543  0.00  0.00    +0.000 A 
ATOM      5  C   UNL     1       3.719   5.448  19.803  0.00  0.00    +0.000 A 
ATOM      6  C   UNL     1       2.734   4.497  20.078  0.00  0.00    +0.000 A 
ATOM      7  C   UNL     1       2.334   3.575  19.098  0.00  0.00    +0.000 A 
ATOM      8  C   UNL     1       2.937   3.633  17.830  0.00  0.00    +0.000 A 
BRANCH   7   9
ATOM      9  C   UNL     1       1.281   2.534  19.389  0.00  0.00    +0.000 C 
ATOM     10  F   UNL     1       1.785   1.270  19.481  0.00  0.00    +0.000 F 
ATOM     11  F   UNL     1       0.629   2.758  20.562  0.00  0.00    +0.000 F 
ATOM     12  F   UNL     1       0.320   2.478  18.426  0.00  0.00    +0.000 F 
ENDBRANCH   7   9
ENDBRANCH   2   3
BRANCH   1  15
ATOM     13  C   UNL     1       7.074   4.928  14.434  0.00  0.00    +0.000 C 
ATOM     14  O   UNL     1       7.606   5.692  15.230  0.00  0.00    +0.000 OA
ATOM     15  N   UNL     1       6.062   4.015  14.668  0.00  0.00    +0.000 N 
ATOM     16  H   UNL     1       5.727   3.446  13.895  0.00  0.00    +0.000 HD
BRANCH  13  18
ATOM     17  N   UNL     1       7.005   3.934  12.201  0.00  0.00    +0.000 N 
ATOM     18  C   UNL     1       7.544   4.930  12.969  0.00  0.00    +0.000 C 
ATOM     19  O   UNL     1       8.334   5.768  12.561  0.00  0.00    +0.000 OA
ATOM     20  H   UNL     1       7.247   3.850  11.225  0.00  0.00    +0.000 HD
ATOM     21  H   UNL     1       6.352   3.282  12.625  0.00  0.00    +0.000 HD
ENDBRANCH  13  18
ENDBRANCH   1  15
TORSDOF 4
ENDMDL
