MODEL 1
REMARK VINA RESULT:      -7.5      0.000      0.000
REMARK  Name = 
REMARK  8 active torsions:
REMARK  status: ('A' for Active; 'I' for Inactive)
REMARK    1  A    between atoms: C_1  and  C_2
REMARK    2  A    between atoms: C_2  and  C_3
REMARK    3  A    between atoms: C_2  and  C_4
REMARK    4  A    between atoms: C_2  and  C_5
REMARK    5  A    between atoms: C_5  and  N_6
REMARK    6  A    between atoms: C_5  and  C_17
REMARK    7  A    between atoms: C_7  and  C_9
REMARK    8  A    between atoms: C_12  and  N_13
REMARK                            x       y       z     vdW  Elec       q    Type
REMARK                         _______ _______ _______ _____ _____    ______ ____
ROOT
ATOM      1  N   UNL     1       4.535   4.480  17.113  0.00  0.00    +0.000 N 
ATOM      2  C   UNL     1       5.888   4.580  16.888  0.00  0.00    +0.000 C 
ATOM      3  O   UNL     1       6.708   4.712  17.791  0.00  0.00    +0.000 OA
ATOM      4  H   UNL     1       3.957   4.332  16.298  0.00  0.00    +0.000 HD
ENDROOT
BRANCH   2   5
ATOM      5  C   UNL     1       6.259   4.497  15.487  0.00  0.00    +0.000 A 
ATOM      6  C   UNL     1       5.816   3.646  14.485  0.00  0.00    +0.000 A 
ATOM      7  C   UNL     1       6.497   4.005  13.295  0.00  0.00    +0.000 A 
ATOM      8  C   UNL     1       7.316   5.046  13.651  0.00  0.00    +0.000 A 
ATOM      9  O   UNL     1       7.194   5.365  14.968  0.00  0.00    +0.000 OA
BRANCH   8  10
ATOM     10  N   UNL     1       8.245   5.823  12.882  0.00  0.00    +0.000 N 
ATOM     11  O   UNL     1       9.345   6.036  13.406  0.00  0.00    +0.000 OA
ATOM     12  O   UNL     1       7.881   6.210  11.766  0.00  0.00    +0.000 OA
ENDBRANCH   8  10
ENDBRANCH   2   5
BRANCH   1  13
ATOM     13  C   UNL     1       3.907   4.516  18.435  0.00  0.00    +0.000 C 
BRANCH  13  14
ATOM     14  C   UNL     1       3.221   5.878  18.647  0.00  0.00    +0.000 A 
ATOM     15  C   UNL     1       3.191   6.822  17.603  0.00  0.00    +0.000 A 
ATOM     16  C   UNL     1       2.602   8.081  17.782  0.00  0.00    +0.000 A 
ATOM     17  C   UNL     1       2.009   8.413  18.996  0.00  0.00    +0.000 A 
ATOM     18  C   UNL     1       2.008   7.486  20.034  0.00  0.00    +0.000 A 
ATOM     19  C   UNL     1       2.617   6.241  19.865  0.00  0.00    +0.000 A 
ENDBRANCH  13  14
BRANCH  13  21
ATOM     20  C   UNL     1       3.483   2.017  17.915  0.00  0.00    +0.000 C 
ATOM     21  C   UNL     1       2.981   3.259  18.690  0.00  0.00    +0.000 C 
ATOM     22  C   UNL     1       1.530   3.513  18.238  0.00  0.00    +0.000 C 
ATOM     23  C   UNL     1       2.993   2.857  20.183  0.00  0.00    +0.000 C 
ENDBRANCH  13  21
ENDBRANCH   1  13
TORSDOF 5
ENDMDL
MODEL 2
REMARK VINA RESULT:      -7.5      0.117      1.227
REMARK  Name = 
REMARK  8 active torsions:
REMARK  status: ('A' for Active; 'I' for Inactive)
REMARK    1  A    between atoms: C_1  and  C_2
REMARK    2  A    between atoms: C_2  and  C_3
REMARK    3  A    between atoms: C_2  and  C_4
REMARK    4  A    between atoms: C_2  and  C_5
REMARK    5  A    between atoms: C_5  and  N_6
REMARK    6  A    between atoms: C_5  and  C_17
REMARK    7  A    between atoms: C_7  and  C_9
REMARK    8  A    between atoms: C_12  and  N_13
REMARK                            x       y       z     vdW  Elec       q    Type
REMARK                         _______ _______ _______ _____ _____    ______ ____
ROOT
ATOM      1  N   UNL     1       4.543   4.607  17.086  0.00  0.00    +0.000 N 
ATOM      2  C   UNL     1       5.901   4.567  16.872  0.00  0.00    +0.000 C 
ATOM      3  O   UNL     1       6.722   4.576  17.784  0.00  0.00    +0.000 OA
ATOM      4  H   UNL     1       3.960   4.553  16.264  0.00  0.00    +0.000 HD
ENDROOT
BRANCH   2   5
ATOM      5  C   UNL     1       6.274   4.495  15.471  0.00  0.00    +0.000 A 
ATOM      6  C   UNL     1       5.825   3.658  14.460  0.00  0.00    +0.000 A 
ATOM      7  C   UNL     1       6.512   4.022  13.275  0.00  0.00    +0.000 A 
ATOM      8  C   UNL     1       7.340   5.052  13.642  0.00  0.00    +0.000 A 
ATOM      9  O   UNL     1       7.219   5.358  14.963  0.00  0.00    +0.000 OA
BRANCH   8  10
ATOM     10  N   UNL     1       8.278   5.828  12.884  0.00  0.00    +0.000 N 
ATOM     11  O   UNL     1       7.898   6.213  11.772  0.00  0.00    +0.000 OA
ATOM     12  O   UNL     1       9.380   6.054  13.398  0.00  0.00    +0.000 OA
ENDBRANCH   8  10
ENDBRANCH   2   5
BRANCH   1  13
ATOM     13  C   UNL     1       3.911   4.664  18.406  0.00  0.00    +0.000 C 
BRANCH  13  14
ATOM     14  C   UNL     1       3.236   6.033  18.599  0.00  0.00    +0.000 A 
ATOM     15  C   UNL     1       2.622   6.351  19.825  0.00  0.00    +0.000 A 
ATOM     16  C   UNL     1       1.971   7.578  20.013  0.00  0.00    +0.000 A 
ATOM     17  C   UNL     1       1.943   8.522  18.992  0.00  0.00    +0.000 A 
ATOM     18  C   UNL     1       2.563   8.238  17.779  0.00  0.00    +0.000 A 
ATOM     19  C   UNL     1       3.189   7.006  17.581  0.00  0.00    +0.000 A 
ENDBRANCH  13  14
BRANCH  13  21
ATOM     20  C   UNL     1       3.468   2.162  17.914  0.00  0.00    +0.000 C 
ATOM     21  C   UNL     1       2.973   3.418  18.671  0.00  0.00    +0.000 C 
ATOM     22  C   UNL     1       1.526   3.678  18.208  0.00  0.00    +0.000 C 
ATOM     23  C   UNL     1       2.973   3.034  20.169  0.00  0.00    +0.000 C 
ENDBRANCH  13  21
ENDBRANCH   1  13
TORSDOF 5
ENDMDL
MODEL 3
REMARK VINA RESULT:      -7.5      1.591      1.822
REMARK  Name = 
REMARK  8 active torsions:
REMARK  status: ('A' for Active; 'I' for Inactive)
REMARK    1  A    between atoms: C_1  and  C_2
REMARK    2  A    between atoms: C_2  and  C_3
REMARK    3  A    between atoms: C_2  and  C_4
REMARK    4  A    between atoms: C_2  and  C_5
REMARK    5  A    between atoms: C_5  and  N_6
REMARK    6  A    between atoms: C_5  and  C_17
REMARK    7  A    between atoms: C_7  and  C_9
REMARK    8  A    between atoms: C_12  and  N_13
REMARK                            x       y       z     vdW  Elec       q    Type
REMARK                         _______ _______ _______ _____ _____    ______ ____
ROOT
ATOM      1  N   UNL     1       4.311   4.590  17.332  0.00  0.00    +0.000 N 
ATOM      2  C   UNL     1       5.663   4.365  17.236  0.00  0.00    +0.000 C 
ATOM      3  O   UNL     1       6.370   4.110  18.206  0.00  0.00    +0.000 OA
ATOM      4  H   UNL     1       3.822   4.750  16.463  0.00  0.00    +0.000 HD
ENDROOT
BRANCH   2   5
ATOM      5  C   UNL     1       6.178   4.440  15.880  0.00  0.00    +0.000 A 
ATOM      6  C   UNL     1       7.262   5.134  15.363  0.00  0.00    +0.000 A 
ATOM      7  C   UNL     1       7.324   4.848  13.977  0.00  0.00    +0.000 A 
ATOM      8  C   UNL     1       6.270   4.004  13.737  0.00  0.00    +0.000 A 
ATOM      9  O   UNL     1       5.559   3.741  14.868  0.00  0.00    +0.000 OA
BRANCH   8  10
ATOM     10  N   UNL     1       5.815   3.379  12.529  0.00  0.00    +0.000 N 
ATOM     11  O   UNL     1       4.618   3.525  12.254  0.00  0.00    +0.000 OA
ATOM     12  O   UNL     1       6.647   2.755  11.860  0.00  0.00    +0.000 OA
ENDBRANCH   8  10
ENDBRANCH   2   5
BRANCH   1  13
ATOM     13  C   UNL     1       3.549   4.554  18.582  0.00  0.00    +0.000 C 
BRANCH  13  14
ATOM     14  C   UNL     1       2.923   5.934  18.848  0.00  0.00    +0.000 A 
ATOM     15  C   UNL     1       2.881   6.900  17.824  0.00  0.00    +0.000 A 
ATOM     16  C   UNL     1       2.348   8.175  18.052  0.00  0.00    +0.000 A 
ATOM     17  C   UNL     1       1.822   8.505  19.298  0.00  0.00    +0.000 A 
ATOM     18  C   UNL     1       1.834   7.558  20.318  0.00  0.00    +0.000 A 
ATOM     19  C   UNL     1       2.388   6.296  20.099  0.00  0.00    +0.000 A 
ENDBRANCH  13  14
BRANCH  13  21
ATOM     20  C   UNL     1       3.058   2.129  17.823  0.00  0.00    +0.000 C 
ATOM     21  C   UNL     1       2.530   3.344  18.623  0.00  0.00    +0.000 C 
ATOM     22  C   UNL     1       1.165   3.721  18.017  0.00  0.00    +0.000 C 
ATOM     23  C   UNL     1       2.329   2.840  20.071  0.00  0.00    +0.000 C 
ENDBRANCH  13  21
ENDBRANCH   1  13
TORSDOF 5
ENDMDL
MODEL 4
REMARK VINA RESULT:      -7.4      1.625      2.166
REMARK  Name = 
REMARK  8 active torsions:
REMARK  status: ('A' for Active; 'I' for Inactive)
REMARK    1  A    between atoms: C_1  and  C_2
REMARK    2  A    between atoms: C_2  and  C_3
REMARK    3  A    between atoms: C_2  and  C_4
REMARK    4  A    between atoms: C_2  and  C_5
REMARK    5  A    between atoms: C_5  and  N_6
REMARK    6  A    between atoms: C_5  and  C_17
REMARK    7  A    between atoms: C_7  and  C_9
REMARK    8  A    between atoms: C_12  and  N_13
REMARK                            x       y       z     vdW  Elec       q    Type
REMARK                         _______ _______ _______ _____ _____    ______ ____
ROOT
ATOM      1  N   UNL     1       4.037   5.035  17.773  0.00  0.00    +0.000 N 
ATOM      2  C   UNL     1       5.326   4.558  17.784  0.00  0.00    +0.000 C 
ATOM      3  O   UNL     1       5.865   4.113  18.793  0.00  0.00    +0.000 OA
ATOM      4  H   UNL     1       3.681   5.339  16.878  0.00  0.00    +0.000 HD
ENDROOT
BRANCH   2   5
ATOM      5  C   UNL     1       5.985   4.612  16.492  0.00  0.00    +0.000 A 
ATOM      6  C   UNL     1       7.192   5.184  16.118  0.00  0.00    +0.000 A 
ATOM      7  C   UNL     1       7.365   4.935  14.733  0.00  0.00    +0.000 A 
ATOM      8  C   UNL     1       6.250   4.235  14.352  0.00  0.00    +0.000 A 
ATOM      9  O   UNL     1       5.398   4.025  15.393  0.00  0.00    +0.000 OA
BRANCH   8  10
ATOM     10  N   UNL     1       5.854   3.707  13.078  0.00  0.00    +0.000 N 
ATOM     11  O   UNL     1       6.768   3.384  12.311  0.00  0.00    +0.000 OA
ATOM     12  O   UNL     1       4.642   3.611  12.851  0.00  0.00    +0.000 OA
ENDBRANCH   8  10
ENDBRANCH   2   5
BRANCH   1  13
ATOM     13  C   UNL     1       3.154   5.074  18.940  0.00  0.00    +0.000 C 
BRANCH  13  14
ATOM     14  C   UNL     1       2.540   6.478  19.080  0.00  0.00    +0.000 A 
ATOM     15  C   UNL     1       2.446   7.323  17.958  0.00  0.00    +0.000 A 
ATOM     16  C   UNL     1       1.923   8.618  18.067  0.00  0.00    +0.000 A 
ATOM     17  C   UNL     1       1.459   9.087  19.292  0.00  0.00    +0.000 A 
ATOM     18  C   UNL     1       1.522   8.261  20.410  0.00  0.00    +0.000 A 
ATOM     19  C   UNL     1       2.067   6.980  20.308  0.00  0.00    +0.000 A 
ENDBRANCH  13  14
BRANCH  13  21
ATOM     20  C   UNL     1       1.097   4.017  20.101  0.00  0.00    +0.000 C 
ATOM     21  C   UNL     1       2.105   3.889  18.934  0.00  0.00    +0.000 C 
ATOM     22  C   UNL     1       2.789   2.516  19.082  0.00  0.00    +0.000 C 
ATOM     23  C   UNL     1       1.258   3.906  17.641  0.00  0.00    +0.000 C 
ENDBRANCH  13  21
ENDBRANCH   1  13
TORSDOF 5
ENDMDL
MODEL 5
REMARK VINA RESULT:      -7.4      1.595      2.095
REMARK  Name = 
REMARK  8 active torsions:
REMARK  status: ('A' for Active; 'I' for Inactive)
REMARK    1  A    between atoms: C_1  and  C_2
REMARK    2  A    between atoms: C_2  and  C_3
REMARK    3  A    between atoms: C_2  and  C_4
REMARK    4  A    between atoms: C_2  and  C_5
REMARK    5  A    between atoms: C_5  and  N_6
REMARK    6  A    between atoms: C_5  and  C_17
REMARK    7  A    between atoms: C_7  and  C_9
REMARK    8  A    between atoms: C_12  and  N_13
REMARK                            x       y       z     vdW  Elec       q    Type
REMARK                         _______ _______ _______ _____ _____    ______ ____
ROOT
ATOM      1  N   UNL     1       4.282   4.593  17.317  0.00  0.00    +0.000 N 
ATOM      2  C   UNL     1       5.648   4.453  17.241  0.00  0.00    +0.000 C 
ATOM      3  O   UNL     1       6.359   4.286  18.226  0.00  0.00    +0.000 OA
ATOM      4  H   UNL     1       3.793   4.683  16.439  0.00  0.00    +0.000 HD
ENDROOT
BRANCH   2   5
ATOM      5  C   UNL     1       6.169   4.503  15.887  0.00  0.00    +0.000 A 
ATOM      6  C   UNL     1       7.257   5.186  15.363  0.00  0.00    +0.000 A 
ATOM      7  C   UNL     1       7.326   4.875  13.983  0.00  0.00    +0.000 A 
ATOM      8  C   UNL     1       6.273   4.027  13.753  0.00  0.00    +0.000 A 
ATOM      9  O   UNL     1       5.556   3.785  14.884  0.00  0.00    +0.000 OA
BRANCH   8  10
ATOM     10  N   UNL     1       5.825   3.380  12.554  0.00  0.00    +0.000 N 
ATOM     11  O   UNL     1       4.629   3.521  12.270  0.00  0.00    +0.000 OA
ATOM     12  O   UNL     1       6.660   2.743  11.901  0.00  0.00    +0.000 OA
ENDBRANCH   8  10
ENDBRANCH   2   5
BRANCH   1  13
ATOM     13  C   UNL     1       3.512   4.561  18.562  0.00  0.00    +0.000 C 
BRANCH  13  14
ATOM     14  C   UNL     1       2.912   5.951  18.837  0.00  0.00    +0.000 A 
ATOM     15  C   UNL     1       2.364   6.247  20.099  0.00  0.00    +0.000 A 
ATOM     16  C   UNL     1       1.781   7.494  20.363  0.00  0.00    +0.000 A 
ATOM     17  C   UNL     1       1.756   8.479  19.380  0.00  0.00    +0.000 A 
ATOM     18  C   UNL     1       2.312   8.215  18.132  0.00  0.00    +0.000 A 
ATOM     19  C   UNL     1       2.870   6.965  17.861  0.00  0.00    +0.000 A 
ENDBRANCH  13  14
BRANCH  13  21
ATOM     20  C   UNL     1       3.021   2.117  17.866  0.00  0.00    +0.000 C 
ATOM     21  C   UNL     1       2.469   3.370  18.588  0.00  0.00    +0.000 C 
ATOM     22  C   UNL     1       1.150   3.747  17.886  0.00  0.00    +0.000 C 
ATOM     23  C   UNL     1       2.173   2.926  20.038  0.00  0.00    +0.000 C 
ENDBRANCH  13  21
ENDBRANCH   1  13
TORSDOF 5
ENDMDL
MODEL 6
REMARK VINA RESULT:      -7.4      1.553      2.239
REMARK  Name = 
REMARK  8 active torsions:
REMARK  status: ('A' for Active; 'I' for Inactive)
REMARK    1  A    between atoms: C_1  and  C_2
REMARK    2  A    between atoms: C_2  and  C_3
REMARK    3  A    between atoms: C_2  and  C_4
REMARK    4  A    between atoms: C_2  and  C_5
REMARK    5  A    between atoms: C_5  and  N_6
REMARK    6  A    between atoms: C_5  and  C_17
REMARK    7  A    between atoms: C_7  and  C_9
REMARK    8  A    between atoms: C_12  and  N_13
REMARK                            x       y       z     vdW  Elec       q    Type
REMARK                         _______ _______ _______ _____ _____    ______ ____
ROOT
ATOM      1  N   UNL     1       4.243   4.500  17.517  0.00  0.00    +0.000 N 
ATOM      2  C   UNL     1       5.615   4.431  17.466  0.00  0.00    +0.000 C 
ATOM      3  O   UNL     1       6.315   4.293  18.464  0.00  0.00    +0.000 OA
ATOM      4  H   UNL     1       3.766   4.571  16.630  0.00  0.00    +0.000 HD
ENDROOT
BRANCH   2   5
ATOM      5  C   UNL     1       6.158   4.517  16.122  0.00  0.00    +0.000 A 
ATOM      6  C   UNL     1       7.270   5.191  15.641  0.00  0.00    +0.000 A 
ATOM      7  C   UNL     1       7.354   4.929  14.251  0.00  0.00    +0.000 A 
ATOM      8  C   UNL     1       6.284   4.117  13.974  0.00  0.00    +0.000 A 
ATOM      9  O   UNL     1       5.543   3.853  15.085  0.00  0.00    +0.000 OA
BRANCH   8  10
ATOM     10  N   UNL     1       5.838   3.526  12.746  0.00  0.00    +0.000 N 
ATOM     11  O   UNL     1       6.719   3.084  11.999  0.00  0.00    +0.000 OA
ATOM     12  O   UNL     1       4.620   3.499  12.533  0.00  0.00    +0.000 OA
ENDBRANCH   8  10
ENDBRANCH   2   5
BRANCH   1  13
ATOM     13  C   UNL     1       3.452   4.419  18.747  0.00  0.00    +0.000 C 
BRANCH  13  14
ATOM     14  C   UNL     1       2.845   5.798  19.064  0.00  0.00    +0.000 A 
ATOM     15  C   UNL     1       2.250   6.035  20.318  0.00  0.00    +0.000 A 
ATOM     16  C   UNL     1       1.661   7.271  20.619  0.00  0.00    +0.000 A 
ATOM     17  C   UNL     1       1.677   8.302  19.684  0.00  0.00    +0.000 A 
ATOM     18  C   UNL     1       2.280   8.096  18.447  0.00  0.00    +0.000 A 
ATOM     19  C   UNL     1       2.844   6.858  18.138  0.00  0.00    +0.000 A 
ENDBRANCH  13  14
BRANCH  13  21
ATOM     20  C   UNL     1       1.065   3.670  18.084  0.00  0.00    +0.000 C 
ATOM     21  C   UNL     1       2.410   3.228  18.709  0.00  0.00    +0.000 C 
ATOM     22  C   UNL     1       2.095   2.695  20.119  0.00  0.00    +0.000 C 
ATOM     23  C   UNL     1       2.926   2.071  17.823  0.00  0.00    +0.000 C 
ENDBRANCH  13  21
ENDBRANCH   1  13
TORSDOF 5
ENDMDL
MODEL 7
REMARK VINA RESULT:      -7.4      1.636      2.228
REMARK  Name = 
REMARK  8 active torsions:
REMARK  status: ('A' for Active; 'I' for Inactive)
REMARK    1  A    between atoms: C_1  and  C_2
REMARK    2  A    between atoms: C_2  and  C_3
REMARK    3  A    between atoms: C_2  and  C_4
REMARK    4  A    between atoms: C_2  and  C_5
REMARK    5  A    between atoms: C_5  and  N_6
REMARK    6  A    between atoms: C_5  and  C_17
REMARK    7  A    between atoms: C_7  and  C_9
REMARK    8  A    between atoms: C_12  and  N_13
REMARK                            x       y       z     vdW  Elec       q    Type
REMARK                         _______ _______ _______ _____ _____    ______ ____
ROOT
ATOM      1  N   UNL     1       3.999   5.066  17.862  0.00  0.00    +0.000 N 
ATOM      2  C   UNL     1       5.281   4.573  17.886  0.00  0.00    +0.000 C 
ATOM      3  O   UNL     1       5.802   4.112  18.896  0.00  0.00    +0.000 OA
ATOM      4  H   UNL     1       3.659   5.383  16.965  0.00  0.00    +0.000 HD
ENDROOT
BRANCH   2   5
ATOM      5  C   UNL     1       5.958   4.631  16.602  0.00  0.00    +0.000 A 
ATOM      6  C   UNL     1       7.172   5.200  16.247  0.00  0.00    +0.000 A 
ATOM      7  C   UNL     1       7.363   4.959  14.864  0.00  0.00    +0.000 A 
ATOM      8  C   UNL     1       6.250   4.265  14.464  0.00  0.00    +0.000 A 
ATOM      9  O   UNL     1       5.384   4.053  15.492  0.00  0.00    +0.000 OA
BRANCH   8  10
ATOM     10  N   UNL     1       5.869   3.746  13.183  0.00  0.00    +0.000 N 
ATOM     11  O   UNL     1       6.793   3.442  12.418  0.00  0.00    +0.000 OA
ATOM     12  O   UNL     1       4.661   3.638  12.946  0.00  0.00    +0.000 OA
ENDBRANCH   8  10
ENDBRANCH   2   5
BRANCH   1  13
ATOM     13  C   UNL     1       3.101   5.105  19.018  0.00  0.00    +0.000 C 
BRANCH  13  14
ATOM     14  C   UNL     1       2.511   6.518  19.171  0.00  0.00    +0.000 A 
ATOM     15  C   UNL     1       2.039   6.954  20.423  0.00  0.00    +0.000 A 
ATOM     16  C   UNL     1       1.467   8.224  20.580  0.00  0.00    +0.000 A 
ATOM     17  C   UNL     1       1.378   9.093  19.496  0.00  0.00    +0.000 A 
ATOM     18  C   UNL     1       1.859   8.690  18.254  0.00  0.00    +0.000 A 
ATOM     19  C   UNL     1       2.406   7.416  18.092  0.00  0.00    +0.000 A 
ENDBRANCH  13  14
BRANCH  13  21
ATOM     20  C   UNL     1       2.696   2.553  19.159  0.00  0.00    +0.000 C 
ATOM     21  C   UNL     1       2.031   3.939  18.981  0.00  0.00    +0.000 C 
ATOM     22  C   UNL     1       1.268   3.902  17.643  0.00  0.00    +0.000 C 
ATOM     23  C   UNL     1       1.024   4.076  20.146  0.00  0.00    +0.000 C 
ENDBRANCH  13  21
ENDBRANCH   1  13
TORSDOF 5
ENDMDL
MODEL 8
REMARK VINA RESULT:      -7.3      0.973      1.769
REMARK  Name = 
REMARK  8 active torsions:
REMARK  status: ('A' for Active; 'I' for Inactive)
REMARK    1  A    between atoms: C_1  and  C_2
REMARK    2  A    between atoms: C_2  and  C_3
REMARK    3  A    between atoms: C_2  and  C_4
REMARK    4  A    between atoms: C_2  and  C_5
REMARK    5  A    between atoms: C_5  and  N_6
REMARK    6  A    between atoms: C_5  and  C_17
REMARK    7  A    between atoms: C_7  and  C_9
REMARK    8  A    between atoms: C_12  and  N_13
REMARK                            x       y       z     vdW  Elec       q    Type
REMARK                         _______ _______ _______ _____ _____    ______ ____
ROOT
ATOM      1  N   UNL     1       4.186   5.075  17.743  0.00  0.00    +0.000 N 
ATOM      2  C   UNL     1       5.471   5.373  17.356  0.00  0.00    +0.000 C 
ATOM      3  O   UNL     1       6.264   5.973  18.075  0.00  0.00    +0.000 OA
ATOM      4  H   UNL     1       3.634   4.542  17.087  0.00  0.00    +0.000 HD
ENDROOT
BRANCH   2   5
ATOM      5  C   UNL     1       5.810   4.897  16.027  0.00  0.00    +0.000 A 
ATOM      6  C   UNL     1       5.285   3.851  15.282  0.00  0.00    +0.000 A 
ATOM      7  C   UNL     1       5.972   3.830  14.043  0.00  0.00    +0.000 A 
ATOM      8  C   UNL     1       6.875   4.859  14.115  0.00  0.00    +0.000 A 
ATOM      9  O   UNL     1       6.801   5.520  15.303  0.00  0.00    +0.000 OA
BRANCH   8  10
ATOM     10  N   UNL     1       7.849   5.331  13.174  0.00  0.00    +0.000 N 
ATOM     11  O   UNL     1       7.653   5.037  11.989  0.00  0.00    +0.000 OA
ATOM     12  O   UNL     1       8.795   5.994  13.614  0.00  0.00    +0.000 OA
ENDBRANCH   8  10
ENDBRANCH   2   5
BRANCH   1  13
ATOM     13  C   UNL     1       3.606   5.429  19.041  0.00  0.00    +0.000 C 
BRANCH  13  14
ATOM     14  C   UNL     1       2.867   6.774  18.929  0.00  0.00    +0.000 A 
ATOM     15  C   UNL     1       2.197   7.306  20.047  0.00  0.00    +0.000 A 
ATOM     16  C   UNL     1       1.489   8.513  19.962  0.00  0.00    +0.000 A 
ATOM     17  C   UNL     1       1.458   9.225  18.767  0.00  0.00    +0.000 A 
ATOM     18  C   UNL     1       2.132   8.729  17.656  0.00  0.00    +0.000 A 
ATOM     19  C   UNL     1       2.816   7.515  17.733  0.00  0.00    +0.000 A 
ENDBRANCH  13  14
BRANCH  13  21
ATOM     20  C   UNL     1       1.467   3.988  18.819  0.00  0.00    +0.000 C 
ATOM     21  C   UNL     1       2.746   4.248  19.651  0.00  0.00    +0.000 C 
ATOM     22  C   UNL     1       2.290   4.553  21.090  0.00  0.00    +0.000 C 
ATOM     23  C   UNL     1       3.538   2.921  19.631  0.00  0.00    +0.000 C 
ENDBRANCH  13  21
ENDBRANCH   1  13
TORSDOF 5
ENDMDL
MODEL 9
REMARK VINA RESULT:      -7.3      0.307      1.390
REMARK  Name = 
REMARK  8 active torsions:
REMARK  status: ('A' for Active; 'I' for Inactive)
REMARK    1  A    between atoms: C_1  and  C_2
REMARK    2  A    between atoms: C_2  and  C_3
REMARK    3  A    between atoms: C_2  and  C_4
REMARK    4  A    between atoms: C_2  and  C_5
REMARK    5  A    between atoms: C_5  and  N_6
REMARK    6  A    between atoms: C_5  and  C_17
REMARK    7  A    between atoms: C_7  and  C_9
REMARK    8  A    between atoms: C_12  and  N_13
REMARK                            x       y       z     vdW  Elec       q    Type
REMARK                         _______ _______ _______ _____ _____    ______ ____
ROOT
ATOM      1  N   UNL     1       4.372   4.541  17.236  0.00  0.00    +0.000 N 
ATOM      2  C   UNL     1       5.696   4.794  16.963  0.00  0.00    +0.000 C 
ATOM      3  O   UNL     1       6.497   5.158  17.817  0.00  0.00    +0.000 OA
ATOM      4  H   UNL     1       3.813   4.207  16.464  0.00  0.00    +0.000 HD
ENDROOT
BRANCH   2   5
ATOM      5  C   UNL     1       6.063   4.575  15.575  0.00  0.00    +0.000 A 
ATOM      6  C   UNL     1       5.600   3.646  14.655  0.00  0.00    +0.000 A 
ATOM      7  C   UNL     1       6.287   3.878  13.438  0.00  0.00    +0.000 A 
ATOM      8  C   UNL     1       7.129   4.929  13.697  0.00  0.00    +0.000 A 
ATOM      9  O   UNL     1       7.016   5.370  14.980  0.00  0.00    +0.000 OA
BRANCH   8  10
ATOM     10  N   UNL     1       8.074   5.612  12.861  0.00  0.00    +0.000 N 
ATOM     11  O   UNL     1       9.085   6.050  13.423  0.00  0.00    +0.000 OA
ATOM     12  O   UNL     1       7.811   5.703  11.656  0.00  0.00    +0.000 OA
ENDBRANCH   8  10
ENDBRANCH   2   5
BRANCH   1  13
ATOM     13  C   UNL     1       3.757   4.669  18.558  0.00  0.00    +0.000 C 
BRANCH  13  14
ATOM     14  C   UNL     1       3.108   6.058  18.696  0.00  0.00    +0.000 A 
ATOM     15  C   UNL     1       2.536   6.451  19.920  0.00  0.00    +0.000 A 
ATOM     16  C   UNL     1       1.909   7.696  20.061  0.00  0.00    +0.000 A 
ATOM     17  C   UNL     1       1.863   8.585  18.991  0.00  0.00    +0.000 A 
ATOM     18  C   UNL     1       2.442   8.225  17.778  0.00  0.00    +0.000 A 
ATOM     19  C   UNL     1       3.044   6.975  17.629  0.00  0.00    +0.000 A 
ENDBRANCH  13  14
BRANCH  13  21
ATOM     20  C   UNL     1       1.376   3.681  18.332  0.00  0.00    +0.000 C 
ATOM     21  C   UNL     1       2.801   3.453  18.891  0.00  0.00    +0.000 C 
ATOM     22  C   UNL     1       2.656   3.234  20.409  0.00  0.00    +0.000 C 
ATOM     23  C   UNL     1       3.310   2.152  18.229  0.00  0.00    +0.000 C 
ENDBRANCH  13  21
ENDBRANCH   1  13
TORSDOF 5
ENDMDL
