MODEL 1
REMARK VINA RESULT:      -6.9      0.000      0.000
REMARK  Name = 
REMARK  6 active torsions:
REMARK  status: ('A' for Active; 'I' for Inactive)
REMARK    1  A    between atoms: C_1  and  C_2
REMARK    2  A    between atoms: C_2  and  N_3
REMARK    3  A    between atoms: N_3  and  C_4
REMARK    4  A    between atoms: C_4  and  C_5
REMARK    5  A    between atoms: C_6  and  O_8
REMARK    6  A    between atoms: O_8  and  C_9
REMARK                            x       y       z     vdW  Elec       q    Type
REMARK                         _______ _______ _______ _____ _____    ______ ____
ROOT
ATOM      1  C   UNL     1       5.507   5.065  18.272  0.00  0.00    +0.000 A 
ATOM      2  C   UNL     1       6.629   5.892  18.278  0.00  0.00    +0.000 A 
ATOM      3  C   UNL     1       7.376   6.087  17.117  0.00  0.00    +0.000 A 
ATOM      4  C   UNL     1       6.977   5.395  15.970  0.00  0.00    +0.000 A 
ATOM      5  N   UNL     1       7.536   5.378  14.713  0.00  0.00    +0.000 N 
ATOM      6  C   UNL     1       6.837   4.536  13.893  0.00  0.00    +0.000 A 
ATOM      7  C   UNL     1       5.795   4.009  14.625  0.00  0.00    +0.000 A 
ATOM      8  C   UNL     1       5.872   4.541  15.943  0.00  0.00    +0.000 A 
ATOM      9  C   UNL     1       5.115   4.372  17.122  0.00  0.00    +0.000 A 
ATOM     10  H   UNL     1       8.356   5.907  14.447  0.00  0.00    +0.000 HD
ENDROOT
BRANCH   1  11
ATOM     11  O   UNL     1       4.803   4.789  19.465  0.00  0.00    +0.000 OA
BRANCH  11  13
ATOM     12  N   UNL     1       2.823   3.578  19.548  0.00  0.00    +0.000 N 
ATOM     13  C   UNL     1       4.214   3.532  19.614  0.00  0.00    +0.000 C 
ATOM     14  O   UNL     1       4.840   2.489  19.771  0.00  0.00    +0.000 OA
BRANCH  12  16
ATOM     15  C   UNL     1       0.807   2.298  18.807  0.00  0.00    +0.000 C 
ATOM     16  C   UNL     1       2.084   2.320  19.635  0.00  0.00    +0.000 C 
ENDBRANCH  12  16
BRANCH  12  17
ATOM     17  C   UNL     1       2.087   4.832  19.398  0.00  0.00    +0.000 C 
ATOM     18  C   UNL     1       1.625   5.439  20.713  0.00  0.00    +0.000 C 
ENDBRANCH  12  17
ENDBRANCH  11  13
ENDBRANCH   1  11
TORSDOF 4
ENDMDL
MODEL 2
REMARK VINA RESULT:      -6.7      0.825      1.138
REMARK  Name = 
REMARK  6 active torsions:
REMARK  status: ('A' for Active; 'I' for Inactive)
REMARK    1  A    between atoms: C_1  and  C_2
REMARK    2  A    between atoms: C_2  and  N_3
REMARK    3  A    between atoms: N_3  and  C_4
REMARK    4  A    between atoms: C_4  and  C_5
REMARK    5  A    between atoms: C_6  and  O_8
REMARK    6  A    between atoms: O_8  and  C_9
REMARK                            x       y       z     vdW  Elec       q    Type
REMARK                         _______ _______ _______ _____ _____    ______ ____
ROOT
ATOM      1  C   UNL     1       5.224   5.437  17.831  0.00  0.00    +0.000 A 
ATOM      2  C   UNL     1       6.460   6.077  17.901  0.00  0.00    +0.000 A 
ATOM      3  C   UNL     1       7.320   6.086  16.803  0.00  0.00    +0.000 A 
ATOM      4  C   UNL     1       6.908   5.402  15.657  0.00  0.00    +0.000 A 
ATOM      5  N   UNL     1       7.557   5.226  14.455  0.00  0.00    +0.000 N 
ATOM      6  C   UNL     1       6.800   4.460  13.614  0.00  0.00    +0.000 A 
ATOM      7  C   UNL     1       5.632   4.144  14.272  0.00  0.00    +0.000 A 
ATOM      8  C   UNL     1       5.686   4.732  15.568  0.00  0.00    +0.000 A 
ATOM      9  C   UNL     1       4.820   4.750  16.682  0.00  0.00    +0.000 A 
ATOM     10  H   UNL     1       8.471   5.604  14.241  0.00  0.00    +0.000 HD
ENDROOT
BRANCH   1  11
ATOM     11  O   UNL     1       4.390   5.342  18.967  0.00  0.00    +0.000 OA
BRANCH  11  13
ATOM     12  N   UNL     1       2.806   3.749  19.556  0.00  0.00    +0.000 N 
ATOM     13  C   UNL     1       4.159   4.081  19.521  0.00  0.00    +0.000 C 
ATOM     14  O   UNL     1       5.042   3.329  19.921  0.00  0.00    +0.000 OA
BRANCH  12  16
ATOM     15  C   UNL     1       1.703   2.469  21.399  0.00  0.00    +0.000 C 
ATOM     16  C   UNL     1       2.431   2.430  20.063  0.00  0.00    +0.000 C 
ENDBRANCH  12  16
BRANCH  12  17
ATOM     17  C   UNL     1       1.762   4.668  19.111  0.00  0.00    +0.000 C 
ATOM     18  C   UNL     1       1.306   4.441  17.678  0.00  0.00    +0.000 C 
ENDBRANCH  12  17
ENDBRANCH  11  13
ENDBRANCH   1  11
TORSDOF 4
ENDMDL
MODEL 3
REMARK VINA RESULT:      -6.6      1.053      1.844
REMARK  Name = 
REMARK  6 active torsions:
REMARK  status: ('A' for Active; 'I' for Inactive)
REMARK    1  A    between atoms: C_1  and  C_2
REMARK    2  A    between atoms: C_2  and  N_3
REMARK    3  A    between atoms: N_3  and  C_4
REMARK    4  A    between atoms: C_4  and  C_5
REMARK    5  A    between atoms: C_6  and  O_8
REMARK    6  A    between atoms: O_8  and  C_9
REMARK                            x       y       z     vdW  Elec       q    Type
REMARK                         _______ _______ _______ _____ _____    ______ ____
ROOT
ATOM      1  C   UNL     1       5.861   4.573  18.050  0.00  0.00    +0.000 A 
ATOM      2  C   UNL     1       6.807   5.597  18.045  0.00  0.00    +0.000 A 
ATOM      3  C   UNL     1       7.408   6.005  16.855  0.00  0.00    +0.000 A 
ATOM      4  C   UNL     1       7.054   5.325  15.688  0.00  0.00    +0.000 A 
ATOM      5  N   UNL     1       7.503   5.496  14.398  0.00  0.00    +0.000 N 
ATOM      6  C   UNL     1       6.909   4.591  13.564  0.00  0.00    +0.000 A 
ATOM      7  C   UNL     1       6.045   3.828  14.320  0.00  0.00    +0.000 A 
ATOM      8  C   UNL     1       6.128   4.280  15.668  0.00  0.00    +0.000 A 
ATOM      9  C   UNL     1       5.514   3.893  16.878  0.00  0.00    +0.000 A 
ATOM     10  H   UNL     1       8.186   6.188  14.120  0.00  0.00    +0.000 HD
ENDROOT
BRANCH   1  11
ATOM     11  O   UNL     1       5.319   4.091  19.262  0.00  0.00    +0.000 OA
BRANCH  11  13
ATOM     12  N   UNL     1       3.133   3.498  19.777  0.00  0.00    +0.000 N 
ATOM     13  C   UNL     1       4.054   4.537  19.649  0.00  0.00    +0.000 C 
ATOM     14  O   UNL     1       3.771   5.709  19.873  0.00  0.00    +0.000 OA
BRANCH  12  16
ATOM     15  C   UNL     1       1.294   2.950  21.379  0.00  0.00    +0.000 C 
ATOM     16  C   UNL     1       1.783   3.823  20.232  0.00  0.00    +0.000 C 
ENDBRANCH  12  16
BRANCH  12  17
ATOM     17  C   UNL     1       3.472   2.110  19.472  0.00  0.00    +0.000 C 
ATOM     18  C   UNL     1       3.022   1.652  18.093  0.00  0.00    +0.000 C 
ENDBRANCH  12  17
ENDBRANCH  11  13
ENDBRANCH   1  11
TORSDOF 4
ENDMDL
MODEL 4
REMARK VINA RESULT:      -6.6      1.742      2.578
REMARK  Name = 
REMARK  6 active torsions:
REMARK  status: ('A' for Active; 'I' for Inactive)
REMARK    1  A    between atoms: C_1  and  C_2
REMARK    2  A    between atoms: C_2  and  N_3
REMARK    3  A    between atoms: N_3  and  C_4
REMARK    4  A    between atoms: C_4  and  C_5
REMARK    5  A    between atoms: C_6  and  O_8
REMARK    6  A    between atoms: O_8  and  C_9
REMARK                            x       y       z     vdW  Elec       q    Type
REMARK                         _______ _______ _______ _____ _____    ______ ____
ROOT
ATOM      1  C   UNL     1       5.002   4.177  17.625  0.00  0.00    +0.000 A 
ATOM      2  C   UNL     1       4.627   4.925  16.510  0.00  0.00    +0.000 A 
ATOM      3  C   UNL     1       5.316   6.089  16.169  0.00  0.00    +0.000 A 
ATOM      4  C   UNL     1       6.361   6.488  17.006  0.00  0.00    +0.000 A 
ATOM      5  N   UNL     1       7.181   7.591  16.927  0.00  0.00    +0.000 N 
ATOM      6  C   UNL     1       8.056   7.609  17.977  0.00  0.00    +0.000 A 
ATOM      7  C   UNL     1       7.813   6.490  18.744  0.00  0.00    +0.000 A 
ATOM      8  C   UNL     1       6.741   5.771  18.143  0.00  0.00    +0.000 A 
ATOM      9  C   UNL     1       6.046   4.585  18.462  0.00  0.00    +0.000 A 
ATOM     10  H   UNL     1       7.126   8.290  16.198  0.00  0.00    +0.000 HD
ENDROOT
BRANCH   1  11
ATOM     11  O   UNL     1       4.251   3.052  18.030  0.00  0.00    +0.000 OA
BRANCH  11  13
ATOM     12  N   UNL     1       2.999   3.477  19.940  0.00  0.00    +0.000 N 
ATOM     13  C   UNL     1       4.097   2.811  19.397  0.00  0.00    +0.000 C 
ATOM     14  O   UNL     1       4.828   2.082  20.058  0.00  0.00    +0.000 OA
BRANCH  12  16
ATOM     15  C   UNL     1       1.336   2.617  21.598  0.00  0.00    +0.000 C 
ATOM     16  C   UNL     1       2.692   3.266  21.353  0.00  0.00    +0.000 C 
ENDBRANCH  12  16
BRANCH  12  17
ATOM     17  C   UNL     1       2.156   4.372  19.150  0.00  0.00    +0.000 C 
ATOM     18  C   UNL     1       2.306   5.842  19.511  0.00  0.00    +0.000 C 
ENDBRANCH  12  17
ENDBRANCH  11  13
ENDBRANCH   1  11
TORSDOF 4
ENDMDL
MODEL 5
REMARK VINA RESULT:      -6.5      1.842      6.404
REMARK  Name = 
REMARK  6 active torsions:
REMARK  status: ('A' for Active; 'I' for Inactive)
REMARK    1  A    between atoms: C_1  and  C_2
REMARK    2  A    between atoms: C_2  and  N_3
REMARK    3  A    between atoms: N_3  and  C_4
REMARK    4  A    between atoms: C_4  and  C_5
REMARK    5  A    between atoms: C_6  and  O_8
REMARK    6  A    between atoms: O_8  and  C_9
REMARK                            x       y       z     vdW  Elec       q    Type
REMARK                         _______ _______ _______ _____ _____    ______ ____
ROOT
ATOM      1  C   UNL     1       3.329   4.315  17.954  0.00  0.00    +0.000 A 
ATOM      2  C   UNL     1       2.013   4.195  17.512  0.00  0.00    +0.000 A 
ATOM      3  C   UNL     1       1.015   3.725  18.365  0.00  0.00    +0.000 A 
ATOM      4  C   UNL     1       1.395   3.347  19.655  0.00  0.00    +0.000 A 
ATOM      5  N   UNL     1       0.637   2.831  20.682  0.00  0.00    +0.000 N 
ATOM      6  C   UNL     1       1.422   2.574  21.770  0.00  0.00    +0.000 A 
ATOM      7  C   UNL     1       2.711   2.944  21.453  0.00  0.00    +0.000 A 
ATOM      8  C   UNL     1       2.711   3.433  20.116  0.00  0.00    +0.000 A 
ATOM      9  C   UNL     1       3.704   3.930  19.246  0.00  0.00    +0.000 A 
ATOM     10  H   UNL     1      -0.358   2.658  20.623  0.00  0.00    +0.000 HD
ENDROOT
BRANCH   1  11
ATOM     11  O   UNL     1       4.360   4.700  17.070  0.00  0.00    +0.000 OA
BRANCH  11  13
ATOM     12  N   UNL     1       6.365   5.864  16.929  0.00  0.00    +0.000 N 
ATOM     13  C   UNL     1       5.023   5.906  17.304  0.00  0.00    +0.000 C 
ATOM     14  O   UNL     1       4.492   6.908  17.772  0.00  0.00    +0.000 OA
BRANCH  12  16
ATOM     15  C   UNL     1       7.984   7.133  18.350  0.00  0.00    +0.000 C 
ATOM     16  C   UNL     1       7.161   7.082  17.071  0.00  0.00    +0.000 C 
ENDBRANCH  12  16
BRANCH  12  17
ATOM     17  C   UNL     1       6.995   4.654  16.406  0.00  0.00    +0.000 C 
ATOM     18  C   UNL     1       7.026   4.578  14.888  0.00  0.00    +0.000 C 
ENDBRANCH  12  17
ENDBRANCH  11  13
ENDBRANCH   1  11
TORSDOF 4
ENDMDL
MODEL 6
REMARK VINA RESULT:      -6.5      1.698      6.178
REMARK  Name = 
REMARK  6 active torsions:
REMARK  status: ('A' for Active; 'I' for Inactive)
REMARK    1  A    between atoms: C_1  and  C_2
REMARK    2  A    between atoms: C_2  and  N_3
REMARK    3  A    between atoms: N_3  and  C_4
REMARK    4  A    between atoms: C_4  and  C_5
REMARK    5  A    between atoms: C_6  and  O_8
REMARK    6  A    between atoms: O_8  and  C_9
REMARK                            x       y       z     vdW  Elec       q    Type
REMARK                         _______ _______ _______ _____ _____    ______ ____
ROOT
ATOM      1  C   UNL     1       3.979   3.651  18.072  0.00  0.00    +0.000 A 
ATOM      2  C   UNL     1       2.755   4.014  17.514  0.00  0.00    +0.000 A 
ATOM      3  C   UNL     1       1.582   3.949  18.265  0.00  0.00    +0.000 A 
ATOM      4  C   UNL     1       1.682   3.473  19.575  0.00  0.00    +0.000 A 
ATOM      5  N   UNL     1       0.699   3.280  20.519  0.00  0.00    +0.000 N 
ATOM      6  C   UNL     1       1.237   2.766  21.666  0.00  0.00    +0.000 A 
ATOM      7  C   UNL     1       2.595   2.638  21.472  0.00  0.00    +0.000 A 
ATOM      8  C   UNL     1       2.892   3.079  20.151  0.00  0.00    +0.000 A 
ATOM      9  C   UNL     1       4.072   3.171  19.383  0.00  0.00    +0.000 A 
ATOM     10  H   UNL     1      -0.281   3.480  20.371  0.00  0.00    +0.000 HD
ENDROOT
BRANCH   1  11
ATOM     11  O   UNL     1       5.155   3.625  17.290  0.00  0.00    +0.000 OA
BRANCH  11  13
ATOM     12  N   UNL     1       6.468   5.437  16.669  0.00  0.00    +0.000 N 
ATOM     13  C   UNL     1       6.208   4.472  17.641  0.00  0.00    +0.000 C 
ATOM     14  O   UNL     1       6.834   4.399  18.693  0.00  0.00    +0.000 OA
BRANCH  12  16
ATOM     15  C   UNL     1       6.989   7.734  17.509  0.00  0.00    +0.000 C 
ATOM     16  C   UNL     1       7.513   6.424  16.937  0.00  0.00    +0.000 C 
ENDBRANCH  12  16
BRANCH  12  17
ATOM     17  C   UNL     1       5.740   5.491  15.403  0.00  0.00    +0.000 C 
ATOM     18  C   UNL     1       6.381   4.684  14.285  0.00  0.00    +0.000 C 
ENDBRANCH  12  17
ENDBRANCH  11  13
ENDBRANCH   1  11
TORSDOF 4
ENDMDL
MODEL 7
REMARK VINA RESULT:      -6.5      1.068      1.644
REMARK  Name = 
REMARK  6 active torsions:
REMARK  status: ('A' for Active; 'I' for Inactive)
REMARK    1  A    between atoms: C_1  and  C_2
REMARK    2  A    between atoms: C_2  and  N_3
REMARK    3  A    between atoms: N_3  and  C_4
REMARK    4  A    between atoms: C_4  and  C_5
REMARK    5  A    between atoms: C_6  and  O_8
REMARK    6  A    between atoms: O_8  and  C_9
REMARK                            x       y       z     vdW  Elec       q    Type
REMARK                         _______ _______ _______ _____ _____    ______ ____
ROOT
ATOM      1  C   UNL     1       5.190   5.355  18.201  0.00  0.00    +0.000 A 
ATOM      2  C   UNL     1       6.405   6.030  18.288  0.00  0.00    +0.000 A 
ATOM      3  C   UNL     1       7.266   6.091  17.192  0.00  0.00    +0.000 A 
ATOM      4  C   UNL     1       6.877   5.420  16.029  0.00  0.00    +0.000 A 
ATOM      5  N   UNL     1       7.533   5.291  14.826  0.00  0.00    +0.000 N 
ATOM      6  C   UNL     1       6.801   4.520  13.966  0.00  0.00    +0.000 A 
ATOM      7  C   UNL     1       5.642   4.155  14.615  0.00  0.00    +0.000 A 
ATOM      8  C   UNL     1       5.676   4.715  15.924  0.00  0.00    +0.000 A 
ATOM      9  C   UNL     1       4.808   4.681  17.036  0.00  0.00    +0.000 A 
ATOM     10  H   UNL     1       8.434   5.701  14.621  0.00  0.00    +0.000 HD
ENDROOT
BRANCH   1  11
ATOM     11  O   UNL     1       4.358   5.209  19.333  0.00  0.00    +0.000 OA
BRANCH  11  13
ATOM     12  N   UNL     1       2.437   3.943  19.647  0.00  0.00    +0.000 N 
ATOM     13  C   UNL     1       2.978   5.122  19.139  0.00  0.00    +0.000 C 
ATOM     14  O   UNL     1       2.299   5.988  18.597  0.00  0.00    +0.000 OA
BRANCH  12  16
ATOM     15  C   UNL     1       0.581   2.525  18.753  0.00  0.00    +0.000 C 
ATOM     16  C   UNL     1       0.990   3.751  19.558  0.00  0.00    +0.000 C 
ENDBRANCH  12  16
BRANCH  12  17
ATOM     17  C   UNL     1       3.261   2.902  20.257  0.00  0.00    +0.000 C 
ATOM     18  C   UNL     1       2.774   2.449  21.625  0.00  0.00    +0.000 C 
ENDBRANCH  12  17
ENDBRANCH  11  13
ENDBRANCH   1  11
TORSDOF 4
ENDMDL
MODEL 8
REMARK VINA RESULT:      -6.4      2.220      5.935
REMARK  Name = 
REMARK  6 active torsions:
REMARK  status: ('A' for Active; 'I' for Inactive)
REMARK    1  A    between atoms: C_1  and  C_2
REMARK    2  A    between atoms: C_2  and  N_3
REMARK    3  A    between atoms: N_3  and  C_4
REMARK    4  A    between atoms: C_4  and  C_5
REMARK    5  A    between atoms: C_6  and  O_8
REMARK    6  A    between atoms: O_8  and  C_9
REMARK                            x       y       z     vdW  Elec       q    Type
REMARK                         _______ _______ _______ _____ _____    ______ ____
ROOT
ATOM      1  C   UNL     1       3.875   3.761  18.046  0.00  0.00    +0.000 A 
ATOM      2  C   UNL     1       2.626   3.754  17.430  0.00  0.00    +0.000 A 
ATOM      3  C   UNL     1       1.470   3.499  18.167  0.00  0.00    +0.000 A 
ATOM      4  C   UNL     1       1.622   3.216  19.527  0.00  0.00    +0.000 A 
ATOM      5  N   UNL     1       0.672   2.905  20.474  0.00  0.00    +0.000 N 
ATOM      6  C   UNL     1       1.266   2.672  21.683  0.00  0.00    +0.000 A 
ATOM      7  C   UNL     1       2.623   2.849  21.525  0.00  0.00    +0.000 A 
ATOM      8  C   UNL     1       2.865   3.192  20.164  0.00  0.00    +0.000 A 
ATOM      9  C   UNL     1       4.022   3.472  19.407  0.00  0.00    +0.000 A 
ATOM     10  H   UNL     1      -0.320   2.847  20.287  0.00  0.00    +0.000 HD
ENDROOT
BRANCH   1  11
ATOM     11  O   UNL     1       5.057   3.925  17.289  0.00  0.00    +0.000 OA
BRANCH  11  13
ATOM     12  N   UNL     1       6.038   6.008  17.595  0.00  0.00    +0.000 N 
ATOM     13  C   UNL     1       6.115   4.640  17.854  0.00  0.00    +0.000 C 
ATOM     14  O   UNL     1       7.013   4.137  18.521  0.00  0.00    +0.000 OA
BRANCH  12  16
ATOM     15  C   UNL     1       7.673   7.853  17.181  0.00  0.00    +0.000 C 
ATOM     16  C   UNL     1       7.056   6.880  18.176  0.00  0.00    +0.000 C 
ENDBRANCH  12  16
BRANCH  12  17
ATOM     17  C   UNL     1       4.983   6.591  16.768  0.00  0.00    +0.000 C 
ATOM     18  C   UNL     1       3.895   7.299  17.561  0.00  0.00    +0.000 C 
ENDBRANCH  12  17
ENDBRANCH  11  13
ENDBRANCH   1  11
TORSDOF 4
ENDMDL
MODEL 9
REMARK VINA RESULT:      -6.4      1.920      5.984
REMARK  Name = 
REMARK  6 active torsions:
REMARK  status: ('A' for Active; 'I' for Inactive)
REMARK    1  A    between atoms: C_1  and  C_2
REMARK    2  A    between atoms: C_2  and  N_3
REMARK    3  A    between atoms: N_3  and  C_4
REMARK    4  A    between atoms: C_4  and  C_5
REMARK    5  A    between atoms: C_6  and  O_8
REMARK    6  A    between atoms: O_8  and  C_9
REMARK                            x       y       z     vdW  Elec       q    Type
REMARK                         _______ _______ _______ _____ _____    ______ ____
ROOT
ATOM      1  C   UNL     1       3.491   5.647  18.566  0.00  0.00    +0.000 A 
ATOM      2  C   UNL     1       2.573   5.137  17.651  0.00  0.00    +0.000 A 
ATOM      3  C   UNL     1       1.593   4.230  18.054  0.00  0.00    +0.000 A 
ATOM      4  C   UNL     1       1.598   3.831  19.393  0.00  0.00    +0.000 A 
ATOM      5  N   UNL     1       0.777   2.941  20.049  0.00  0.00    +0.000 N 
ATOM      6  C   UNL     1       1.154   2.824  21.358  0.00  0.00    +0.000 A 
ATOM      7  C   UNL     1       2.228   3.663  21.562  0.00  0.00    +0.000 A 
ATOM      8  C   UNL     1       2.522   4.306  20.326  0.00  0.00    +0.000 A 
ATOM      9  C   UNL     1       3.493   5.239  19.905  0.00  0.00    +0.000 A 
ATOM     10  H   UNL     1       0.015   2.441  19.613  0.00  0.00    +0.000 HD
ENDROOT
BRANCH   1  11
ATOM     11  O   UNL     1       4.543   6.491  18.147  0.00  0.00    +0.000 OA
BRANCH  11  13
ATOM     12  N   UNL     1       6.181   5.399  16.914  0.00  0.00    +0.000 N 
ATOM     13  C   UNL     1       5.103   6.281  16.884  0.00  0.00    +0.000 C 
ATOM     14  O   UNL     1       4.690   6.795  15.850  0.00  0.00    +0.000 OA
BRANCH  12  16
ATOM     15  C   UNL     1       6.181   3.867  14.938  0.00  0.00    +0.000 C 
ATOM     16  C   UNL     1       6.824   5.049  15.649  0.00  0.00    +0.000 C 
ENDBRANCH  12  16
BRANCH  12  17
ATOM     17  C   UNL     1       6.687   4.821  18.158  0.00  0.00    +0.000 C 
ATOM     18  C   UNL     1       7.784   5.640  18.820  0.00  0.00    +0.000 C 
ENDBRANCH  12  17
ENDBRANCH  11  13
ENDBRANCH   1  11
TORSDOF 4
ENDMDL
