MODEL 1
REMARK VINA RESULT:      -8.6      0.000      0.000
REMARK  Name = 
REMARK  8 active torsions:
REMARK  status: ('A' for Active; 'I' for Inactive)
REMARK    1  A    between atoms: C_1  and  C_2
REMARK    2  A    between atoms: C_4  and  C_5
REMARK    3  A    between atoms: C_8  and  O_9
REMARK    4  A    between atoms: O_9  and  C_10
REMARK    5  A    between atoms: C_10  and  C_11
REMARK    6  A    between atoms: C_18  and  C_19
REMARK    7  A    between atoms: C_25  and  C_26
REMARK    8  A    between atoms: C_26  and  O_28
REMARK                            x       y       z     vdW  Elec       q    Type
REMARK                         _______ _______ _______ _____ _____    ______ ____
ROOT
ATOM      1  C   UNL     1       1.937   7.467  19.853  0.00  0.00    +0.000 A 
ATOM      2  C   UNL     1       1.943   8.242  18.693  0.00  0.00    +0.000 A 
ATOM      3  C   UNL     1       1.389   9.517  18.706  0.00  0.00    +0.000 A 
ATOM      4  C   UNL     1       0.873  10.064  19.889  0.00  0.00    +0.000 A 
ATOM      5  C   UNL     1       0.846   9.284  21.057  0.00  0.00    +0.000 A 
ATOM      6  C   UNL     1       1.386   7.987  21.033  0.00  0.00    +0.000 A 
ENDROOT
BRANCH   1  10
ATOM      7  C   UNL     1       1.913   2.918  21.424  0.00  0.00    +0.000 C 
ATOM      8  C   UNL     1       2.627   3.913  20.541  0.00  0.00    +0.000 A 
ATOM      9  N   UNL     1       2.035   5.163  20.574  0.00  0.00    +0.000 NA
ATOM     10  C   UNL     1       2.535   6.108  19.852  0.00  0.00    +0.000 A 
ATOM     11  N   UNL     1       3.626   5.909  19.051  0.00  0.00    +0.000 N 
ATOM     12  C   UNL     1       4.270   4.715  18.994  0.00  0.00    +0.000 A 
ATOM     13  O   UNL     1       5.270   4.565  18.294  0.00  0.00    +0.000 OA
ATOM     14  C   UNL     1       3.717   3.609  19.800  0.00  0.00    +0.000 A 
ATOM     15  H   UNL     1       3.998   6.626  18.449  0.00  0.00    +0.000 HD
BRANCH  14  16
ATOM     16  C   UNL     1       4.332   2.260  19.764  0.00  0.00    +0.000 C 
ATOM     17  O   UNL     1       5.060   1.808  20.636  0.00  0.00    +0.000 OA
BRANCH  16  18
ATOM     18  O   UNL     1       4.028   1.517  18.672  0.00  0.00    +0.000 OA
ATOM     19  H   UNL     1       4.208   0.550  18.758  0.00  0.00    +0.000 HD
ENDBRANCH  16  18
ENDBRANCH  14  16
ENDBRANCH   1  10
BRANCH   5  20
ATOM     20  C   UNL     1       0.293   9.788  22.286  0.00  0.00    +0.000 C 
ATOM     21  N   UNL     1      -0.177  10.205  23.262  0.00  0.00    +0.000 NA
ENDBRANCH   5  20
BRANCH   4  22
ATOM     22  O   UNL     1       0.400  11.352  19.961  0.00  0.00    +0.000 OA
BRANCH  22  23
ATOM     23  C   UNL     1      -0.087  11.875  18.721  0.00  0.00    +0.000 C 
BRANCH  23  24
ATOM     24  C   UNL     1      -1.572  11.696  18.537  0.00  0.00    +0.000 A 
ATOM     25  C   UNL     1      -2.122  10.956  17.485  0.00  0.00    +0.000 A 
ATOM     26  C   UNL     1      -3.506  10.797  17.388  0.00  0.00    +0.000 A 
ATOM     27  C   UNL     1      -4.343  11.382  18.338  0.00  0.00    +0.000 A 
ATOM     28 BR   UNL     1      -6.213  11.147  18.216  0.00  0.00    +0.000 Br
ATOM     29  C   UNL     1      -3.810  12.132  19.383  0.00  0.00    +0.000 A 
ATOM     30  C   UNL     1      -2.430  12.292  19.478  0.00  0.00    +0.000 A 
ENDBRANCH  23  24
ENDBRANCH  22  23
ENDBRANCH   4  22
TORSDOF 7
ENDMDL
MODEL 2
REMARK VINA RESULT:      -8.5      0.766      1.680
REMARK  Name = 
REMARK  8 active torsions:
REMARK  status: ('A' for Active; 'I' for Inactive)
REMARK    1  A    between atoms: C_1  and  C_2
REMARK    2  A    between atoms: C_4  and  C_5
REMARK    3  A    between atoms: C_8  and  O_9
REMARK    4  A    between atoms: O_9  and  C_10
REMARK    5  A    between atoms: C_10  and  C_11
REMARK    6  A    between atoms: C_18  and  C_19
REMARK    7  A    between atoms: C_25  and  C_26
REMARK    8  A    between atoms: C_26  and  O_28
REMARK                            x       y       z     vdW  Elec       q    Type
REMARK                         _______ _______ _______ _____ _____    ______ ____
ROOT
ATOM      1  C   UNL     1       1.921   7.473  19.751  0.00  0.00    +0.000 A 
ATOM      2  C   UNL     1       1.929   8.351  18.666  0.00  0.00    +0.000 A 
ATOM      3  C   UNL     1       1.414   9.634  18.806  0.00  0.00    +0.000 A 
ATOM      4  C   UNL     1       0.936  10.085  20.044  0.00  0.00    +0.000 A 
ATOM      5  C   UNL     1       0.907   9.203  21.137  0.00  0.00    +0.000 A 
ATOM      6  C   UNL     1       1.407   7.898  20.985  0.00  0.00    +0.000 A 
ENDROOT
BRANCH   1  10
ATOM      7  C   UNL     1       4.329   4.210  17.160  0.00  0.00    +0.000 C 
ATOM      8  C   UNL     1       3.607   4.461  18.462  0.00  0.00    +0.000 A 
ATOM      9  N   UNL     1       3.106   5.748  18.544  0.00  0.00    +0.000 NA
ATOM     10  C   UNL     1       2.478   6.104  19.614  0.00  0.00    +0.000 A 
ATOM     11  N   UNL     1       2.299   5.251  20.668  0.00  0.00    +0.000 N 
ATOM     12  C   UNL     1       2.740   3.968  20.639  0.00  0.00    +0.000 A 
ATOM     13  O   UNL     1       2.539   3.205  21.583  0.00  0.00    +0.000 OA
ATOM     14  C   UNL     1       3.473   3.531  19.435  0.00  0.00    +0.000 A 
ATOM     15  H   UNL     1       1.849   5.531  21.525  0.00  0.00    +0.000 HD
BRANCH  14  16
ATOM     16  C   UNL     1       4.029   2.158  19.338  0.00  0.00    +0.000 C 
ATOM     17  O   UNL     1       3.575   1.278  18.622  0.00  0.00    +0.000 OA
BRANCH  16  18
ATOM     18  O   UNL     1       5.116   1.921  20.111  0.00  0.00    +0.000 OA
ATOM     19  H   UNL     1       5.275   0.972  20.333  0.00  0.00    +0.000 HD
ENDBRANCH  16  18
ENDBRANCH  14  16
ENDBRANCH   1  10
BRANCH   5  20
ATOM     20  C   UNL     1       0.392   9.608  22.418  0.00  0.00    +0.000 C 
ATOM     21  N   UNL     1      -0.003   9.956  23.453  0.00  0.00    +0.000 NA
ENDBRANCH   5  20
BRANCH   4  22
ATOM     22  O   UNL     1       0.503  11.374  20.243  0.00  0.00    +0.000 OA
BRANCH  22  23
ATOM     23  C   UNL     1       0.058  12.040  19.056  0.00  0.00    +0.000 C 
BRANCH  23  24
ATOM     24  C   UNL     1      -1.409  11.847  18.774  0.00  0.00    +0.000 A 
ATOM     25  C   UNL     1      -1.883  11.117  17.678  0.00  0.00    +0.000 A 
ATOM     26  C   UNL     1      -3.255  10.945  17.491  0.00  0.00    +0.000 A 
ATOM     27  C   UNL     1      -4.158  11.506  18.394  0.00  0.00    +0.000 A 
ATOM     28 BR   UNL     1      -6.014  11.253  18.149  0.00  0.00    +0.000 Br
ATOM     29  C   UNL     1      -3.702  12.247  19.481  0.00  0.00    +0.000 A 
ATOM     30  C   UNL     1      -2.332  12.419  19.667  0.00  0.00    +0.000 A 
ENDBRANCH  23  24
ENDBRANCH  22  23
ENDBRANCH   4  22
TORSDOF 7
ENDMDL
MODEL 3
REMARK VINA RESULT:      -8.4      0.740      1.814
REMARK  Name = 
REMARK  8 active torsions:
REMARK  status: ('A' for Active; 'I' for Inactive)
REMARK    1  A    between atoms: C_1  and  C_2
REMARK    2  A    between atoms: C_4  and  C_5
REMARK    3  A    between atoms: C_8  and  O_9
REMARK    4  A    between atoms: O_9  and  C_10
REMARK    5  A    between atoms: C_10  and  C_11
REMARK    6  A    between atoms: C_18  and  C_19
REMARK    7  A    between atoms: C_25  and  C_26
REMARK    8  A    between atoms: C_26  and  O_28
REMARK                            x       y       z     vdW  Elec       q    Type
REMARK                         _______ _______ _______ _____ _____    ______ ____
ROOT
ATOM      1  C   UNL     1       2.005   7.431  19.781  0.00  0.00    +0.000 A 
ATOM      2  C   UNL     1       1.955   8.217  18.629  0.00  0.00    +0.000 A 
ATOM      3  C   UNL     1       1.367   9.476  18.672  0.00  0.00    +0.000 A 
ATOM      4  C   UNL     1       0.872   9.997  19.876  0.00  0.00    +0.000 A 
ATOM      5  C   UNL     1       0.901   9.206  21.036  0.00  0.00    +0.000 A 
ATOM      6  C   UNL     1       1.475   7.924  20.983  0.00  0.00    +0.000 A 
ENDROOT
BRANCH   1  10
ATOM      7  C   UNL     1       5.796   4.654  18.745  0.00  0.00    +0.000 C 
ATOM      8  C   UNL     1       4.385   4.663  19.284  0.00  0.00    +0.000 A 
ATOM      9  N   UNL     1       3.837   5.933  19.296  0.00  0.00    +0.000 NA
ATOM     10  C   UNL     1       2.638   6.089  19.748  0.00  0.00    +0.000 A 
ATOM     11  N   UNL     1       1.899   5.040  20.221  0.00  0.00    +0.000 N 
ATOM     12  C   UNL     1       2.368   3.766  20.211  0.00  0.00    +0.000 A 
ATOM     13  O   UNL     1       1.675   2.831  20.609  0.00  0.00    +0.000 OA
ATOM     14  C   UNL     1       3.740   3.554  19.711  0.00  0.00    +0.000 A 
ATOM     15  H   UNL     1       0.980   5.156  20.618  0.00  0.00    +0.000 HD
BRANCH  14  16
ATOM     16  C   UNL     1       4.347   2.200  19.705  0.00  0.00    +0.000 C 
ATOM     17  O   UNL     1       5.149   1.799  20.537  0.00  0.00    +0.000 OA
BRANCH  16  18
ATOM     18  O   UNL     1       3.946   1.392  18.694  0.00  0.00    +0.000 OA
ATOM     19  H   UNL     1       3.953   1.807  17.797  0.00  0.00    +0.000 HD
ENDBRANCH  16  18
ENDBRANCH  14  16
ENDBRANCH   1  10
BRANCH   5  20
ATOM     20  C   UNL     1       0.372   9.683  22.285  0.00  0.00    +0.000 C 
ATOM     21  N   UNL     1      -0.079  10.080  23.279  0.00  0.00    +0.000 NA
ENDBRANCH   5  20
BRANCH   4  22
ATOM     22  O   UNL     1       0.367  11.272  19.975  0.00  0.00    +0.000 OA
BRANCH  22  23
ATOM     23  C   UNL     1      -0.184  11.788  18.759  0.00  0.00    +0.000 C 
BRANCH  23  24
ATOM     24  C   UNL     1      -1.684  11.666  18.681  0.00  0.00    +0.000 A 
ATOM     25  C   UNL     1      -2.546  12.316  19.570  0.00  0.00    +0.000 A 
ATOM     26  C   UNL     1      -3.928  12.191  19.425  0.00  0.00    +0.000 A 
ATOM     27  C   UNL     1      -4.453  11.412  18.393  0.00  0.00    +0.000 A 
ATOM     28 BR   UNL     1      -6.324  11.262  18.186  0.00  0.00    +0.000 Br
ATOM     29  C   UNL     1      -3.607  10.748  17.509  0.00  0.00    +0.000 A 
ATOM     30  C   UNL     1      -2.228  10.871  17.655  0.00  0.00    +0.000 A 
ENDBRANCH  23  24
ENDBRANCH  22  23
ENDBRANCH   4  22
TORSDOF 7
ENDMDL
MODEL 4
REMARK VINA RESULT:      -8.2      0.835      1.310
REMARK  Name = 
REMARK  8 active torsions:
REMARK  status: ('A' for Active; 'I' for Inactive)
REMARK    1  A    between atoms: C_1  and  C_2
REMARK    2  A    between atoms: C_4  and  C_5
REMARK    3  A    between atoms: C_8  and  O_9
REMARK    4  A    between atoms: O_9  and  C_10
REMARK    5  A    between atoms: C_10  and  C_11
REMARK    6  A    between atoms: C_18  and  C_19
REMARK    7  A    between atoms: C_25  and  C_26
REMARK    8  A    between atoms: C_26  and  O_28
REMARK                            x       y       z     vdW  Elec       q    Type
REMARK                         _______ _______ _______ _____ _____    ______ ____
ROOT
ATOM      1  C   UNL     1       1.987   7.468  19.706  0.00  0.00    +0.000 A 
ATOM      2  C   UNL     1       2.000   8.213  18.526  0.00  0.00    +0.000 A 
ATOM      3  C   UNL     1       1.454   9.491  18.505  0.00  0.00    +0.000 A 
ATOM      4  C   UNL     1       0.938  10.071  19.671  0.00  0.00    +0.000 A 
ATOM      5  C   UNL     1       0.903   9.322  20.859  0.00  0.00    +0.000 A 
ATOM      6  C   UNL     1       1.435   8.021  20.870  0.00  0.00    +0.000 A 
ENDROOT
BRANCH   1  10
ATOM      7  C   UNL     1       2.031   3.009  21.514  0.00  0.00    +0.000 C 
ATOM      8  C   UNL     1       2.698   3.950  20.539  0.00  0.00    +0.000 A 
ATOM      9  N   UNL     1       2.115   5.205  20.541  0.00  0.00    +0.000 NA
ATOM     10  C   UNL     1       2.576   6.106  19.741  0.00  0.00    +0.000 A 
ATOM     11  N   UNL     1       3.617   5.856  18.889  0.00  0.00    +0.000 N 
ATOM     12  C   UNL     1       4.250   4.656  18.858  0.00  0.00    +0.000 A 
ATOM     13  O   UNL     1       5.206   4.461  18.110  0.00  0.00    +0.000 OA
ATOM     14  C   UNL     1       3.740   3.598  19.753  0.00  0.00    +0.000 A 
ATOM     15  H   UNL     1       3.957   6.538  18.229  0.00  0.00    +0.000 HD
BRANCH  14  16
ATOM     16  C   UNL     1       4.345   2.243  19.751  0.00  0.00    +0.000 C 
ATOM     17  O   UNL     1       5.078   1.813  20.630  0.00  0.00    +0.000 OA
BRANCH  16  18
ATOM     18  O   UNL     1       4.024   1.470  18.686  0.00  0.00    +0.000 OA
ATOM     19  H   UNL     1       4.114   1.910  17.806  0.00  0.00    +0.000 HD
ENDBRANCH  16  18
ENDBRANCH  14  16
ENDBRANCH   1  10
BRANCH   5  20
ATOM     20  C   UNL     1       0.349   9.860  22.073  0.00  0.00    +0.000 C 
ATOM     21  N   UNL     1      -0.070  10.294  23.065  0.00  0.00    +0.000 NA
ENDBRANCH   5  20
BRANCH   4  22
ATOM     22  O   UNL     1       0.473  11.364  19.709  0.00  0.00    +0.000 OA
BRANCH  22  23
ATOM     23  C   UNL     1      -0.509  11.670  18.714  0.00  0.00    +0.000 C 
BRANCH  23  24
ATOM     24  C   UNL     1      -1.868  11.978  19.287  0.00  0.00    +0.000 A 
ATOM     25  C   UNL     1      -2.047  12.569  20.543  0.00  0.00    +0.000 A 
ATOM     26  C   UNL     1      -3.332  12.860  21.004  0.00  0.00    +0.000 A 
ATOM     27  C   UNL     1      -4.441  12.558  20.214  0.00  0.00    +0.000 A 
ATOM     28 BR   UNL     1      -6.177  12.974  20.833  0.00  0.00    +0.000 Br
ATOM     29  C   UNL     1      -4.280  11.956  18.969  0.00  0.00    +0.000 A 
ATOM     30  C   UNL     1      -2.998  11.664  18.510  0.00  0.00    +0.000 A 
ENDBRANCH  23  24
ENDBRANCH  22  23
ENDBRANCH   4  22
TORSDOF 7
ENDMDL
MODEL 5
REMARK VINA RESULT:      -8.2      1.245      1.369
REMARK  Name = 
REMARK  8 active torsions:
REMARK  status: ('A' for Active; 'I' for Inactive)
REMARK    1  A    between atoms: C_1  and  C_2
REMARK    2  A    between atoms: C_4  and  C_5
REMARK    3  A    between atoms: C_8  and  O_9
REMARK    4  A    between atoms: O_9  and  C_10
REMARK    5  A    between atoms: C_10  and  C_11
REMARK    6  A    between atoms: C_18  and  C_19
REMARK    7  A    between atoms: C_25  and  C_26
REMARK    8  A    between atoms: C_26  and  O_28
REMARK                            x       y       z     vdW  Elec       q    Type
REMARK                         _______ _______ _______ _____ _____    ______ ____
ROOT
ATOM      1  C   UNL     1       1.894   7.469  19.946  0.00  0.00    +0.000 A 
ATOM      2  C   UNL     1       1.869   8.276  18.808  0.00  0.00    +0.000 A 
ATOM      3  C   UNL     1       1.302   9.544  18.867  0.00  0.00    +0.000 A 
ATOM      4  C   UNL     1       0.803  10.052  20.074  0.00  0.00    +0.000 A 
ATOM      5  C   UNL     1       0.806   9.240  21.221  0.00  0.00    +0.000 A 
ATOM      6  C   UNL     1       1.359   7.950  21.151  0.00  0.00    +0.000 A 
ENDROOT
BRANCH   1  10
ATOM      7  C   UNL     1       2.057   2.924  21.518  0.00  0.00    +0.000 C 
ATOM      8  C   UNL     1       2.683   3.925  20.578  0.00  0.00    +0.000 A 
ATOM      9  N   UNL     1       2.080   5.168  20.659  0.00  0.00    +0.000 NA
ATOM     10  C   UNL     1       2.506   6.118  19.896  0.00  0.00    +0.000 A 
ATOM     11  N   UNL     1       3.529   5.930  19.007  0.00  0.00    +0.000 N 
ATOM     12  C   UNL     1       4.180   4.744  18.898  0.00  0.00    +0.000 A 
ATOM     13  O   UNL     1       5.119   4.605  18.116  0.00  0.00    +0.000 OA
ATOM     14  C   UNL     1       3.710   3.633  19.748  0.00  0.00    +0.000 A 
ATOM     15  H   UNL     1       3.840   6.651  18.375  0.00  0.00    +0.000 HD
BRANCH  14  16
ATOM     16  C   UNL     1       4.337   2.291  19.661  0.00  0.00    +0.000 C 
ATOM     17  O   UNL     1       5.068   1.813  20.516  0.00  0.00    +0.000 OA
BRANCH  16  18
ATOM     18  O   UNL     1       4.038   1.588  18.543  0.00  0.00    +0.000 OA
ATOM     19  H   UNL     1       3.857   2.133  17.739  0.00  0.00    +0.000 HD
ENDBRANCH  16  18
ENDBRANCH  14  16
ENDBRANCH   1  10
BRANCH   5  20
ATOM     20  C   UNL     1       0.271   9.703  22.472  0.00  0.00    +0.000 C 
ATOM     21  N   UNL     1      -0.185  10.058  23.480  0.00  0.00    +0.000 NA
ENDBRANCH   5  20
BRANCH   4  22
ATOM     22  O   UNL     1       0.318  11.332  20.191  0.00  0.00    +0.000 OA
BRANCH  22  23
ATOM     23  C   UNL     1      -1.109  11.433  20.141  0.00  0.00    +0.000 C 
BRANCH  23  24
ATOM     24  C   UNL     1      -1.691  11.061  18.801  0.00  0.00    +0.000 A 
ATOM     25  C   UNL     1      -2.367   9.857  18.575  0.00  0.00    +0.000 A 
ATOM     26  C   UNL     1      -2.913   9.586  17.319  0.00  0.00    +0.000 A 
ATOM     27  C   UNL     1      -2.781  10.514  16.286  0.00  0.00    +0.000 A 
ATOM     28 BR   UNL     1      -3.540  10.152  14.595  0.00  0.00    +0.000 Br
ATOM     29  C   UNL     1      -2.098  11.709  16.493  0.00  0.00    +0.000 A 
ATOM     30  C   UNL     1      -1.552  11.979  17.745  0.00  0.00    +0.000 A 
ENDBRANCH  23  24
ENDBRANCH  22  23
ENDBRANCH   4  22
TORSDOF 7
ENDMDL
MODEL 6
REMARK VINA RESULT:      -8.1      1.059      2.058
REMARK  Name = 
REMARK  8 active torsions:
REMARK  status: ('A' for Active; 'I' for Inactive)
REMARK    1  A    between atoms: C_1  and  C_2
REMARK    2  A    between atoms: C_4  and  C_5
REMARK    3  A    between atoms: C_8  and  O_9
REMARK    4  A    between atoms: O_9  and  C_10
REMARK    5  A    between atoms: C_10  and  C_11
REMARK    6  A    between atoms: C_18  and  C_19
REMARK    7  A    between atoms: C_25  and  C_26
REMARK    8  A    between atoms: C_26  and  O_28
REMARK                            x       y       z     vdW  Elec       q    Type
REMARK                         _______ _______ _______ _____ _____    ______ ____
ROOT
ATOM      1  C   UNL     1       1.955   7.703  19.450  0.00  0.00    +0.000 A 
ATOM      2  C   UNL     1       1.996   8.530  18.326  0.00  0.00    +0.000 A 
ATOM      3  C   UNL     1       1.489   9.822  18.396  0.00  0.00    +0.000 A 
ATOM      4  C   UNL     1       0.987  10.333  19.601  0.00  0.00    +0.000 A 
ATOM      5  C   UNL     1       0.924   9.502  20.732  0.00  0.00    +0.000 A 
ATOM      6  C   UNL     1       1.416   8.188  20.650  0.00  0.00    +0.000 A 
ENDROOT
BRANCH   1  10
ATOM      7  C   UNL     1       4.331   4.283  17.038  0.00  0.00    +0.000 C 
ATOM      8  C   UNL     1       3.616   4.611  18.327  0.00  0.00    +0.000 A 
ATOM      9  N   UNL     1       3.124   5.904  18.338  0.00  0.00    +0.000 NA
ATOM     10  C   UNL     1       2.503   6.325  19.388  0.00  0.00    +0.000 A 
ATOM     11  N   UNL     1       2.323   5.533  20.489  0.00  0.00    +0.000 N 
ATOM     12  C   UNL     1       2.756   4.248  20.532  0.00  0.00    +0.000 A 
ATOM     13  O   UNL     1       2.555   3.542  21.518  0.00  0.00    +0.000 OA
ATOM     14  C   UNL     1       3.481   3.739  19.351  0.00  0.00    +0.000 A 
ATOM     15  H   UNL     1       1.879   5.865  21.332  0.00  0.00    +0.000 HD
BRANCH  14  16
ATOM     16  C   UNL     1       4.027   2.360  19.330  0.00  0.00    +0.000 C 
ATOM     17  O   UNL     1       3.562   1.442  18.670  0.00  0.00    +0.000 OA
BRANCH  16  18
ATOM     18  O   UNL     1       5.120   2.161  20.106  0.00  0.00    +0.000 OA
ATOM     19  H   UNL     1       5.008   1.493  20.826  0.00  0.00    +0.000 HD
ENDBRANCH  16  18
ENDBRANCH  14  16
ENDBRANCH   1  10
BRANCH   5  20
ATOM     20  C   UNL     1       0.383   9.968  21.980  0.00  0.00    +0.000 C 
ATOM     21  N   UNL     1      -0.028  10.356  22.995  0.00  0.00    +0.000 NA
ENDBRANCH   5  20
BRANCH   4  22
ATOM     22  O   UNL     1       0.561  11.633  19.730  0.00  0.00    +0.000 OA
BRANCH  22  23
ATOM     23  C   UNL     1      -0.327  12.072  18.697  0.00  0.00    +0.000 C 
BRANCH  23  24
ATOM     24  C   UNL     1      -1.765  12.155  19.136  0.00  0.00    +0.000 A 
ATOM     25  C   UNL     1      -2.150  12.658  20.384  0.00  0.00    +0.000 A 
ATOM     26  C   UNL     1      -3.502  12.741  20.720  0.00  0.00    +0.000 A 
ATOM     27  C   UNL     1      -4.473  12.317  19.812  0.00  0.00    +0.000 A 
ATOM     28 BR   UNL     1      -6.303  12.451  20.261  0.00  0.00    +0.000 Br
ATOM     29  C   UNL     1      -4.105  11.802  18.572  0.00  0.00    +0.000 A 
ATOM     30  C   UNL     1      -2.755  11.718  18.238  0.00  0.00    +0.000 A 
ENDBRANCH  23  24
ENDBRANCH  22  23
ENDBRANCH   4  22
TORSDOF 7
ENDMDL
MODEL 7
REMARK VINA RESULT:      -8.1      3.892      9.078
REMARK  Name = 
REMARK  8 active torsions:
REMARK  status: ('A' for Active; 'I' for Inactive)
REMARK    1  A    between atoms: C_1  and  C_2
REMARK    2  A    between atoms: C_4  and  C_5
REMARK    3  A    between atoms: C_8  and  O_9
REMARK    4  A    between atoms: O_9  and  C_10
REMARK    5  A    between atoms: C_10  and  C_11
REMARK    6  A    between atoms: C_18  and  C_19
REMARK    7  A    between atoms: C_25  and  C_26
REMARK    8  A    between atoms: C_26  and  O_28
REMARK                            x       y       z     vdW  Elec       q    Type
REMARK                         _______ _______ _______ _____ _____    ______ ____
ROOT
ATOM      1  C   UNL     1       1.695   7.562  20.178  0.00  0.00    +0.000 A 
ATOM      2  C   UNL     1       2.374   7.591  18.959  0.00  0.00    +0.000 A 
ATOM      3  C   UNL     1       3.025   6.452  18.499  0.00  0.00    +0.000 A 
ATOM      4  C   UNL     1       2.961   5.249  19.216  0.00  0.00    +0.000 A 
ATOM      5  C   UNL     1       2.295   5.215  20.453  0.00  0.00    +0.000 A 
ATOM      6  C   UNL     1       1.659   6.376  20.925  0.00  0.00    +0.000 A 
ENDROOT
BRANCH   1  10
ATOM      7  C   UNL     1      -0.395  11.805  19.293  0.00  0.00    +0.000 C 
ATOM      8  C   UNL     1      -0.025  10.815  20.371  0.00  0.00    +0.000 A 
ATOM      9  N   UNL     1       0.629   9.707  19.862  0.00  0.00    +0.000 NA
ATOM     10  C   UNL     1       0.989   8.770  20.674  0.00  0.00    +0.000 A 
ATOM     11  N   UNL     1       0.737   8.837  22.017  0.00  0.00    +0.000 N 
ATOM     12  C   UNL     1       0.125   9.908  22.582  0.00  0.00    +0.000 A 
ATOM     13  O   UNL     1      -0.062   9.965  23.796  0.00  0.00    +0.000 OA
ATOM     14  C   UNL     1      -0.310  10.993  21.681  0.00  0.00    +0.000 A 
ATOM     15  H   UNL     1       0.974   8.092  22.653  0.00  0.00    +0.000 HD
BRANCH  14  16
ATOM     16  C   UNL     1      -1.027  12.180  22.209  0.00  0.00    +0.000 C 
ATOM     17  O   UNL     1      -2.179  12.474  21.927  0.00  0.00    +0.000 OA
BRANCH  16  18
ATOM     18  O   UNL     1      -0.312  12.951  23.063  0.00  0.00    +0.000 OA
ATOM     19  H   UNL     1       0.456  12.502  23.493  0.00  0.00    +0.000 HD
ENDBRANCH  16  18
ENDBRANCH  14  16
ENDBRANCH   1  10
BRANCH   5  20
ATOM     20  C   UNL     1       2.235   4.015  21.242  0.00  0.00    +0.000 C 
ATOM     21  N   UNL     1       2.212   3.052  21.891  0.00  0.00    +0.000 NA
ENDBRANCH   5  20
BRANCH   4  22
ATOM     22  O   UNL     1       3.515   4.082  18.748  0.00  0.00    +0.000 OA
BRANCH  22  23
ATOM     23  C   UNL     1       4.946   4.066  18.738  0.00  0.00    +0.000 C 
BRANCH  23  24
ATOM     24  C   UNL     1       5.539   4.249  17.365  0.00  0.00    +0.000 A 
ATOM     25  C   UNL     1       4.803   4.061  16.190  0.00  0.00    +0.000 A 
ATOM     26  C   UNL     1       5.400   4.279  14.947  0.00  0.00    +0.000 A 
ATOM     27  C   UNL     1       6.735   4.680  14.876  0.00  0.00    +0.000 A 
ATOM     28 BR   UNL     1       7.533   4.995  13.193  0.00  0.00    +0.000 Br
ATOM     29  C   UNL     1       7.483   4.857  16.036  0.00  0.00    +0.000 A 
ATOM     30  C   UNL     1       6.887   4.638  17.276  0.00  0.00    +0.000 A 
ENDBRANCH  23  24
ENDBRANCH  22  23
ENDBRANCH   4  22
TORSDOF 7
ENDMDL
MODEL 8
REMARK VINA RESULT:      -8.1      2.815      3.716
REMARK  Name = 
REMARK  8 active torsions:
REMARK  status: ('A' for Active; 'I' for Inactive)
REMARK    1  A    between atoms: C_1  and  C_2
REMARK    2  A    between atoms: C_4  and  C_5
REMARK    3  A    between atoms: C_8  and  O_9
REMARK    4  A    between atoms: O_9  and  C_10
REMARK    5  A    between atoms: C_10  and  C_11
REMARK    6  A    between atoms: C_18  and  C_19
REMARK    7  A    between atoms: C_25  and  C_26
REMARK    8  A    between atoms: C_26  and  O_28
REMARK                            x       y       z     vdW  Elec       q    Type
REMARK                         _______ _______ _______ _____ _____    ______ ____
ROOT
ATOM      1  C   UNL     1       1.924   7.353  19.905  0.00  0.00    +0.000 A 
ATOM      2  C   UNL     1       1.884   8.125  18.743  0.00  0.00    +0.000 A 
ATOM      3  C   UNL     1       1.315   9.393  18.770  0.00  0.00    +0.000 A 
ATOM      4  C   UNL     1       0.830   9.936  19.967  0.00  0.00    +0.000 A 
ATOM      5  C   UNL     1       0.848   9.160  21.137  0.00  0.00    +0.000 A 
ATOM      6  C   UNL     1       1.403   7.870  21.100  0.00  0.00    +0.000 A 
ENDROOT
BRANCH   1  10
ATOM      7  C   UNL     1       2.030   2.821  21.519  0.00  0.00    +0.000 C 
ATOM      8  C   UNL     1       2.690   3.815  20.594  0.00  0.00    +0.000 A 
ATOM      9  N   UNL     1       2.084   5.058  20.643  0.00  0.00    +0.000 NA
ATOM     10  C   UNL     1       2.538   6.002  19.889  0.00  0.00    +0.000 A 
ATOM     11  N   UNL     1       3.593   5.807  19.039  0.00  0.00    +0.000 N 
ATOM     12  C   UNL     1       4.248   4.621  18.964  0.00  0.00    +0.000 A 
ATOM     13  O   UNL     1       5.216   4.476  18.219  0.00  0.00    +0.000 OA
ATOM     14  C   UNL     1       3.748   3.517  19.806  0.00  0.00    +0.000 A 
ATOM     15  H   UNL     1       3.927   6.523  18.413  0.00  0.00    +0.000 HD
BRANCH  14  16
ATOM     16  C   UNL     1       4.377   2.174  19.754  0.00  0.00    +0.000 C 
ATOM     17  O   UNL     1       5.117   1.724  20.616  0.00  0.00    +0.000 OA
BRANCH  16  18
ATOM     18  O   UNL     1       4.071   1.437  18.659  0.00  0.00    +0.000 OA
ATOM     19  H   UNL     1       4.622   1.623  17.860  0.00  0.00    +0.000 HD
ENDBRANCH  16  18
ENDBRANCH  14  16
ENDBRANCH   1  10
BRANCH   5  20
ATOM     20  C   UNL     1       0.328   9.661  22.381  0.00  0.00    +0.000 C 
ATOM     21  N   UNL     1      -0.103  10.038  23.391  0.00  0.00    +0.000 NA
ENDBRANCH   5  20
BRANCH   4  22
ATOM     22  O   UNL     1       0.343  11.220  20.050  0.00  0.00    +0.000 OA
BRANCH  22  23
ATOM     23  C   UNL     1       0.333  11.931  18.808  0.00  0.00    +0.000 C 
BRANCH  23  24
ATOM     24  C   UNL     1       1.277  13.106  18.782  0.00  0.00    +0.000 A 
ATOM     25  C   UNL     1       0.935  14.366  19.283  0.00  0.00    +0.000 A 
ATOM     26  C   UNL     1       1.866  15.406  19.261  0.00  0.00    +0.000 A 
ATOM     27  C   UNL     1       3.139  15.190  18.734  0.00  0.00    +0.000 A 
ATOM     28 BR   UNL     1       4.404  16.593  18.726  0.00  0.00    +0.000 Br
ATOM     29  C   UNL     1       3.489  13.945  18.218  0.00  0.00    +0.000 A 
ATOM     30  C   UNL     1       2.559  12.908  18.239  0.00  0.00    +0.000 A 
ENDBRANCH  23  24
ENDBRANCH  22  23
ENDBRANCH   4  22
TORSDOF 7
ENDMDL
MODEL 9
REMARK VINA RESULT:      -8.1      1.467      2.307
REMARK  Name = 
REMARK  8 active torsions:
REMARK  status: ('A' for Active; 'I' for Inactive)
REMARK    1  A    between atoms: C_1  and  C_2
REMARK    2  A    between atoms: C_4  and  C_5
REMARK    3  A    between atoms: C_8  and  O_9
REMARK    4  A    between atoms: O_9  and  C_10
REMARK    5  A    between atoms: C_10  and  C_11
REMARK    6  A    between atoms: C_18  and  C_19
REMARK    7  A    between atoms: C_25  and  C_26
REMARK    8  A    between atoms: C_26  and  O_28
REMARK                            x       y       z     vdW  Elec       q    Type
REMARK                         _______ _______ _______ _____ _____    ______ ____
ROOT
ATOM      1  C   UNL     1       1.874   7.555  19.770  0.00  0.00    +0.000 A 
ATOM      2  C   UNL     1       1.878   8.450  18.699  0.00  0.00    +0.000 A 
ATOM      3  C   UNL     1       1.369   9.733  18.863  0.00  0.00    +0.000 A 
ATOM      4  C   UNL     1       0.902  10.166  20.111  0.00  0.00    +0.000 A 
ATOM      5  C   UNL     1       0.877   9.267  21.190  0.00  0.00    +0.000 A 
ATOM      6  C   UNL     1       1.371   7.963  21.014  0.00  0.00    +0.000 A 
ENDROOT
BRANCH   1  10
ATOM      7  C   UNL     1       4.221   4.314  17.098  0.00  0.00    +0.000 C 
ATOM      8  C   UNL     1       3.526   4.552  18.416  0.00  0.00    +0.000 A 
ATOM      9  N   UNL     1       3.030   5.840  18.522  0.00  0.00    +0.000 NA
ATOM     10  C   UNL     1       2.425   6.187  19.608  0.00  0.00    +0.000 A 
ATOM     11  N   UNL     1       2.265   5.323  20.656  0.00  0.00    +0.000 N 
ATOM     12  C   UNL     1       2.702   4.039  20.605  0.00  0.00    +0.000 A 
ATOM     13  O   UNL     1       2.518   3.268  21.546  0.00  0.00    +0.000 OA
ATOM     14  C   UNL     1       3.409   3.613  19.382  0.00  0.00    +0.000 A 
ATOM     15  H   UNL     1       1.833   5.595  21.526  0.00  0.00    +0.000 HD
BRANCH  14  16
ATOM     16  C   UNL     1       3.959   2.240  19.260  0.00  0.00    +0.000 C 
ATOM     17  O   UNL     1       3.481   1.365  18.554  0.00  0.00    +0.000 OA
BRANCH  16  18
ATOM     18  O   UNL     1       5.070   1.997  19.996  0.00  0.00    +0.000 OA
ATOM     19  H   UNL     1       5.243   1.045  20.195  0.00  0.00    +0.000 HD
ENDBRANCH  16  18
ENDBRANCH  14  16
ENDBRANCH   1  10
BRANCH   5  20
ATOM     20  C   UNL     1       0.372   9.654  22.480  0.00  0.00    +0.000 C 
ATOM     21  N   UNL     1      -0.044   9.937  23.527  0.00  0.00    +0.000 NA
ENDBRANCH   5  20
BRANCH   4  22
ATOM     22  O   UNL     1       0.476  11.454  20.333  0.00  0.00    +0.000 OA
BRANCH  22  23
ATOM     23  C   UNL     1      -0.552  11.900  19.442  0.00  0.00    +0.000 C 
BRANCH  23  24
ATOM     24  C   UNL     1      -1.849  12.224  20.137  0.00  0.00    +0.000 A 
ATOM     25  C   UNL     1      -3.076  12.280  19.467  0.00  0.00    +0.000 A 
ATOM     26  C   UNL     1      -4.249  12.552  20.174  0.00  0.00    +0.000 A 
ATOM     27  C   UNL     1      -4.198  12.773  21.550  0.00  0.00    +0.000 A 
ATOM     28 BR   UNL     1      -5.790  13.119  22.506  0.00  0.00    +0.000 Br
ATOM     29  C   UNL     1      -2.983  12.734  22.228  0.00  0.00    +0.000 A 
ATOM     30  C   UNL     1      -1.813  12.464  21.522  0.00  0.00    +0.000 A 
ENDBRANCH  23  24
ENDBRANCH  22  23
ENDBRANCH   4  22
TORSDOF 7
ENDMDL
