MODEL 1
REMARK VINA RESULT:      -7.2      0.000      0.000
REMARK  Name = 
REMARK  12 active torsions:
REMARK  status: ('A' for Active; 'I' for Inactive)
REMARK    1  A    between atoms: C_1  and  C_2
REMARK    2  A    between atoms: C_2  and  N_3
REMARK    3  A    between atoms: N_3  and  C_4
REMARK    4  A    between atoms: N_3  and  C_26
REMARK    5  A    between atoms: C_4  and  C_5
REMARK    6  A    between atoms: C_5  and  C_6
REMARK    7  A    between atoms: C_5  and  N_7
REMARK    8  A    between atoms: C_8  and  C_10
REMARK    9  A    between atoms: C_13  and  C_14
REMARK   10  A    between atoms: C_17  and  C_18
REMARK   11  A    between atoms: C_26  and  C_27
REMARK   12  A    between atoms: C_26  and  C_28
REMARK                            x       y       z     vdW  Elec       q    Type
REMARK                         _______ _______ _______ _____ _____    ______ ____
ROOT
ATOM      1  C   UNL     1       2.309   7.022  19.115  0.00  0.00    +0.000 A 
ATOM      2  C   UNL     1       1.863   6.961  20.441  0.00  0.00    +0.000 A 
ATOM      3  C   UNL     1       1.221   8.056  21.021  0.00  0.00    +0.000 A 
ATOM      4  C   UNL     1       1.008   9.228  20.281  0.00  0.00    +0.000 A 
ATOM      5  C   UNL     1       1.480   9.295  18.964  0.00  0.00    +0.000 A 
ATOM      6  C   UNL     1       2.128   8.202  18.394  0.00  0.00    +0.000 A 
ATOM      7  F   UNL     1       2.569   8.323  17.132  0.00  0.00    +0.000 F 
ENDROOT
BRANCH   4   8
ATOM      8  C   UNL     1       0.303  10.350  20.880  0.00  0.00    +0.000 A 
ATOM      9  N   UNL     1       0.700  10.973  21.999  0.00  0.00    +0.000 NA
ATOM     10  O   UNL     1      -0.268  11.952  22.199  0.00  0.00    +0.000 OA
ATOM     11  C   UNL     1      -1.165  11.831  21.178  0.00  0.00    +0.000 A 
ATOM     12  N   UNL     1      -0.848  10.868  20.331  0.00  0.00    +0.000 NA
BRANCH  11  13
ATOM     13  C   UNL     1      -2.325  12.754  21.212  0.00  0.00    +0.000 C 
ATOM     14  F   UNL     1      -2.017  14.003  20.772  0.00  0.00    +0.000 F 
ATOM     15  F   UNL     1      -3.356  12.317  20.441  0.00  0.00    +0.000 F 
ATOM     16  F   UNL     1      -2.817  12.903  22.472  0.00  0.00    +0.000 F 
ENDBRANCH  11  13
ENDBRANCH   4   8
BRANCH   1  18
ATOM     17  N   UNL     1       4.179   5.453  18.951  0.00  0.00    +0.000 N 
ATOM     18  C   UNL     1       2.918   5.802  18.536  0.00  0.00    +0.000 C 
ATOM     19  O   UNL     1       2.288   5.146  17.706  0.00  0.00    +0.000 OA
ATOM     20  H   UNL     1       4.592   5.937  19.741  0.00  0.00    +0.000 HD
BRANCH  17  21
ATOM     21  C   UNL     1       4.815   4.227  18.488  0.00  0.00    +0.000 C 
ATOM     22  C   UNL     1       4.565   3.152  19.549  0.00  0.00    +0.000 C 
BRANCH  21  23
ATOM     23  C   UNL     1       6.337   4.391  18.194  0.00  0.00    +0.000 C 
BRANCH  23  24
ATOM     24  N   UNL     1       6.770   5.046  16.925  0.00  0.00    +0.000 NA
BRANCH  24  25
ATOM     25  C   UNL     1       5.739   4.984  15.847  0.00  0.00    +0.000 C 
ATOM     26  C   UNL     1       5.147   6.368  15.497  0.00  0.00    +0.000 C 
ATOM     27  C   UNL     1       6.286   4.407  14.530  0.00  0.00    +0.000 C 
ENDBRANCH  24  25
BRANCH  24  29
ATOM     28  C   UNL     1       7.864   6.712  18.504  0.00  0.00    +0.000 C 
ATOM     29  C   UNL     1       7.272   6.421  17.124  0.00  0.00    +0.000 C 
ENDBRANCH  24  29
ENDBRANCH  23  24
ENDBRANCH  21  23
ENDBRANCH  17  21
ENDBRANCH   1  18
TORSDOF 8
ENDMDL
MODEL 2
REMARK VINA RESULT:      -7.2      1.242      1.636
REMARK  Name = 
REMARK  12 active torsions:
REMARK  status: ('A' for Active; 'I' for Inactive)
REMARK    1  A    between atoms: C_1  and  C_2
REMARK    2  A    between atoms: C_2  and  N_3
REMARK    3  A    between atoms: N_3  and  C_4
REMARK    4  A    between atoms: N_3  and  C_26
REMARK    5  A    between atoms: C_4  and  C_5
REMARK    6  A    between atoms: C_5  and  C_6
REMARK    7  A    between atoms: C_5  and  N_7
REMARK    8  A    between atoms: C_8  and  C_10
REMARK    9  A    between atoms: C_13  and  C_14
REMARK   10  A    between atoms: C_17  and  C_18
REMARK   11  A    between atoms: C_26  and  C_27
REMARK   12  A    between atoms: C_26  and  C_28
REMARK                            x       y       z     vdW  Elec       q    Type
REMARK                         _______ _______ _______ _____ _____    ______ ____
ROOT
ATOM      1  C   UNL     1       2.209   7.047  19.270  0.00  0.00    +0.000 A 
ATOM      2  C   UNL     1       2.109   8.259  18.577  0.00  0.00    +0.000 A 
ATOM      3  C   UNL     1       1.521   9.371  19.182  0.00  0.00    +0.000 A 
ATOM      4  C   UNL     1       1.030   9.289  20.493  0.00  0.00    +0.000 A 
ATOM      5  C   UNL     1       1.107   8.067  21.172  0.00  0.00    +0.000 A 
ATOM      6  C   UNL     1       1.687   6.959  20.560  0.00  0.00    +0.000 A 
ATOM      7  F   UNL     1       1.727   5.809  21.252  0.00  0.00    +0.000 F 
ENDROOT
BRANCH   4   8
ATOM      8  C   UNL     1       0.455  10.463  21.130  0.00  0.00    +0.000 A 
ATOM      9  N   UNL     1       1.094  11.636  21.256  0.00  0.00    +0.000 NA
ATOM     10  O   UNL     1       0.182  12.443  21.929  0.00  0.00    +0.000 OA
ATOM     11  C   UNL     1      -0.928  11.681  22.150  0.00  0.00    +0.000 A 
ATOM     12  N   UNL     1      -0.814  10.459  21.663  0.00  0.00    +0.000 NA
BRANCH  11  13
ATOM     13  C   UNL     1      -2.028  12.329  22.906  0.00  0.00    +0.000 C 
ATOM     14  F   UNL     1      -1.598  13.364  23.677  0.00  0.00    +0.000 F 
ATOM     15  F   UNL     1      -2.990  12.832  22.089  0.00  0.00    +0.000 F 
ATOM     16  F   UNL     1      -2.646  11.457  23.747  0.00  0.00    +0.000 F 
ENDBRANCH  11  13
ENDBRANCH   4   8
BRANCH   1  18
ATOM     17  N   UNL     1       4.099   5.497  19.132  0.00  0.00    +0.000 N 
ATOM     18  C   UNL     1       2.908   5.925  18.599  0.00  0.00    +0.000 C 
ATOM     19  O   UNL     1       2.411   5.418  17.593  0.00  0.00    +0.000 OA
ATOM     20  H   UNL     1       4.387   5.844  20.041  0.00  0.00    +0.000 HD
BRANCH  17  21
ATOM     21  C   UNL     1       4.806   4.351  18.579  0.00  0.00    +0.000 C 
ATOM     22  C   UNL     1       4.611   3.181  19.546  0.00  0.00    +0.000 C 
BRANCH  21  23
ATOM     23  C   UNL     1       6.319   4.625  18.316  0.00  0.00    +0.000 C 
BRANCH  23  24
ATOM     24  N   UNL     1       6.714   5.516  17.186  0.00  0.00    +0.000 NA
BRANCH  24  25
ATOM     25  C   UNL     1       6.017   5.192  15.906  0.00  0.00    +0.000 C 
ATOM     26  C   UNL     1       5.138   6.351  15.386  0.00  0.00    +0.000 C 
ATOM     27  C   UNL     1       6.993   4.850  14.766  0.00  0.00    +0.000 C 
ENDBRANCH  24  25
BRANCH  24  29
ATOM     28  C   UNL     1       7.938   7.663  17.784  0.00  0.00    +0.000 C 
ATOM     29  C   UNL     1       6.611   6.952  17.517  0.00  0.00    +0.000 C 
ENDBRANCH  24  29
ENDBRANCH  23  24
ENDBRANCH  21  23
ENDBRANCH  17  21
ENDBRANCH   1  18
TORSDOF 8
ENDMDL
MODEL 3
REMARK VINA RESULT:      -7.2      1.309      2.310
REMARK  Name = 
REMARK  12 active torsions:
REMARK  status: ('A' for Active; 'I' for Inactive)
REMARK    1  A    between atoms: C_1  and  C_2
REMARK    2  A    between atoms: C_2  and  N_3
REMARK    3  A    between atoms: N_3  and  C_4
REMARK    4  A    between atoms: N_3  and  C_26
REMARK    5  A    between atoms: C_4  and  C_5
REMARK    6  A    between atoms: C_5  and  C_6
REMARK    7  A    between atoms: C_5  and  N_7
REMARK    8  A    between atoms: C_8  and  C_10
REMARK    9  A    between atoms: C_13  and  C_14
REMARK   10  A    between atoms: C_17  and  C_18
REMARK   11  A    between atoms: C_26  and  C_27
REMARK   12  A    between atoms: C_26  and  C_28
REMARK                            x       y       z     vdW  Elec       q    Type
REMARK                         _______ _______ _______ _____ _____    ______ ____
ROOT
ATOM      1  C   UNL     1       2.148   6.901  19.259  0.00  0.00    +0.000 A 
ATOM      2  C   UNL     1       2.018   8.083  18.521  0.00  0.00    +0.000 A 
ATOM      3  C   UNL     1       1.486   9.229  19.114  0.00  0.00    +0.000 A 
ATOM      4  C   UNL     1       1.082   9.213  20.457  0.00  0.00    +0.000 A 
ATOM      5  C   UNL     1       1.188   8.020  21.183  0.00  0.00    +0.000 A 
ATOM      6  C   UNL     1       1.712   6.877  20.583  0.00  0.00    +0.000 A 
ATOM      7  F   UNL     1       1.783   5.758  21.322  0.00  0.00    +0.000 F 
ENDROOT
BRANCH   4   8
ATOM      8  C   UNL     1       0.566  10.422  21.078  0.00  0.00    +0.000 A 
ATOM      9  N   UNL     1       1.239  11.580  21.138  0.00  0.00    +0.000 NA
ATOM     10  O   UNL     1       0.379  12.433  21.821  0.00  0.00    +0.000 OA
ATOM     11  C   UNL     1      -0.740  11.710  22.113  0.00  0.00    +0.000 A 
ATOM     12  N   UNL     1      -0.679  10.470  21.663  0.00  0.00    +0.000 NA
BRANCH  11  13
ATOM     13  C   UNL     1      -1.789  12.412  22.893  0.00  0.00    +0.000 C 
ATOM     14  F   UNL     1      -2.681  13.067  22.103  0.00  0.00    +0.000 F 
ATOM     15  F   UNL     1      -2.512  11.561  23.668  0.00  0.00    +0.000 F 
ATOM     16  F   UNL     1      -1.259  13.346  23.728  0.00  0.00    +0.000 F 
ENDBRANCH  11  13
ENDBRANCH   4   8
BRANCH   1  18
ATOM     17  N   UNL     1       3.911   5.205  19.173  0.00  0.00    +0.000 N 
ATOM     18  C   UNL     1       2.786   5.740  18.594  0.00  0.00    +0.000 C 
ATOM     19  O   UNL     1       2.301   5.297  17.554  0.00  0.00    +0.000 OA
ATOM     20  H   UNL     1       4.181   5.508  20.103  0.00  0.00    +0.000 HD
BRANCH  17  21
ATOM     21  C   UNL     1       4.550   4.017  18.625  0.00  0.00    +0.000 C 
ATOM     22  C   UNL     1       4.522   2.939  19.711  0.00  0.00    +0.000 C 
BRANCH  21  23
ATOM     23  C   UNL     1       6.001   4.273  18.116  0.00  0.00    +0.000 C 
BRANCH  23  24
ATOM     24  N   UNL     1       6.340   5.593  17.507  0.00  0.00    +0.000 NA
BRANCH  24  25
ATOM     25  C   UNL     1       7.656   6.131  17.960  0.00  0.00    +0.000 C 
ATOM     26  C   UNL     1       7.747   7.670  17.857  0.00  0.00    +0.000 C 
ATOM     27  C   UNL     1       7.972   5.782  19.426  0.00  0.00    +0.000 C 
ENDBRANCH  24  25
BRANCH  24  29
ATOM     28  C   UNL     1       5.085   6.451  15.469  0.00  0.00    +0.000 C 
ATOM     29  C   UNL     1       6.222   5.599  16.035  0.00  0.00    +0.000 C 
ENDBRANCH  24  29
ENDBRANCH  23  24
ENDBRANCH  21  23
ENDBRANCH  17  21
ENDBRANCH   1  18
TORSDOF 8
ENDMDL
MODEL 4
REMARK VINA RESULT:      -7.1      1.036      1.517
REMARK  Name = 
REMARK  12 active torsions:
REMARK  status: ('A' for Active; 'I' for Inactive)
REMARK    1  A    between atoms: C_1  and  C_2
REMARK    2  A    between atoms: C_2  and  N_3
REMARK    3  A    between atoms: N_3  and  C_4
REMARK    4  A    between atoms: N_3  and  C_26
REMARK    5  A    between atoms: C_4  and  C_5
REMARK    6  A    between atoms: C_5  and  C_6
REMARK    7  A    between atoms: C_5  and  N_7
REMARK    8  A    between atoms: C_8  and  C_10
REMARK    9  A    between atoms: C_13  and  C_14
REMARK   10  A    between atoms: C_17  and  C_18
REMARK   11  A    between atoms: C_26  and  C_27
REMARK   12  A    between atoms: C_26  and  C_28
REMARK                            x       y       z     vdW  Elec       q    Type
REMARK                         _______ _______ _______ _____ _____    ______ ____
ROOT
ATOM      1  C   UNL     1       2.245   6.905  19.030  0.00  0.00    +0.000 A 
ATOM      2  C   UNL     1       2.108   8.019  18.193  0.00  0.00    +0.000 A 
ATOM      3  C   UNL     1       1.555   9.203  18.681  0.00  0.00    +0.000 A 
ATOM      4  C   UNL     1       1.134   9.294  20.016  0.00  0.00    +0.000 A 
ATOM      5  C   UNL     1       1.246   8.169  20.841  0.00  0.00    +0.000 A 
ATOM      6  C   UNL     1       1.792   6.987  20.346  0.00  0.00    +0.000 A 
ATOM      7  F   UNL     1       1.868   5.935  21.177  0.00  0.00    +0.000 F 
ENDROOT
BRANCH   4   8
ATOM      8  C   UNL     1       0.594  10.544  20.527  0.00  0.00    +0.000 A 
ATOM      9  N   UNL     1       1.094  11.200  21.585  0.00  0.00    +0.000 NA
ATOM     10  O   UNL     1       0.266  12.310  21.713  0.00  0.00    +0.000 OA
ATOM     11  C   UNL     1      -0.663  12.224  20.717  0.00  0.00    +0.000 A 
ATOM     12  N   UNL     1      -0.493  11.162  19.951  0.00  0.00    +0.000 NA
BRANCH  11  13
ATOM     13  C   UNL     1      -1.693  13.291  20.688  0.00  0.00    +0.000 C 
ATOM     14  F   UNL     1      -1.950  13.808  21.919  0.00  0.00    +0.000 F 
ATOM     15  F   UNL     1      -1.330  14.336  19.899  0.00  0.00    +0.000 F 
ATOM     16  F   UNL     1      -2.881  12.834  20.209  0.00  0.00    +0.000 F 
ENDBRANCH  11  13
ENDBRANCH   4   8
BRANCH   1  18
ATOM     17  N   UNL     1       4.159   5.383  18.936  0.00  0.00    +0.000 N 
ATOM     18  C   UNL     1       2.906   5.702  18.472  0.00  0.00    +0.000 C 
ATOM     19  O   UNL     1       2.325   5.033  17.618  0.00  0.00    +0.000 OA
ATOM     20  H   UNL     1       4.528   5.874  19.743  0.00  0.00    +0.000 HD
BRANCH  17  21
ATOM     21  C   UNL     1       4.842   4.174  18.496  0.00  0.00    +0.000 C 
ATOM     22  C   UNL     1       4.603   3.100  19.560  0.00  0.00    +0.000 C 
BRANCH  21  23
ATOM     23  C   UNL     1       6.364   4.383  18.234  0.00  0.00    +0.000 C 
BRANCH  23  24
ATOM     24  N   UNL     1       6.809   4.947  16.925  0.00  0.00    +0.000 NA
BRANCH  24  25
ATOM     25  C   UNL     1       5.774   4.842  15.855  0.00  0.00    +0.000 C 
ATOM     26  C   UNL     1       5.182   6.210  15.451  0.00  0.00    +0.000 C 
ATOM     27  C   UNL     1       6.316   4.211  14.560  0.00  0.00    +0.000 C 
ENDBRANCH  24  25
BRANCH  24  29
ATOM     28  C   UNL     1       7.797   6.737  18.436  0.00  0.00    +0.000 C 
ATOM     29  C   UNL     1       7.344   6.319  17.037  0.00  0.00    +0.000 C 
ENDBRANCH  24  29
ENDBRANCH  23  24
ENDBRANCH  21  23
ENDBRANCH  17  21
ENDBRANCH   1  18
TORSDOF 8
ENDMDL
MODEL 5
REMARK VINA RESULT:      -7.1      1.107      1.280
REMARK  Name = 
REMARK  12 active torsions:
REMARK  status: ('A' for Active; 'I' for Inactive)
REMARK    1  A    between atoms: C_1  and  C_2
REMARK    2  A    between atoms: C_2  and  N_3
REMARK    3  A    between atoms: N_3  and  C_4
REMARK    4  A    between atoms: N_3  and  C_26
REMARK    5  A    between atoms: C_4  and  C_5
REMARK    6  A    between atoms: C_5  and  C_6
REMARK    7  A    between atoms: C_5  and  N_7
REMARK    8  A    between atoms: C_8  and  C_10
REMARK    9  A    between atoms: C_13  and  C_14
REMARK   10  A    between atoms: C_17  and  C_18
REMARK   11  A    between atoms: C_26  and  C_27
REMARK   12  A    between atoms: C_26  and  C_28
REMARK                            x       y       z     vdW  Elec       q    Type
REMARK                         _______ _______ _______ _____ _____    ______ ____
ROOT
ATOM      1  C   UNL     1       2.027   7.299  19.467  0.00  0.00    +0.000 A 
ATOM      2  C   UNL     1       1.697   7.319  20.827  0.00  0.00    +0.000 A 
ATOM      3  C   UNL     1       1.196   8.481  21.414  0.00  0.00    +0.000 A 
ATOM      4  C   UNL     1       1.010   9.641  20.648  0.00  0.00    +0.000 A 
ATOM      5  C   UNL     1       1.368   9.625  19.294  0.00  0.00    +0.000 A 
ATOM      6  C   UNL     1       1.876   8.464  18.716  0.00  0.00    +0.000 A 
ATOM      7  F   UNL     1       2.212   8.506  17.417  0.00  0.00    +0.000 F 
ENDROOT
BRANCH   4   8
ATOM      8  C   UNL     1       0.450  10.837  21.258  0.00  0.00    +0.000 A 
ATOM      9  N   UNL     1       1.068  12.027  21.281  0.00  0.00    +0.000 NA
ATOM     10  O   UNL     1       0.184  12.851  21.968  0.00  0.00    +0.000 OA
ATOM     11  C   UNL     1      -0.893  12.081  22.299  0.00  0.00    +0.000 A 
ATOM     12  N   UNL     1      -0.783  10.837  21.871  0.00  0.00    +0.000 NA
BRANCH  11  13
ATOM     13  C   UNL     1      -1.957  12.747  23.090  0.00  0.00    +0.000 C 
ATOM     14  F   UNL     1      -1.461  13.604  24.023  0.00  0.00    +0.000 F 
ATOM     15  F   UNL     1      -2.800  13.474  22.310  0.00  0.00    +0.000 F 
ATOM     16  F   UNL     1      -2.724  11.850  23.764  0.00  0.00    +0.000 F 
ENDBRANCH  11  13
ENDBRANCH   4   8
BRANCH   1  18
ATOM     17  N   UNL     1       3.395   5.274  19.603  0.00  0.00    +0.000 N 
ATOM     18  C   UNL     1       2.486   6.014  18.888  0.00  0.00    +0.000 C 
ATOM     19  O   UNL     1       2.050   5.653  17.795  0.00  0.00    +0.000 OA
ATOM     20  H   UNL     1       3.606   5.539  20.559  0.00  0.00    +0.000 HD
BRANCH  17  21
ATOM     21  C   UNL     1       3.835   3.965  19.140  0.00  0.00    +0.000 C 
ATOM     22  C   UNL     1       3.290   2.924  20.122  0.00  0.00    +0.000 C 
BRANCH  21  23
ATOM     23  C   UNL     1       5.383   3.849  18.991  0.00  0.00    +0.000 C 
BRANCH  23  24
ATOM     24  N   UNL     1       6.071   4.612  17.909  0.00  0.00    +0.000 NA
BRANCH  24  25
ATOM     25  C   UNL     1       5.302   4.648  16.630  0.00  0.00    +0.000 C 
ATOM     26  C   UNL     1       5.107   6.079  16.082  0.00  0.00    +0.000 C 
ATOM     27  C   UNL     1       5.979   3.847  15.504  0.00  0.00    +0.000 C 
ENDBRANCH  24  25
BRANCH  24  29
ATOM     28  C   UNL     1       7.883   6.048  18.968  0.00  0.00    +0.000 C 
ATOM     29  C   UNL     1       6.495   5.963  18.331  0.00  0.00    +0.000 C 
ENDBRANCH  24  29
ENDBRANCH  23  24
ENDBRANCH  21  23
ENDBRANCH  17  21
ENDBRANCH   1  18
TORSDOF 8
ENDMDL
MODEL 6
REMARK VINA RESULT:      -7.1      0.789      1.883
REMARK  Name = 
REMARK  12 active torsions:
REMARK  status: ('A' for Active; 'I' for Inactive)
REMARK    1  A    between atoms: C_1  and  C_2
REMARK    2  A    between atoms: C_2  and  N_3
REMARK    3  A    between atoms: N_3  and  C_4
REMARK    4  A    between atoms: N_3  and  C_26
REMARK    5  A    between atoms: C_4  and  C_5
REMARK    6  A    between atoms: C_5  and  C_6
REMARK    7  A    between atoms: C_5  and  N_7
REMARK    8  A    between atoms: C_8  and  C_10
REMARK    9  A    between atoms: C_13  and  C_14
REMARK   10  A    between atoms: C_17  and  C_18
REMARK   11  A    between atoms: C_26  and  C_27
REMARK   12  A    between atoms: C_26  and  C_28
REMARK                            x       y       z     vdW  Elec       q    Type
REMARK                         _______ _______ _______ _____ _____    ______ ____
ROOT
ATOM      1  C   UNL     1       2.141   7.000  19.367  0.00  0.00    +0.000 A 
ATOM      2  C   UNL     1       1.701   6.811  20.682  0.00  0.00    +0.000 A 
ATOM      3  C   UNL     1       1.070   7.848  21.371  0.00  0.00    +0.000 A 
ATOM      4  C   UNL     1       0.863   9.089  20.752  0.00  0.00    +0.000 A 
ATOM      5  C   UNL     1       1.329   9.283  19.445  0.00  0.00    +0.000 A 
ATOM      6  C   UNL     1       1.966   8.247  18.767  0.00  0.00    +0.000 A 
ATOM      7  F   UNL     1       2.402   8.488  17.520  0.00  0.00    +0.000 F 
ENDROOT
BRANCH   4   8
ATOM      8  C   UNL     1       0.169  10.152  21.462  0.00  0.00    +0.000 A 
ATOM      9  N   UNL     1       0.272  10.362  22.783  0.00  0.00    +0.000 NA
ATOM     10  O   UNL     1      -0.561  11.451  23.015  0.00  0.00    +0.000 OA
ATOM     11  C   UNL     1      -1.094  11.802  21.809  0.00  0.00    +0.000 A 
ATOM     12  N   UNL     1      -0.663  11.041  20.819  0.00  0.00    +0.000 NA
BRANCH  11  13
ATOM     13  C   UNL     1      -2.063  12.925  21.822  0.00  0.00    +0.000 C 
ATOM     14  F   UNL     1      -3.313  12.537  22.193  0.00  0.00    +0.000 F 
ATOM     15  F   UNL     1      -1.695  13.913  22.680  0.00  0.00    +0.000 F 
ATOM     16  F   UNL     1      -2.189  13.499  20.595  0.00  0.00    +0.000 F 
ENDBRANCH  11  13
ENDBRANCH   4   8
BRANCH   1  18
ATOM     17  N   UNL     1       3.848   5.253  19.223  0.00  0.00    +0.000 N 
ATOM     18  C   UNL     1       2.738   5.839  18.666  0.00  0.00    +0.000 C 
ATOM     19  O   UNL     1       2.233   5.440  17.617  0.00  0.00    +0.000 OA
ATOM     20  H   UNL     1       4.132   5.521  20.159  0.00  0.00    +0.000 HD
BRANCH  17  21
ATOM     21  C   UNL     1       4.446   4.061  18.638  0.00  0.00    +0.000 C 
ATOM     22  C   UNL     1       4.445   2.972  19.715  0.00  0.00    +0.000 C 
BRANCH  21  23
ATOM     23  C   UNL     1       5.880   4.300  18.074  0.00  0.00    +0.000 C 
BRANCH  23  24
ATOM     24  N   UNL     1       6.243   5.650  17.551  0.00  0.00    +0.000 NA
BRANCH  24  25
ATOM     25  C   UNL     1       7.597   6.106  17.983  0.00  0.00    +0.000 C 
ATOM     26  C   UNL     1       7.806   7.626  17.807  0.00  0.00    +0.000 C 
ATOM     27  C   UNL     1       7.883   5.803  19.465  0.00  0.00    +0.000 C 
ENDBRANCH  24  25
BRANCH  24  29
ATOM     28  C   UNL     1       4.920   6.679  15.638  0.00  0.00    +0.000 C 
ATOM     29  C   UNL     1       6.065   5.771  16.089  0.00  0.00    +0.000 C 
ENDBRANCH  24  29
ENDBRANCH  23  24
ENDBRANCH  21  23
ENDBRANCH  17  21
ENDBRANCH   1  18
TORSDOF 8
ENDMDL
MODEL 7
REMARK VINA RESULT:      -7.0      1.404      2.386
REMARK  Name = 
REMARK  12 active torsions:
REMARK  status: ('A' for Active; 'I' for Inactive)
REMARK    1  A    between atoms: C_1  and  C_2
REMARK    2  A    between atoms: C_2  and  N_3
REMARK    3  A    between atoms: N_3  and  C_4
REMARK    4  A    between atoms: N_3  and  C_26
REMARK    5  A    between atoms: C_4  and  C_5
REMARK    6  A    between atoms: C_5  and  C_6
REMARK    7  A    between atoms: C_5  and  N_7
REMARK    8  A    between atoms: C_8  and  C_10
REMARK    9  A    between atoms: C_13  and  C_14
REMARK   10  A    between atoms: C_17  and  C_18
REMARK   11  A    between atoms: C_26  and  C_27
REMARK   12  A    between atoms: C_26  and  C_28
REMARK                            x       y       z     vdW  Elec       q    Type
REMARK                         _______ _______ _______ _____ _____    ______ ____
ROOT
ATOM      1  C   UNL     1       2.099   7.053  18.924  0.00  0.00    +0.000 A 
ATOM      2  C   UNL     1       2.026   8.133  18.036  0.00  0.00    +0.000 A 
ATOM      3  C   UNL     1       1.593   9.383  18.481  0.00  0.00    +0.000 A 
ATOM      4  C   UNL     1       1.232   9.574  19.823  0.00  0.00    +0.000 A 
ATOM      5  C   UNL     1       1.280   8.484  20.700  0.00  0.00    +0.000 A 
ATOM      6  C   UNL     1       1.704   7.237  20.248  0.00  0.00    +0.000 A 
ATOM      7  F   UNL     1       1.722   6.224  21.129  0.00  0.00    +0.000 F 
ENDROOT
BRANCH   4   8
ATOM      8  C   UNL     1       0.820  10.890  20.287  0.00  0.00    +0.000 A 
ATOM      9  N   UNL     1       1.003  11.334  21.539  0.00  0.00    +0.000 NA
ATOM     10  O   UNL     1       0.450  12.610  21.525  0.00  0.00    +0.000 OA
ATOM     11  C   UNL     1      -0.020  12.821  20.262  0.00  0.00    +0.000 A 
ATOM     12  N   UNL     1       0.199  11.796  19.458  0.00  0.00    +0.000 NA
BRANCH  11  13
ATOM     13  C   UNL     1      -0.703  14.116  20.024  0.00  0.00    +0.000 C 
ATOM     14  F   UNL     1      -0.268  15.101  20.855  0.00  0.00    +0.000 F 
ATOM     15  F   UNL     1      -0.520  14.572  18.757  0.00  0.00    +0.000 F 
ATOM     16  F   UNL     1      -2.047  14.021  20.215  0.00  0.00    +0.000 F 
ENDBRANCH  11  13
ENDBRANCH   4   8
BRANCH   1  18
ATOM     17  N   UNL     1       3.912   5.418  18.762  0.00  0.00    +0.000 N 
ATOM     18  C   UNL     1       2.634   5.771  18.407  0.00  0.00    +0.000 C 
ATOM     19  O   UNL     1       1.930   5.070  17.680  0.00  0.00    +0.000 OA
ATOM     20  H   UNL     1       4.392   5.951  19.480  0.00  0.00    +0.000 HD
BRANCH  17  21
ATOM     21  C   UNL     1       4.482   4.139  18.361  0.00  0.00    +0.000 C 
ATOM     22  C   UNL     1       4.495   3.234  19.595  0.00  0.00    +0.000 C 
BRANCH  21  23
ATOM     23  C   UNL     1       5.904   4.264  17.734  0.00  0.00    +0.000 C 
BRANCH  23  24
ATOM     24  N   UNL     1       6.303   5.543  17.076  0.00  0.00    +0.000 NA
BRANCH  24  25
ATOM     25  C   UNL     1       7.551   6.134  17.642  0.00  0.00    +0.000 C 
ATOM     26  C   UNL     1       7.594   7.674  17.530  0.00  0.00    +0.000 C 
ATOM     27  C   UNL     1       7.742   5.808  19.134  0.00  0.00    +0.000 C 
ENDBRANCH  24  25
BRANCH  24  29
ATOM     28  C   UNL     1       6.231   4.028  15.034  0.00  0.00    +0.000 C 
ATOM     29  C   UNL     1       6.364   5.442  15.603  0.00  0.00    +0.000 C 
ENDBRANCH  24  29
ENDBRANCH  23  24
ENDBRANCH  21  23
ENDBRANCH  17  21
ENDBRANCH   1  18
TORSDOF 8
ENDMDL
MODEL 8
REMARK VINA RESULT:      -7.0      2.870      9.788
REMARK  Name = 
REMARK  12 active torsions:
REMARK  status: ('A' for Active; 'I' for Inactive)
REMARK    1  A    between atoms: C_1  and  C_2
REMARK    2  A    between atoms: C_2  and  N_3
REMARK    3  A    between atoms: N_3  and  C_4
REMARK    4  A    between atoms: N_3  and  C_26
REMARK    5  A    between atoms: C_4  and  C_5
REMARK    6  A    between atoms: C_5  and  C_6
REMARK    7  A    between atoms: C_5  and  N_7
REMARK    8  A    between atoms: C_8  and  C_10
REMARK    9  A    between atoms: C_13  and  C_14
REMARK   10  A    between atoms: C_17  and  C_18
REMARK   11  A    between atoms: C_26  and  C_27
REMARK   12  A    between atoms: C_26  and  C_28
REMARK                            x       y       z     vdW  Elec       q    Type
REMARK                         _______ _______ _______ _____ _____    ______ ____
ROOT
ATOM      1  C   UNL     1       1.291   9.192  19.241  0.00  0.00    +0.000 A 
ATOM      2  C   UNL     1       1.820   9.204  17.945  0.00  0.00    +0.000 A 
ATOM      3  C   UNL     1       2.619   8.150  17.500  0.00  0.00    +0.000 A 
ATOM      4  C   UNL     1       2.896   7.063  18.342  0.00  0.00    +0.000 A 
ATOM      5  C   UNL     1       2.389   7.069  19.647  0.00  0.00    +0.000 A 
ATOM      6  C   UNL     1       1.599   8.128  20.088  0.00  0.00    +0.000 A 
ATOM      7  F   UNL     1       1.146   8.088  21.351  0.00  0.00    +0.000 F 
ENDROOT
BRANCH   4   8
ATOM      8  C   UNL     1       3.697   5.950  17.857  0.00  0.00    +0.000 A 
ATOM      9  N   UNL     1       3.518   4.677  18.236  0.00  0.00    +0.000 NA
ATOM     10  O   UNL     1       4.501   3.979  17.542  0.00  0.00    +0.000 OA
ATOM     11  C   UNL     1       5.188   4.899  16.804  0.00  0.00    +0.000 A 
ATOM     12  N   UNL     1       4.720   6.125  16.952  0.00  0.00    +0.000 NA
BRANCH  11  13
ATOM     13  C   UNL     1       6.329   4.381  16.010  0.00  0.00    +0.000 C 
ATOM     14  F   UNL     1       7.463   4.241  16.748  0.00  0.00    +0.000 F 
ATOM     15  F   UNL     1       6.070   3.162  15.468  0.00  0.00    +0.000 F 
ATOM     16  F   UNL     1       6.644   5.209  14.978  0.00  0.00    +0.000 F 
ENDBRANCH  11  13
ENDBRANCH   4   8
BRANCH   1  18
ATOM     17  N   UNL     1       0.964  11.505  19.971  0.00  0.00    +0.000 N 
ATOM     18  C   UNL     1       0.392  10.304  19.629  0.00  0.00    +0.000 C 
ATOM     19  O   UNL     1      -0.825  10.123  19.638  0.00  0.00    +0.000 OA
ATOM     20  H   UNL     1       1.954  11.647  19.802  0.00  0.00    +0.000 HD
BRANCH  17  21
ATOM     21  C   UNL     1       0.148  12.668  20.287  0.00  0.00    +0.000 C 
ATOM     22  C   UNL     1       0.845  13.894  19.691  0.00  0.00    +0.000 C 
BRANCH  21  23
ATOM     23  C   UNL     1      -0.109  12.848  21.815  0.00  0.00    +0.000 C 
BRANCH  23  24
ATOM     24  N   UNL     1      -1.511  12.971  22.310  0.00  0.00    +0.000 NA
BRANCH  24  25
ATOM     25  C   UNL     1      -2.470  13.430  21.262  0.00  0.00    +0.000 C 
ATOM     26  C   UNL     1      -3.858  12.763  21.380  0.00  0.00    +0.000 C 
ATOM     27  C   UNL     1      -2.719  14.948  21.304  0.00  0.00    +0.000 C 
ENDBRANCH  24  25
BRANCH  24  29
ATOM     28  C   UNL     1      -0.975  10.618  23.110  0.00  0.00    +0.000 C 
ATOM     29  C   UNL     1      -1.992  11.755  22.997  0.00  0.00    +0.000 C 
ENDBRANCH  24  29
ENDBRANCH  23  24
ENDBRANCH  21  23
ENDBRANCH  17  21
ENDBRANCH   1  18
TORSDOF 8
ENDMDL
MODEL 9
REMARK VINA RESULT:      -6.9      2.875      9.816
REMARK  Name = 
REMARK  12 active torsions:
REMARK  status: ('A' for Active; 'I' for Inactive)
REMARK    1  A    between atoms: C_1  and  C_2
REMARK    2  A    between atoms: C_2  and  N_3
REMARK    3  A    between atoms: N_3  and  C_4
REMARK    4  A    between atoms: N_3  and  C_26
REMARK    5  A    between atoms: C_4  and  C_5
REMARK    6  A    between atoms: C_5  and  C_6
REMARK    7  A    between atoms: C_5  and  N_7
REMARK    8  A    between atoms: C_8  and  C_10
REMARK    9  A    between atoms: C_13  and  C_14
REMARK   10  A    between atoms: C_17  and  C_18
REMARK   11  A    between atoms: C_26  and  C_27
REMARK   12  A    between atoms: C_26  and  C_28
REMARK                            x       y       z     vdW  Elec       q    Type
REMARK                         _______ _______ _______ _____ _____    ______ ____
ROOT
ATOM      1  C   UNL     1       1.228   9.181  19.244  0.00  0.00    +0.000 A 
ATOM      2  C   UNL     1       1.762   9.191  17.950  0.00  0.00    +0.000 A 
ATOM      3  C   UNL     1       2.602   8.161  17.526  0.00  0.00    +0.000 A 
ATOM      4  C   UNL     1       2.917   7.100  18.387  0.00  0.00    +0.000 A 
ATOM      5  C   UNL     1       2.403   7.108  19.690  0.00  0.00    +0.000 A 
ATOM      6  C   UNL     1       1.571   8.143  20.110  0.00  0.00    +0.000 A 
ATOM      7  F   UNL     1       1.113   8.107  21.372  0.00  0.00    +0.000 F 
ENDROOT
BRANCH   4   8
ATOM      8  C   UNL     1       3.761   6.010  17.924  0.00  0.00    +0.000 A 
ATOM      9  N   UNL     1       3.748   4.776  18.450  0.00  0.00    +0.000 NA
ATOM     10  O   UNL     1       4.710   4.090  17.717  0.00  0.00    +0.000 OA
ATOM     11  C   UNL     1       5.219   4.975  16.812  0.00  0.00    +0.000 A 
ATOM     12  N   UNL     1       4.656   6.167  16.890  0.00  0.00    +0.000 NA
BRANCH  11  13
ATOM     13  C   UNL     1       6.309   4.469  15.942  0.00  0.00    +0.000 C 
ATOM     14  F   UNL     1       6.058   3.224  15.454  0.00  0.00    +0.000 F 
ATOM     15  F   UNL     1       6.523   5.269  14.864  0.00  0.00    +0.000 F 
ATOM     16  F   UNL     1       7.492   4.387  16.609  0.00  0.00    +0.000 F 
ENDBRANCH  11  13
ENDBRANCH   4   8
BRANCH   1  18
ATOM     17  N   UNL     1       0.812  11.475  19.988  0.00  0.00    +0.000 N 
ATOM     18  C   UNL     1       0.285  10.264  19.609  0.00  0.00    +0.000 C 
ATOM     19  O   UNL     1      -0.927  10.052  19.568  0.00  0.00    +0.000 OA
ATOM     20  H   UNL     1       1.804  11.645  19.860  0.00  0.00    +0.000 HD
BRANCH  17  21
ATOM     21  C   UNL     1      -0.047  12.613  20.286  0.00  0.00    +0.000 C 
ATOM     22  C   UNL     1       0.188  13.662  19.197  0.00  0.00    +0.000 C 
BRANCH  21  23
ATOM     23  C   UNL     1       0.185  13.208  21.708  0.00  0.00    +0.000 C 
BRANCH  23  24
ATOM     24  N   UNL     1      -0.870  13.041  22.750  0.00  0.00    +0.000 NA
BRANCH  24  25
ATOM     25  C   UNL     1      -1.777  14.221  22.868  0.00  0.00    +0.000 C 
ATOM     26  C   UNL     1      -1.108  15.542  22.430  0.00  0.00    +0.000 C 
ATOM     27  C   UNL     1      -3.050  14.082  22.014  0.00  0.00    +0.000 C 
ENDBRANCH  24  25
BRANCH  24  29
ATOM     28  C   UNL     1      -0.916  10.525  23.121  0.00  0.00    +0.000 C 
ATOM     29  C   UNL     1      -1.628  11.780  22.611  0.00  0.00    +0.000 C 
ENDBRANCH  24  29
ENDBRANCH  23  24
ENDBRANCH  21  23
ENDBRANCH  17  21
ENDBRANCH   1  18
TORSDOF 8
ENDMDL
