MODEL 1
REMARK VINA RESULT:      -5.6      0.000      0.000
REMARK  Name = 
REMARK  11 active torsions:
REMARK  status: ('A' for Active; 'I' for Inactive)
REMARK    1  A    between atoms: C_1  and  N_2
REMARK    2  A    between atoms: N_2  and  C_3
REMARK    3  A    between atoms: N_2  and  S_4
REMARK    4  A    between atoms: S_4  and  O_7
REMARK    5  A    between atoms: O_7  and  C_8
REMARK    6  A    between atoms: C_12  and  C_13
REMARK    7  A    between atoms: C_13  and  C_14
REMARK    8  A    between atoms: C_13  and  C_15
REMARK    9  A    between atoms: C_13  and  C_16
REMARK   10  A    between atoms: C_18  and  C_19
REMARK   11  A    between atoms: C_19  and  N_20
REMARK                            x       y       z     vdW  Elec       q    Type
REMARK                         _______ _______ _______ _____ _____    ______ ____
ROOT
ATOM      1  C   UNL     1       2.925   5.688  18.962  0.00  0.00    +0.000 A 
ATOM      2  C   UNL     1       2.195   5.405  20.165  0.00  0.00    +0.000 A 
ATOM      3  I   UNL     1       1.931   3.581  21.245  0.00  0.00    +0.000 I 
ATOM      4  C   UNL     1       1.517   6.430  20.822  0.00  0.00    +0.000 A 
ATOM      5  C   UNL     1       1.511   7.753  20.363  0.00  0.00    +0.000 A 
ATOM      6  C   UNL     1       2.217   8.031  19.180  0.00  0.00    +0.000 A 
ATOM      7  C   UNL     1       2.914   7.029  18.482  0.00  0.00    +0.000 A 
ENDROOT
BRANCH   5   8
ATOM      8  C   UNL     1       0.753   8.815  21.183  0.00  0.00    +0.000 C 
ATOM      9  C   UNL     1      -0.616   8.237  21.609  0.00  0.00    +0.000 C 
ATOM     10  C   UNL     1       1.508   9.237  22.462  0.00  0.00    +0.000 C 
ATOM     11  C   UNL     1       0.532  10.082  20.324  0.00  0.00    +0.000 C 
ENDBRANCH   5   8
BRANCH   1  12
ATOM     12  O   UNL     1       3.644   4.771  18.242  0.00  0.00    +0.000 OA
BRANCH  12  13
ATOM     13  S   UNL     1       5.200   4.116  18.515  0.00  0.00    +0.000 S 
ATOM     14  O   UNL     1       5.096   2.785  19.273  0.00  0.00    +0.000 OA
ATOM     15  O   UNL     1       6.027   5.048  19.413  0.00  0.00    +0.000 OA
BRANCH  13  17
ATOM     16  C   UNL     1       5.372   4.133  15.864  0.00  0.00    +0.000 C 
ATOM     17  N   UNL     1       6.159   3.805  17.055  0.00  0.00    +0.000 NA
ATOM     18  C   UNL     1       7.404   4.574  17.107  0.00  0.00    +0.000 C 
ENDBRANCH  13  17
ENDBRANCH  12  13
ENDBRANCH   1  12
BRANCH   7  19
ATOM     19  C   UNL     1       3.665   7.460  17.234  0.00  0.00    +0.000 C 
BRANCH  19  20
ATOM     20  N   UNL     1       5.107   7.313  17.424  0.00  0.00    +0.000 NA
ATOM     21  H   UNL     1       5.577   7.271  16.492  0.00  0.00    +0.000 HD
ATOM     22  H   UNL     1       5.295   6.415  17.928  0.00  0.00    +0.000 HD
ENDBRANCH  19  20
ENDBRANCH   7  19
TORSDOF 6
ENDMDL
MODEL 2
REMARK VINA RESULT:      -5.3      0.270      1.002
REMARK  Name = 
REMARK  11 active torsions:
REMARK  status: ('A' for Active; 'I' for Inactive)
REMARK    1  A    between atoms: C_1  and  N_2
REMARK    2  A    between atoms: N_2  and  C_3
REMARK    3  A    between atoms: N_2  and  S_4
REMARK    4  A    between atoms: S_4  and  O_7
REMARK    5  A    between atoms: O_7  and  C_8
REMARK    6  A    between atoms: C_12  and  C_13
REMARK    7  A    between atoms: C_13  and  C_14
REMARK    8  A    between atoms: C_13  and  C_15
REMARK    9  A    between atoms: C_13  and  C_16
REMARK   10  A    between atoms: C_18  and  C_19
REMARK   11  A    between atoms: C_19  and  N_20
REMARK                            x       y       z     vdW  Elec       q    Type
REMARK                         _______ _______ _______ _____ _____    ______ ____
ROOT
ATOM      1  C   UNL     1       2.785   5.739  18.833  0.00  0.00    +0.000 A 
ATOM      2  C   UNL     1       2.102   5.440  20.059  0.00  0.00    +0.000 A 
ATOM      3  I   UNL     1       1.840   3.593  21.100  0.00  0.00    +0.000 I 
ATOM      4  C   UNL     1       1.481   6.462  20.774  0.00  0.00    +0.000 A 
ATOM      5  C   UNL     1       1.487   7.798  20.352  0.00  0.00    +0.000 A 
ATOM      6  C   UNL     1       2.147   8.092  19.146  0.00  0.00    +0.000 A 
ATOM      7  C   UNL     1       2.787   7.093  18.390  0.00  0.00    +0.000 A 
ENDROOT
BRANCH   5   8
ATOM      8  C   UNL     1       0.794   8.854  21.234  0.00  0.00    +0.000 C 
ATOM      9  C   UNL     1       1.682   9.140  22.466  0.00  0.00    +0.000 C 
ATOM     10  C   UNL     1       0.559  10.191  20.497  0.00  0.00    +0.000 C 
ATOM     11  C   UNL     1      -0.582   8.324  21.703  0.00  0.00    +0.000 C 
ENDBRANCH   5   8
BRANCH   1  12
ATOM     12  O   UNL     1       3.447   4.826  18.056  0.00  0.00    +0.000 OA
BRANCH  12  13
ATOM     13  S   UNL     1       4.899   3.969  18.342  0.00  0.00    +0.000 S 
ATOM     14  O   UNL     1       4.595   2.550  18.845  0.00  0.00    +0.000 OA
ATOM     15  O   UNL     1       5.713   4.644  19.456  0.00  0.00    +0.000 OA
BRANCH  13  17
ATOM     16  C   UNL     1       5.261   4.202  15.720  0.00  0.00    +0.000 C 
ATOM     17  N   UNL     1       5.970   3.800  16.937  0.00  0.00    +0.000 NA
ATOM     18  C   UNL     1       7.183   4.594  17.141  0.00  0.00    +0.000 C 
ENDBRANCH  13  17
ENDBRANCH  12  13
ENDBRANCH   1  12
BRANCH   7  19
ATOM     19  C   UNL     1       3.492   7.541  17.122  0.00  0.00    +0.000 C 
BRANCH  19  20
ATOM     20  N   UNL     1       4.939   7.385  17.255  0.00  0.00    +0.000 NA
ATOM     21  H   UNL     1       5.173   6.369  17.329  0.00  0.00    +0.000 HD
ATOM     22  H   UNL     1       5.255   7.860  18.132  0.00  0.00    +0.000 HD
ENDBRANCH  19  20
ENDBRANCH   7  19
TORSDOF 6
ENDMDL
MODEL 3
REMARK VINA RESULT:      -5.3      4.003      6.316
REMARK  Name = 
REMARK  11 active torsions:
REMARK  status: ('A' for Active; 'I' for Inactive)
REMARK    1  A    between atoms: C_1  and  N_2
REMARK    2  A    between atoms: N_2  and  C_3
REMARK    3  A    between atoms: N_2  and  S_4
REMARK    4  A    between atoms: S_4  and  O_7
REMARK    5  A    between atoms: O_7  and  C_8
REMARK    6  A    between atoms: C_12  and  C_13
REMARK    7  A    between atoms: C_13  and  C_14
REMARK    8  A    between atoms: C_13  and  C_15
REMARK    9  A    between atoms: C_13  and  C_16
REMARK   10  A    between atoms: C_18  and  C_19
REMARK   11  A    between atoms: C_19  and  N_20
REMARK                            x       y       z     vdW  Elec       q    Type
REMARK                         _______ _______ _______ _____ _____    ______ ____
ROOT
ATOM      1  C   UNL     1       2.490   7.277  19.380  0.00  0.00    +0.000 A 
ATOM      2  C   UNL     1       3.235   6.302  18.636  0.00  0.00    +0.000 A 
ATOM      3  I   UNL     1       4.633   6.531  17.037  0.00  0.00    +0.000 I 
ATOM      4  C   UNL     1       3.101   4.948  18.938  0.00  0.00    +0.000 A 
ATOM      5  C   UNL     1       2.260   4.476  19.954  0.00  0.00    +0.000 A 
ATOM      6  C   UNL     1       1.522   5.428  20.679  0.00  0.00    +0.000 A 
ATOM      7  C   UNL     1       1.624   6.804  20.408  0.00  0.00    +0.000 A 
ENDROOT
BRANCH   5   8
ATOM      8  C   UNL     1       2.209   2.960  20.225  0.00  0.00    +0.000 C 
ATOM      9  C   UNL     1       3.645   2.390  20.163  0.00  0.00    +0.000 C 
ATOM     10  C   UNL     1       1.623   2.617  21.612  0.00  0.00    +0.000 C 
ATOM     11  C   UNL     1       1.333   2.265  19.156  0.00  0.00    +0.000 C 
ENDBRANCH   5   8
BRANCH   1  12
ATOM     12  O   UNL     1       2.554   8.632  19.189  0.00  0.00    +0.000 OA
BRANCH  12  13
ATOM     13  S   UNL     1       1.476   9.693  18.390  0.00  0.00    +0.000 S 
ATOM     14  O   UNL     1       0.604   8.921  17.390  0.00  0.00    +0.000 OA
ATOM     15  O   UNL     1       2.254  10.726  17.559  0.00  0.00    +0.000 OA
BRANCH  13  17
ATOM     16  C   UNL     1       0.856  11.966  19.618  0.00  0.00    +0.000 C 
ATOM     17  N   UNL     1       0.374  10.594  19.449  0.00  0.00    +0.000 NA
ATOM     18  C   UNL     1      -0.981  10.563  18.896  0.00  0.00    +0.000 C 
ENDBRANCH  13  17
ENDBRANCH  12  13
ENDBRANCH   1  12
BRANCH   7  19
ATOM     19  C   UNL     1       0.801   7.737  21.280  0.00  0.00    +0.000 C 
BRANCH  19  20
ATOM     20  N   UNL     1       1.663   8.693  21.970  0.00  0.00    +0.000 NA
ATOM     21  H   UNL     1       1.519   9.645  21.565  0.00  0.00    +0.000 HD
ATOM     22  H   UNL     1       2.663   8.421  21.821  0.00  0.00    +0.000 HD
ENDBRANCH  19  20
ENDBRANCH   7  19
TORSDOF 6
ENDMDL
MODEL 4
REMARK VINA RESULT:      -5.3      3.894      6.183
REMARK  Name = 
REMARK  11 active torsions:
REMARK  status: ('A' for Active; 'I' for Inactive)
REMARK    1  A    between atoms: C_1  and  N_2
REMARK    2  A    between atoms: N_2  and  C_3
REMARK    3  A    between atoms: N_2  and  S_4
REMARK    4  A    between atoms: S_4  and  O_7
REMARK    5  A    between atoms: O_7  and  C_8
REMARK    6  A    between atoms: C_12  and  C_13
REMARK    7  A    between atoms: C_13  and  C_14
REMARK    8  A    between atoms: C_13  and  C_15
REMARK    9  A    between atoms: C_13  and  C_16
REMARK   10  A    between atoms: C_18  and  C_19
REMARK   11  A    between atoms: C_19  and  N_20
REMARK                            x       y       z     vdW  Elec       q    Type
REMARK                         _______ _______ _______ _____ _____    ______ ____
ROOT
ATOM      1  C   UNL     1       2.822   4.609  17.800  0.00  0.00    +0.000 A 
ATOM      2  C   UNL     1       3.362   5.937  17.744  0.00  0.00    +0.000 A 
ATOM      3  I   UNL     1       2.467   7.831  18.161  0.00  0.00    +0.000 I 
ATOM      4  C   UNL     1       4.692   6.130  17.375  0.00  0.00    +0.000 A 
ATOM      5  C   UNL     1       5.551   5.072  17.050  0.00  0.00    +0.000 A 
ATOM      6  C   UNL     1       5.022   3.771  17.095  0.00  0.00    +0.000 A 
ATOM      7  C   UNL     1       3.685   3.529  17.459  0.00  0.00    +0.000 A 
ENDROOT
BRANCH   5   8
ATOM      8  C   UNL     1       7.013   5.395  16.684  0.00  0.00    +0.000 C 
ATOM      9  C   UNL     1       7.951   4.519  17.545  0.00  0.00    +0.000 C 
ATOM     10  C   UNL     1       7.335   5.117  15.199  0.00  0.00    +0.000 C 
ATOM     11  C   UNL     1       7.306   6.889  16.961  0.00  0.00    +0.000 C 
ENDBRANCH   5   8
BRANCH   1  12
ATOM     12  O   UNL     1       1.540   4.294  18.166  0.00  0.00    +0.000 OA
BRANCH  12  13
ATOM     13  S   UNL     1       0.935   3.597  19.606  0.00  0.00    +0.000 S 
ATOM     14  O   UNL     1       0.010   2.416  19.284  0.00  0.00    +0.000 OA
ATOM     15  O   UNL     1       0.072   4.610  20.374  0.00  0.00    +0.000 OA
BRANCH  13  17
ATOM     16  C   UNL     1       3.043   4.095  21.146  0.00  0.00    +0.000 C 
ATOM     17  N   UNL     1       2.167   2.996  20.733  0.00  0.00    +0.000 NA
ATOM     18  C   UNL     1       1.520   2.362  21.883  0.00  0.00    +0.000 C 
ENDBRANCH  13  17
ENDBRANCH  12  13
ENDBRANCH   1  12
BRANCH   7  19
ATOM     19  C   UNL     1       3.240   2.077  17.502  0.00  0.00    +0.000 C 
BRANCH  19  20
ATOM     20  N   UNL     1       3.924   1.359  18.574  0.00  0.00    +0.000 NA
ATOM     21  H   UNL     1       4.759   0.866  18.185  0.00  0.00    +0.000 HD
ATOM     22  H   UNL     1       3.275   0.640  18.972  0.00  0.00    +0.000 HD
ENDBRANCH  19  20
ENDBRANCH   7  19
TORSDOF 6
ENDMDL
MODEL 5
REMARK VINA RESULT:      -5.3      0.312      1.263
REMARK  Name = 
REMARK  11 active torsions:
REMARK  status: ('A' for Active; 'I' for Inactive)
REMARK    1  A    between atoms: C_1  and  N_2
REMARK    2  A    between atoms: N_2  and  C_3
REMARK    3  A    between atoms: N_2  and  S_4
REMARK    4  A    between atoms: S_4  and  O_7
REMARK    5  A    between atoms: O_7  and  C_8
REMARK    6  A    between atoms: C_12  and  C_13
REMARK    7  A    between atoms: C_13  and  C_14
REMARK    8  A    between atoms: C_13  and  C_15
REMARK    9  A    between atoms: C_13  and  C_16
REMARK   10  A    between atoms: C_18  and  C_19
REMARK   11  A    between atoms: C_19  and  N_20
REMARK                            x       y       z     vdW  Elec       q    Type
REMARK                         _______ _______ _______ _____ _____    ______ ____
ROOT
ATOM      1  C   UNL     1       2.885   5.776  18.991  0.00  0.00    +0.000 A 
ATOM      2  C   UNL     1       2.168   5.474  20.197  0.00  0.00    +0.000 A 
ATOM      3  I   UNL     1       1.944   3.640  21.270  0.00  0.00    +0.000 I 
ATOM      4  C   UNL     1       1.476   6.483  20.864  0.00  0.00    +0.000 A 
ATOM      5  C   UNL     1       1.443   7.809  20.411  0.00  0.00    +0.000 A 
ATOM      6  C   UNL     1       2.136   8.105  19.225  0.00  0.00    +0.000 A 
ATOM      7  C   UNL     1       2.847   7.119  18.518  0.00  0.00    +0.000 A 
ENDROOT
BRANCH   5   8
ATOM      8  C   UNL     1       0.671   8.852  21.241  0.00  0.00    +0.000 C 
ATOM      9  C   UNL     1       0.410  10.098  20.364  0.00  0.00    +0.000 C 
ATOM     10  C   UNL     1      -0.694   8.331  21.741  0.00  0.00    +0.000 C 
ATOM     11  C   UNL     1       1.504   9.259  22.479  0.00  0.00    +0.000 C 
ENDBRANCH   5   8
BRANCH   1  12
ATOM     12  O   UNL     1       3.615   4.876  18.262  0.00  0.00    +0.000 OA
BRANCH  12  13
ATOM     13  S   UNL     1       5.234   4.353  18.441  0.00  0.00    +0.000 S 
ATOM     14  O   UNL     1       5.282   2.852  18.760  0.00  0.00    +0.000 OA
ATOM     15  O   UNL     1       5.899   5.057  19.633  0.00  0.00    +0.000 OA
BRANCH  13  17
ATOM     16  C   UNL     1       7.681   4.466  17.412  0.00  0.00    +0.000 C 
ATOM     17  N   UNL     1       6.276   4.614  17.028  0.00  0.00    +0.000 NA
ATOM     18  C   UNL     1       5.907   3.682  15.961  0.00  0.00    +0.000 C 
ENDBRANCH  13  17
ENDBRANCH  12  13
ENDBRANCH   1  12
BRANCH   7  19
ATOM     19  C   UNL     1       3.582   7.569  17.267  0.00  0.00    +0.000 C 
BRANCH  19  20
ATOM     20  N   UNL     1       5.015   7.312  17.391  0.00  0.00    +0.000 NA
ATOM     21  H   UNL     1       5.373   6.904  16.498  0.00  0.00    +0.000 HD
ATOM     22  H   UNL     1       5.172   6.615  18.156  0.00  0.00    +0.000 HD
ENDBRANCH  19  20
ENDBRANCH   7  19
TORSDOF 6
ENDMDL
MODEL 6
REMARK VINA RESULT:      -5.3      1.607      1.866
REMARK  Name = 
REMARK  11 active torsions:
REMARK  status: ('A' for Active; 'I' for Inactive)
REMARK    1  A    between atoms: C_1  and  N_2
REMARK    2  A    between atoms: N_2  and  C_3
REMARK    3  A    between atoms: N_2  and  S_4
REMARK    4  A    between atoms: S_4  and  O_7
REMARK    5  A    between atoms: O_7  and  C_8
REMARK    6  A    between atoms: C_12  and  C_13
REMARK    7  A    between atoms: C_13  and  C_14
REMARK    8  A    between atoms: C_13  and  C_15
REMARK    9  A    between atoms: C_13  and  C_16
REMARK   10  A    between atoms: C_18  and  C_19
REMARK   11  A    between atoms: C_19  and  N_20
REMARK                            x       y       z     vdW  Elec       q    Type
REMARK                         _______ _______ _______ _____ _____    ______ ____
ROOT
ATOM      1  C   UNL     1       2.693   5.692  18.830  0.00  0.00    +0.000 A 
ATOM      2  C   UNL     1       1.941   5.412  20.019  0.00  0.00    +0.000 A 
ATOM      3  I   UNL     1       1.493   3.562  20.989  0.00  0.00    +0.000 I 
ATOM      4  C   UNL     1       1.374   6.459  20.744  0.00  0.00    +0.000 A 
ATOM      5  C   UNL     1       1.503   7.802  20.365  0.00  0.00    +0.000 A 
ATOM      6  C   UNL     1       2.231   8.077  19.195  0.00  0.00    +0.000 A 
ATOM      7  C   UNL     1       2.819   7.053  18.432  0.00  0.00    +0.000 A 
ENDROOT
BRANCH   5   8
ATOM      8  C   UNL     1       0.860   8.883  21.255  0.00  0.00    +0.000 C 
ATOM      9  C   UNL     1      -0.540   8.403  21.697  0.00  0.00    +0.000 C 
ATOM     10  C   UNL     1       1.683   9.180  22.528  0.00  0.00    +0.000 C 
ATOM     11  C   UNL     1       0.726  10.204  20.461  0.00  0.00    +0.000 C 
ENDBRANCH   5   8
BRANCH   1  12
ATOM     12  O   UNL     1       3.311   4.751  18.049  0.00  0.00    +0.000 OA
BRANCH  12  13
ATOM     13  S   UNL     1       4.767   3.888  18.292  0.00  0.00    +0.000 S 
ATOM     14  O   UNL     1       5.601   4.543  19.402  0.00  0.00    +0.000 OA
ATOM     15  O   UNL     1       5.640   3.935  17.028  0.00  0.00    +0.000 OA
BRANCH  13  17
ATOM     16  C   UNL     1       4.650   2.029  20.186  0.00  0.00    +0.000 C 
ATOM     17  N   UNL     1       4.572   2.180  18.732  0.00  0.00    +0.000 NA
ATOM     18  C   UNL     1       3.304   1.674  18.205  0.00  0.00    +0.000 C 
ENDBRANCH  13  17
ENDBRANCH  12  13
ENDBRANCH   1  12
BRANCH   7  19
ATOM     19  C   UNL     1       3.607   7.480  17.205  0.00  0.00    +0.000 C 
BRANCH  19  20
ATOM     20  N   UNL     1       4.994   7.030  17.302  0.00  0.00    +0.000 NA
ATOM     21  H   UNL     1       5.266   6.550  16.414  0.00  0.00    +0.000 HD
ATOM     22  H   UNL     1       5.076   6.340  18.085  0.00  0.00    +0.000 HD
ENDBRANCH  19  20
ENDBRANCH   7  19
TORSDOF 6
ENDMDL
MODEL 7
REMARK VINA RESULT:      -5.2      2.053      2.848
REMARK  Name = 
REMARK  11 active torsions:
REMARK  status: ('A' for Active; 'I' for Inactive)
REMARK    1  A    between atoms: C_1  and  N_2
REMARK    2  A    between atoms: N_2  and  C_3
REMARK    3  A    between atoms: N_2  and  S_4
REMARK    4  A    between atoms: S_4  and  O_7
REMARK    5  A    between atoms: O_7  and  C_8
REMARK    6  A    between atoms: C_12  and  C_13
REMARK    7  A    between atoms: C_13  and  C_14
REMARK    8  A    between atoms: C_13  and  C_15
REMARK    9  A    between atoms: C_13  and  C_16
REMARK   10  A    between atoms: C_18  and  C_19
REMARK   11  A    between atoms: C_19  and  N_20
REMARK                            x       y       z     vdW  Elec       q    Type
REMARK                         _______ _______ _______ _____ _____    ______ ____
ROOT
ATOM      1  C   UNL     1       3.520   6.064  18.346  0.00  0.00    +0.000 A 
ATOM      2  C   UNL     1       2.501   6.241  19.341  0.00  0.00    +0.000 A 
ATOM      3  I   UNL     1       1.791   4.924  20.866  0.00  0.00    +0.000 I 
ATOM      4  C   UNL     1       1.805   7.446  19.415  0.00  0.00    +0.000 A 
ATOM      5  C   UNL     1       2.053   8.521  18.551  0.00  0.00    +0.000 A 
ATOM      6  C   UNL     1       3.043   8.347  17.569  0.00  0.00    +0.000 A 
ATOM      7  C   UNL     1       3.770   7.148  17.456  0.00  0.00    +0.000 A 
ENDROOT
BRANCH   5   8
ATOM      8  C   UNL     1       1.245   9.819  18.739  0.00  0.00    +0.000 C 
ATOM      9  C   UNL     1       0.897   9.981  20.236  0.00  0.00    +0.000 C 
ATOM     10  C   UNL     1       2.021  11.078  18.294  0.00  0.00    +0.000 C 
ATOM     11  C   UNL     1      -0.059   9.751  17.911  0.00  0.00    +0.000 C 
ENDBRANCH   5   8
BRANCH   1  12
ATOM     12  O   UNL     1       4.282   4.937  18.189  0.00  0.00    +0.000 OA
BRANCH  12  13
ATOM     13  S   UNL     1       3.910   3.438  17.454  0.00  0.00    +0.000 S 
ATOM     14  O   UNL     1       4.955   3.091  16.384  0.00  0.00    +0.000 OA
ATOM     15  O   UNL     1       2.564   3.518  16.717  0.00  0.00    +0.000 OA
BRANCH  13  17
ATOM     16  C   UNL     1       4.482   2.383  19.824  0.00  0.00    +0.000 C 
ATOM     17  N   UNL     1       3.823   2.052  18.559  0.00  0.00    +0.000 NA
ATOM     18  C   UNL     1       2.425   1.669  18.763  0.00  0.00    +0.000 C 
ENDBRANCH  13  17
ENDBRANCH  12  13
ENDBRANCH   1  12
BRANCH   7  19
ATOM     19  C   UNL     1       4.836   7.093  16.375  0.00  0.00    +0.000 C 
BRANCH  19  20
ATOM     20  N   UNL     1       6.169   7.018  16.970  0.00  0.00    +0.000 NA
ATOM     21  H   UNL     1       6.379   6.027  17.227  0.00  0.00    +0.000 HD
ATOM     22  H   UNL     1       6.186   7.595  17.843  0.00  0.00    +0.000 HD
ENDBRANCH  19  20
ENDBRANCH   7  19
TORSDOF 6
ENDMDL
MODEL 8
REMARK VINA RESULT:      -5.2      4.078      6.268
REMARK  Name = 
REMARK  11 active torsions:
REMARK  status: ('A' for Active; 'I' for Inactive)
REMARK    1  A    between atoms: C_1  and  N_2
REMARK    2  A    between atoms: N_2  and  C_3
REMARK    3  A    between atoms: N_2  and  S_4
REMARK    4  A    between atoms: S_4  and  O_7
REMARK    5  A    between atoms: O_7  and  C_8
REMARK    6  A    between atoms: C_12  and  C_13
REMARK    7  A    between atoms: C_13  and  C_14
REMARK    8  A    between atoms: C_13  and  C_15
REMARK    9  A    between atoms: C_13  and  C_16
REMARK   10  A    between atoms: C_18  and  C_19
REMARK   11  A    between atoms: C_19  and  N_20
REMARK                            x       y       z     vdW  Elec       q    Type
REMARK                         _______ _______ _______ _____ _____    ______ ____
ROOT
ATOM      1  C   UNL     1       2.331   7.383  19.520  0.00  0.00    +0.000 A 
ATOM      2  C   UNL     1       3.078   6.459  18.716  0.00  0.00    +0.000 A 
ATOM      3  I   UNL     1       4.414   6.788  17.082  0.00  0.00    +0.000 I 
ATOM      4  C   UNL     1       2.995   5.092  18.973  0.00  0.00    +0.000 A 
ATOM      5  C   UNL     1       2.204   4.558  19.998  0.00  0.00    +0.000 A 
ATOM      6  C   UNL     1       1.463   5.460  20.781  0.00  0.00    +0.000 A 
ATOM      7  C   UNL     1       1.515   6.848  20.557  0.00  0.00    +0.000 A 
ENDROOT
BRANCH   5   8
ATOM      8  C   UNL     1       2.207   3.032  20.214  0.00  0.00    +0.000 C 
ATOM      9  C   UNL     1       1.612   2.721  21.606  0.00  0.00    +0.000 C 
ATOM     10  C   UNL     1       1.369   2.275  19.160  0.00  0.00    +0.000 C 
ATOM     11  C   UNL     1       3.656   2.495  20.141  0.00  0.00    +0.000 C 
ENDBRANCH   5   8
BRANCH   1  12
ATOM     12  O   UNL     1       2.348   8.745  19.377  0.00  0.00    +0.000 OA
BRANCH  12  13
ATOM     13  S   UNL     1       1.503   9.759  18.288  0.00  0.00    +0.000 S 
ATOM     14  O   UNL     1       0.656   8.920  17.321  0.00  0.00    +0.000 OA
ATOM     15  O   UNL     1       2.488  10.546  17.410  0.00  0.00    +0.000 OA
BRANCH  13  17
ATOM     16  C   UNL     1      -0.825  10.277  19.458  0.00  0.00    +0.000 C 
ATOM     17  N   UNL     1       0.412  10.939  19.041  0.00  0.00    +0.000 NA
ATOM     18  C   UNL     1       1.084  11.585  20.170  0.00  0.00    +0.000 C 
ENDBRANCH  13  17
ENDBRANCH  12  13
ENDBRANCH   1  12
BRANCH   7  19
ATOM     19  C   UNL     1       0.694   7.722  21.490  0.00  0.00    +0.000 C 
BRANCH  19  20
ATOM     20  N   UNL     1       1.544   8.714  22.147  0.00  0.00    +0.000 NA
ATOM     21  H   UNL     1       2.547   8.462  22.001  0.00  0.00    +0.000 HD
ATOM     22  H   UNL     1       1.349   8.702  23.175  0.00  0.00    +0.000 HD
ENDBRANCH  19  20
ENDBRANCH   7  19
TORSDOF 6
ENDMDL
MODEL 9
REMARK VINA RESULT:      -5.2      6.980      9.013
REMARK  Name = 
REMARK  11 active torsions:
REMARK  status: ('A' for Active; 'I' for Inactive)
REMARK    1  A    between atoms: C_1  and  N_2
REMARK    2  A    between atoms: N_2  and  C_3
REMARK    3  A    between atoms: N_2  and  S_4
REMARK    4  A    between atoms: S_4  and  O_7
REMARK    5  A    between atoms: O_7  and  C_8
REMARK    6  A    between atoms: C_12  and  C_13
REMARK    7  A    between atoms: C_13  and  C_14
REMARK    8  A    between atoms: C_13  and  C_15
REMARK    9  A    between atoms: C_13  and  C_16
REMARK   10  A    between atoms: C_18  and  C_19
REMARK   11  A    between atoms: C_19  and  N_20
REMARK                            x       y       z     vdW  Elec       q    Type
REMARK                         _______ _______ _______ _____ _____    ______ ____
ROOT
ATOM      1  C   UNL     1      -2.447  12.398  20.067  0.00  0.00    +0.000 A 
ATOM      2  C   UNL     1      -3.319  12.801  21.133  0.00  0.00    +0.000 A 
ATOM      3  I   UNL     1      -2.889  13.600  23.066  0.00  0.00    +0.000 I 
ATOM      4  C   UNL     1      -4.700  12.703  20.973  0.00  0.00    +0.000 A 
ATOM      5  C   UNL     1      -5.297  12.223  19.800  0.00  0.00    +0.000 A 
ATOM      6  C   UNL     1      -4.445  11.818  18.758  0.00  0.00    +0.000 A 
ATOM      7  C   UNL     1      -3.045  11.897  18.875  0.00  0.00    +0.000 A 
ENDROOT
BRANCH   5   8
ATOM      8  C   UNL     1      -6.835  12.184  19.719  0.00  0.00    +0.000 C 
ATOM      9  C   UNL     1      -7.264  12.344  18.242  0.00  0.00    +0.000 C 
ATOM     10  C   UNL     1      -7.431  10.860  20.244  0.00  0.00    +0.000 C 
ATOM     11  C   UNL     1      -7.435  13.338  20.557  0.00  0.00    +0.000 C 
ENDBRANCH   5   8
BRANCH   1  12
ATOM     12  O   UNL     1      -1.079  12.466  20.099  0.00  0.00    +0.000 OA
BRANCH  12  13
ATOM     13  S   UNL     1       0.077  11.343  20.674  0.00  0.00    +0.000 S 
ATOM     14  O   UNL     1       1.101  12.043  21.579  0.00  0.00    +0.000 OA
ATOM     15  O   UNL     1       0.882  10.753  19.506  0.00  0.00    +0.000 OA
BRANCH  13  17
ATOM     16  C   UNL     1       0.231   8.785  21.374  0.00  0.00    +0.000 C 
ATOM     17  N   UNL     1      -0.584   9.981  21.598  0.00  0.00    +0.000 NA
ATOM     18  C   UNL     1      -0.649  10.330  23.018  0.00  0.00    +0.000 C 
ENDBRANCH  13  17
ENDBRANCH  12  13
ENDBRANCH   1  12
BRANCH   7  19
ATOM     19  C   UNL     1      -2.232  11.460  17.669  0.00  0.00    +0.000 C 
BRANCH  19  20
ATOM     20  N   UNL     1      -1.285  12.503  17.280  0.00  0.00    +0.000 NA
ATOM     21  H   UNL     1      -0.538  12.088  16.680  0.00  0.00    +0.000 HD
ATOM     22  H   UNL     1      -0.835  12.894  18.141  0.00  0.00    +0.000 HD
ENDBRANCH  19  20
ENDBRANCH   7  19
TORSDOF 6
ENDMDL
