MODEL 1
REMARK VINA RESULT:      -8.0      0.000      0.000
REMARK  Name = 
REMARK  8 active torsions:
REMARK  status: ('A' for Active; 'I' for Inactive)
REMARK    1  A    between atoms: C_1  and  C_2
REMARK    2  A    between atoms: C_2  and  C_3
REMARK    3  A    between atoms: C_6  and  C_7
REMARK    4  A    between atoms: N_9  and  C_10
REMARK    5  A    between atoms: N_9  and  C_17
REMARK    6  A    between atoms: C_10  and  C_11
REMARK    7  A    between atoms: C_17  and  C_18
REMARK    8  A    between atoms: C_23  and  C_24
REMARK                            x       y       z     vdW  Elec       q    Type
REMARK                         _______ _______ _______ _____ _____    ______ ____
ROOT
ATOM      1  C   UNL     1       7.019   5.198  17.283  0.00  0.00    +0.000 C 
ATOM      2  O   UNL     1       7.919   4.370  17.438  0.00  0.00    +0.000 OA
ATOM      3  N   UNL     1       5.830   4.792  16.658  0.00  0.00    +0.000 N 
ENDROOT
BRANCH   1   7
ATOM      4  C   UNL     1       8.511   8.997  18.464  0.00  0.00    +0.000 A 
ATOM      5  N   UNL     1       8.767   7.919  19.225  0.00  0.00    +0.000 NA
ATOM      6  C   UNL     1       8.189   6.746  18.830  0.00  0.00    +0.000 A 
ATOM      7  C   UNL     1       7.350   6.577  17.735  0.00  0.00    +0.000 A 
ATOM      8  C   UNL     1       7.136   7.759  17.061  0.00  0.00    +0.000 A 
ATOM      9  N   UNL     1       7.687   8.967  17.402  0.00  0.00    +0.000 NA
BRANCH   4  11
ATOM     10  C   UNL     1       8.832  11.476  17.881  0.00  0.00    +0.000 C 
ATOM     11  C   UNL     1       9.138  10.322  18.833  0.00  0.00    +0.000 C 
ENDBRANCH   4  11
ENDBRANCH   1   7
BRANCH   3  12
ATOM     12  C   UNL     1       5.893   3.620  15.736  0.00  0.00    +0.000 C 
BRANCH  12  13
ATOM     13  C   UNL     1       6.025   4.166  14.332  0.00  0.00    +0.000 A 
ATOM     14  C   UNL     1       5.328   3.518  13.307  0.00  0.00    +0.000 A 
ATOM     15  C   UNL     1       5.891   3.453  12.044  0.00  0.00    +0.000 A 
ATOM     16  C   UNL     1       7.112   4.083  11.792  0.00  0.00    +0.000 A 
ATOM     17  C   UNL     1       7.680   4.916  12.760  0.00  0.00    +0.000 A 
ATOM     18  C   UNL     1       7.108   4.999  14.022  0.00  0.00    +0.000 A 
ENDBRANCH  12  13
ENDBRANCH   3  12
BRANCH   3  19
ATOM     19  C   UNL     1       4.576   5.536  16.634  0.00  0.00    +0.000 C 
BRANCH  19  20
ATOM     20  C   UNL     1       3.784   5.400  17.903  0.00  0.00    +0.000 A 
ATOM     21  N   UNL     1       3.845   4.180  18.488  0.00  0.00    +0.000 NA
ATOM     22  C   UNL     1       3.215   4.018  19.663  0.00  0.00    +0.000 A 
ATOM     23  C   UNL     1       2.518   5.028  20.300  0.00  0.00    +0.000 A 
ATOM     24  C   UNL     1       2.454   6.276  19.687  0.00  0.00    +0.000 A 
ATOM     25  C   UNL     1       3.084   6.483  18.463  0.00  0.00    +0.000 A 
ATOM     26  C   UNL     1       2.987   7.830  17.807  0.00  0.00    +0.000 C 
ENDBRANCH  19  20
ENDBRANCH   3  19
TORSDOF 6
ENDMDL
MODEL 2
REMARK VINA RESULT:      -7.8      0.853      1.383
REMARK  Name = 
REMARK  8 active torsions:
REMARK  status: ('A' for Active; 'I' for Inactive)
REMARK    1  A    between atoms: C_1  and  C_2
REMARK    2  A    between atoms: C_2  and  C_3
REMARK    3  A    between atoms: C_6  and  C_7
REMARK    4  A    between atoms: N_9  and  C_10
REMARK    5  A    between atoms: N_9  and  C_17
REMARK    6  A    between atoms: C_10  and  C_11
REMARK    7  A    between atoms: C_17  and  C_18
REMARK    8  A    between atoms: C_23  and  C_24
REMARK                            x       y       z     vdW  Elec       q    Type
REMARK                         _______ _______ _______ _____ _____    ______ ____
ROOT
ATOM      1  C   UNL     1       6.997   5.236  17.294  0.00  0.00    +0.000 C 
ATOM      2  O   UNL     1       7.898   4.419  17.502  0.00  0.00    +0.000 OA
ATOM      3  N   UNL     1       5.830   4.801  16.647  0.00  0.00    +0.000 N 
ENDROOT
BRANCH   1   7
ATOM      4  C   UNL     1       8.421   9.102  18.333  0.00  0.00    +0.000 A 
ATOM      5  N   UNL     1       8.783   8.042  19.074  0.00  0.00    +0.000 NA
ATOM      6  C   UNL     1       8.225   6.843  18.734  0.00  0.00    +0.000 A 
ATOM      7  C   UNL     1       7.306   6.631  17.712  0.00  0.00    +0.000 A 
ATOM      8  C   UNL     1       6.989   7.798  17.052  0.00  0.00    +0.000 A 
ATOM      9  N   UNL     1       7.515   9.030  17.342  0.00  0.00    +0.000 NA
BRANCH   4  11
ATOM     10  C   UNL     1       9.417  10.673  20.101  0.00  0.00    +0.000 C 
ATOM     11  C   UNL     1       9.019  10.455  18.643  0.00  0.00    +0.000 C 
ENDBRANCH   4  11
ENDBRANCH   1   7
BRANCH   3  12
ATOM     12  C   UNL     1       5.929   3.601  15.765  0.00  0.00    +0.000 C 
BRANCH  12  13
ATOM     13  C   UNL     1       6.014   4.102  14.342  0.00  0.00    +0.000 A 
ATOM     14  C   UNL     1       5.258   3.443  13.366  0.00  0.00    +0.000 A 
ATOM     15  C   UNL     1       5.766   3.326  12.083  0.00  0.00    +0.000 A 
ATOM     16  C   UNL     1       6.990   3.917  11.762  0.00  0.00    +0.000 A 
ATOM     17  C   UNL     1       7.619   4.762  12.680  0.00  0.00    +0.000 A 
ATOM     18  C   UNL     1       7.103   4.897  13.962  0.00  0.00    +0.000 A 
ENDBRANCH  12  13
ENDBRANCH   3  12
BRANCH   3  19
ATOM     19  C   UNL     1       4.573   5.535  16.563  0.00  0.00    +0.000 C 
BRANCH  19  20
ATOM     20  C   UNL     1       3.702   5.358  17.773  0.00  0.00    +0.000 A 
ATOM     21  N   UNL     1       3.776   6.360  18.683  0.00  0.00    +0.000 NA
ATOM     22  C   UNL     1       2.968   6.293  19.753  0.00  0.00    +0.000 A 
ATOM     23  C   UNL     1       2.069   5.264  19.966  0.00  0.00    +0.000 A 
ATOM     24  C   UNL     1       2.005   4.236  19.030  0.00  0.00    +0.000 A 
ATOM     25  C   UNL     1       2.834   4.261  17.911  0.00  0.00    +0.000 A 
ATOM     26  C   UNL     1       2.767   3.133  16.923  0.00  0.00    +0.000 C 
ENDBRANCH  19  20
ENDBRANCH   3  19
TORSDOF 6
ENDMDL
MODEL 3
REMARK VINA RESULT:      -7.6      0.930      1.188
REMARK  Name = 
REMARK  8 active torsions:
REMARK  status: ('A' for Active; 'I' for Inactive)
REMARK    1  A    between atoms: C_1  and  C_2
REMARK    2  A    between atoms: C_2  and  C_3
REMARK    3  A    between atoms: C_6  and  C_7
REMARK    4  A    between atoms: N_9  and  C_10
REMARK    5  A    between atoms: N_9  and  C_17
REMARK    6  A    between atoms: C_10  and  C_11
REMARK    7  A    between atoms: C_17  and  C_18
REMARK    8  A    between atoms: C_23  and  C_24
REMARK                            x       y       z     vdW  Elec       q    Type
REMARK                         _______ _______ _______ _____ _____    ______ ____
ROOT
ATOM      1  C   UNL     1       7.122   4.942  17.112  0.00  0.00    +0.000 C 
ATOM      2  O   UNL     1       8.085   4.172  17.145  0.00  0.00    +0.000 OA
ATOM      3  N   UNL     1       5.914   4.487  16.560  0.00  0.00    +0.000 N 
ENDROOT
BRANCH   1   7
ATOM      4  C   UNL     1       8.465   8.725  18.505  0.00  0.00    +0.000 A 
ATOM      5  N   UNL     1       8.649   7.635  19.268  0.00  0.00    +0.000 NA
ATOM      6  C   UNL     1       8.121   6.466  18.797  0.00  0.00    +0.000 A 
ATOM      7  C   UNL     1       7.397   6.314  17.620  0.00  0.00    +0.000 A 
ATOM      8  C   UNL     1       7.246   7.507  16.948  0.00  0.00    +0.000 A 
ATOM      9  N   UNL     1       7.753   8.711  17.365  0.00  0.00    +0.000 NA
BRANCH   4  11
ATOM     10  C   UNL     1       8.806  11.220  18.013  0.00  0.00    +0.000 C 
ATOM     11  C   UNL     1       9.043  10.045  18.959  0.00  0.00    +0.000 C 
ENDBRANCH   4  11
ENDBRANCH   1   7
BRANCH   3  12
ATOM     12  C   UNL     1       5.978   3.376  15.566  0.00  0.00    +0.000 C 
BRANCH  12  13
ATOM     13  C   UNL     1       6.072   4.009  14.197  0.00  0.00    +0.000 A 
ATOM     14  C   UNL     1       5.449   3.357  13.127  0.00  0.00    +0.000 A 
ATOM     15  C   UNL     1       6.029   3.416  11.871  0.00  0.00    +0.000 A 
ATOM     16  C   UNL     1       7.187   4.169  11.673  0.00  0.00    +0.000 A 
ATOM     17  C   UNL     1       7.666   4.995  12.693  0.00  0.00    +0.000 A 
ATOM     18  C   UNL     1       7.076   4.955  13.949  0.00  0.00    +0.000 A 
ENDBRANCH  12  13
ENDBRANCH   3  12
BRANCH   3  19
ATOM     19  C   UNL     1       4.616   5.141  16.681  0.00  0.00    +0.000 C 
BRANCH  19  20
ATOM     20  C   UNL     1       3.662   4.400  17.574  0.00  0.00    +0.000 A 
ATOM     21  N   UNL     1       3.018   3.363  16.987  0.00  0.00    +0.000 NA
ATOM     22  C   UNL     1       2.205   2.619  17.754  0.00  0.00    +0.000 A 
ATOM     23  C   UNL     1       2.000   2.854  19.101  0.00  0.00    +0.000 A 
ATOM     24  C   UNL     1       2.661   3.927  19.693  0.00  0.00    +0.000 A 
ATOM     25  C   UNL     1       3.504   4.731  18.931  0.00  0.00    +0.000 A 
ATOM     26  C   UNL     1       4.192   5.897  19.581  0.00  0.00    +0.000 C 
ENDBRANCH  19  20
ENDBRANCH   3  19
TORSDOF 6
ENDMDL
MODEL 4
REMARK VINA RESULT:      -7.5      1.168      1.255
REMARK  Name = 
REMARK  8 active torsions:
REMARK  status: ('A' for Active; 'I' for Inactive)
REMARK    1  A    between atoms: C_1  and  C_2
REMARK    2  A    between atoms: C_2  and  C_3
REMARK    3  A    between atoms: C_6  and  C_7
REMARK    4  A    between atoms: N_9  and  C_10
REMARK    5  A    between atoms: N_9  and  C_17
REMARK    6  A    between atoms: C_10  and  C_11
REMARK    7  A    between atoms: C_17  and  C_18
REMARK    8  A    between atoms: C_23  and  C_24
REMARK                            x       y       z     vdW  Elec       q    Type
REMARK                         _______ _______ _______ _____ _____    ______ ____
ROOT
ATOM      1  C   UNL     1       7.092   4.885  17.115  0.00  0.00    +0.000 C 
ATOM      2  O   UNL     1       8.094   4.193  16.916  0.00  0.00    +0.000 OA
ATOM      3  N   UNL     1       5.834   4.360  16.783  0.00  0.00    +0.000 N 
ENDROOT
BRANCH   1   7
ATOM      4  C   UNL     1       8.432   8.660  18.532  0.00  0.00    +0.000 A 
ATOM      5  N   UNL     1       8.643   7.561  19.275  0.00  0.00    +0.000 NA
ATOM      6  C   UNL     1       8.115   6.395  18.799  0.00  0.00    +0.000 A 
ATOM      7  C   UNL     1       7.367   6.252  17.636  0.00  0.00    +0.000 A 
ATOM      8  C   UNL     1       7.191   7.453  16.984  0.00  0.00    +0.000 A 
ATOM      9  N   UNL     1       7.696   8.656  17.407  0.00  0.00    +0.000 NA
BRANCH   4  11
ATOM     10  C   UNL     1       8.948  11.110  17.967  0.00  0.00    +0.000 C 
ATOM     11  C   UNL     1       9.009   9.979  18.991  0.00  0.00    +0.000 C 
ENDBRANCH   4  11
ENDBRANCH   1   7
BRANCH   3  12
ATOM     12  C   UNL     1       5.777   3.299  15.734  0.00  0.00    +0.000 C 
BRANCH  12  13
ATOM     13  C   UNL     1       5.909   3.989  14.396  0.00  0.00    +0.000 A 
ATOM     14  C   UNL     1       5.269   3.414  13.293  0.00  0.00    +0.000 A 
ATOM     15  C   UNL     1       5.862   3.505  12.045  0.00  0.00    +0.000 A 
ATOM     16  C   UNL     1       7.053   4.218  11.891  0.00  0.00    +0.000 A 
ATOM     17  C   UNL     1       7.555   4.977  12.951  0.00  0.00    +0.000 A 
ATOM     18  C   UNL     1       6.953   4.904  14.200  0.00  0.00    +0.000 A 
ENDBRANCH  12  13
ENDBRANCH   3  12
BRANCH   3  19
ATOM     19  C   UNL     1       4.543   4.903  17.191  0.00  0.00    +0.000 C 
BRANCH  19  20
ATOM     20  C   UNL     1       3.873   4.093  18.264  0.00  0.00    +0.000 A 
ATOM     21  N   UNL     1       4.717   3.432  19.093  0.00  0.00    +0.000 NA
ATOM     22  C   UNL     1       4.179   2.748  20.115  0.00  0.00    +0.000 A 
ATOM     23  C   UNL     1       2.819   2.690  20.363  0.00  0.00    +0.000 A 
ATOM     24  C   UNL     1       1.960   3.367  19.501  0.00  0.00    +0.000 A 
ATOM     25  C   UNL     1       2.476   4.079  18.422  0.00  0.00    +0.000 A 
ATOM     26  C   UNL     1       1.534   4.785  17.490  0.00  0.00    +0.000 C 
ENDBRANCH  19  20
ENDBRANCH   3  19
TORSDOF 6
ENDMDL
MODEL 5
REMARK VINA RESULT:      -7.4      2.390      4.428
REMARK  Name = 
REMARK  8 active torsions:
REMARK  status: ('A' for Active; 'I' for Inactive)
REMARK    1  A    between atoms: C_1  and  C_2
REMARK    2  A    between atoms: C_2  and  C_3
REMARK    3  A    between atoms: C_6  and  C_7
REMARK    4  A    between atoms: N_9  and  C_10
REMARK    5  A    between atoms: N_9  and  C_17
REMARK    6  A    between atoms: C_10  and  C_11
REMARK    7  A    between atoms: C_17  and  C_18
REMARK    8  A    between atoms: C_23  and  C_24
REMARK                            x       y       z     vdW  Elec       q    Type
REMARK                         _______ _______ _______ _____ _____    ______ ____
ROOT
ATOM      1  C   UNL     1       5.695   4.758  17.167  0.00  0.00    +0.000 C 
ATOM      2  O   UNL     1       5.994   4.010  16.234  0.00  0.00    +0.000 OA
ATOM      3  N   UNL     1       4.426   4.629  17.753  0.00  0.00    +0.000 N 
ENDROOT
BRANCH   1   7
ATOM      4  C   UNL     1       8.199   7.995  18.311  0.00  0.00    +0.000 A 
ATOM      5  N   UNL     1       7.435   8.105  17.211  0.00  0.00    +0.000 NA
ATOM      6  C   UNL     1       6.718   6.998  16.856  0.00  0.00    +0.000 A 
ATOM      7  C   UNL     1       6.726   5.774  17.514  0.00  0.00    +0.000 A 
ATOM      8  C   UNL     1       7.573   5.778  18.601  0.00  0.00    +0.000 A 
ATOM      9  N   UNL     1       8.317   6.854  19.011  0.00  0.00    +0.000 NA
BRANCH   4  11
ATOM     10  C   UNL     1       8.709  10.495  18.032  0.00  0.00    +0.000 C 
ATOM     11  C   UNL     1       9.001   9.191  18.770  0.00  0.00    +0.000 C 
ENDBRANCH   4  11
ENDBRANCH   1   7
BRANCH   3  12
ATOM     12  C   UNL     1       3.333   4.042  16.925  0.00  0.00    +0.000 C 
BRANCH  12  13
ATOM     13  C   UNL     1       2.561   3.094  17.813  0.00  0.00    +0.000 A 
ATOM     14  C   UNL     1       1.248   3.434  18.155  0.00  0.00    +0.000 A 
ATOM     15  C   UNL     1       0.765   3.089  19.406  0.00  0.00    +0.000 A 
ATOM     16  C   UNL     1       1.567   2.357  20.285  0.00  0.00    +0.000 A 
ATOM     17  C   UNL     1       2.783   1.829  19.845  0.00  0.00    +0.000 A 
ATOM     18  C   UNL     1       3.263   2.156  18.583  0.00  0.00    +0.000 A 
ENDBRANCH  12  13
ENDBRANCH   3  12
BRANCH   3  19
ATOM     19  C   UNL     1       4.001   5.220  19.017  0.00  0.00    +0.000 C 
BRANCH  19  20
ATOM     20  C   UNL     1       3.248   6.508  18.844  0.00  0.00    +0.000 A 
ATOM     21  N   UNL     1       3.602   7.236  17.759  0.00  0.00    +0.000 NA
ATOM     22  C   UNL     1       2.915   8.363  17.512  0.00  0.00    +0.000 A 
ATOM     23  C   UNL     1       1.870   8.808  18.301  0.00  0.00    +0.000 A 
ATOM     24  C   UNL     1       1.519   8.056  19.419  0.00  0.00    +0.000 A 
ATOM     25  C   UNL     1       2.214   6.887  19.718  0.00  0.00    +0.000 A 
ATOM     26  C   UNL     1       1.835   6.100  20.939  0.00  0.00    +0.000 C 
ENDBRANCH  19  20
ENDBRANCH   3  19
TORSDOF 6
ENDMDL
MODEL 6
REMARK VINA RESULT:      -7.4      2.856      3.852
REMARK  Name = 
REMARK  8 active torsions:
REMARK  status: ('A' for Active; 'I' for Inactive)
REMARK    1  A    between atoms: C_1  and  C_2
REMARK    2  A    between atoms: C_2  and  C_3
REMARK    3  A    between atoms: C_6  and  C_7
REMARK    4  A    between atoms: N_9  and  C_10
REMARK    5  A    between atoms: N_9  and  C_17
REMARK    6  A    between atoms: C_10  and  C_11
REMARK    7  A    between atoms: C_17  and  C_18
REMARK    8  A    between atoms: C_23  and  C_24
REMARK                            x       y       z     vdW  Elec       q    Type
REMARK                         _______ _______ _______ _____ _____    ______ ____
ROOT
ATOM      1  C   UNL     1       5.139   5.817  17.683  0.00  0.00    +0.000 C 
ATOM      2  O   UNL     1       6.210   6.355  17.971  0.00  0.00    +0.000 OA
ATOM      3  N   UNL     1       5.158   4.513  17.162  0.00  0.00    +0.000 N 
ENDROOT
BRANCH   1   7
ATOM      4  C   UNL     1       1.998   8.513  18.642  0.00  0.00    +0.000 A 
ATOM      5  N   UNL     1       2.309   7.526  19.499  0.00  0.00    +0.000 NA
ATOM      6  C   UNL     1       3.272   6.647  19.092  0.00  0.00    +0.000 A 
ATOM      7  C   UNL     1       3.935   6.673  17.870  0.00  0.00    +0.000 A 
ATOM      8  C   UNL     1       3.503   7.706  17.069  0.00  0.00    +0.000 A 
ATOM      9  N   UNL     1       2.545   8.622  17.419  0.00  0.00    +0.000 NA
BRANCH   4  11
ATOM     10  C   UNL     1      -0.107   9.825  17.985  0.00  0.00    +0.000 C 
ATOM     11  C   UNL     1       0.955   9.531  19.042  0.00  0.00    +0.000 C 
ENDBRANCH   4  11
ENDBRANCH   1   7
BRANCH   3  12
ATOM     12  C   UNL     1       6.399   4.060  16.468  0.00  0.00    +0.000 C 
BRANCH  12  13
ATOM     13  C   UNL     1       6.282   4.487  15.023  0.00  0.00    +0.000 A 
ATOM     14  C   UNL     1       5.446   3.745  14.183  0.00  0.00    +0.000 A 
ATOM     15  C   UNL     1       5.796   3.583  12.853  0.00  0.00    +0.000 A 
ATOM     16  C   UNL     1       6.940   4.208  12.353  0.00  0.00    +0.000 A 
ATOM     17  C   UNL     1       7.635   5.127  13.143  0.00  0.00    +0.000 A 
ATOM     18  C   UNL     1       7.276   5.308  14.472  0.00  0.00    +0.000 A 
ENDBRANCH  12  13
ENDBRANCH   3  12
BRANCH   3  19
ATOM     19  C   UNL     1       4.008   3.628  17.024  0.00  0.00    +0.000 C 
BRANCH  19  20
ATOM     20  C   UNL     1       3.383   3.261  18.339  0.00  0.00    +0.000 A 
ATOM     21  N   UNL     1       4.234   2.728  19.248  0.00  0.00    +0.000 NA
ATOM     22  C   UNL     1       3.749   2.445  20.468  0.00  0.00    +0.000 A 
ATOM     23  C   UNL     1       2.437   2.675  20.839  0.00  0.00    +0.000 A 
ATOM     24  C   UNL     1       1.567   3.217  19.895  0.00  0.00    +0.000 A 
ATOM     25  C   UNL     1       2.028   3.514  18.615  0.00  0.00    +0.000 A 
ATOM     26  C   UNL     1       1.071   4.078  17.604  0.00  0.00    +0.000 C 
ENDBRANCH  19  20
ENDBRANCH   3  19
TORSDOF 6
ENDMDL
MODEL 7
REMARK VINA RESULT:      -7.3      3.285      5.777
REMARK  Name = 
REMARK  8 active torsions:
REMARK  status: ('A' for Active; 'I' for Inactive)
REMARK    1  A    between atoms: C_1  and  C_2
REMARK    2  A    between atoms: C_2  and  C_3
REMARK    3  A    between atoms: C_6  and  C_7
REMARK    4  A    between atoms: N_9  and  C_10
REMARK    5  A    between atoms: N_9  and  C_17
REMARK    6  A    between atoms: C_10  and  C_11
REMARK    7  A    between atoms: C_17  and  C_18
REMARK    8  A    between atoms: C_23  and  C_24
REMARK                            x       y       z     vdW  Elec       q    Type
REMARK                         _______ _______ _______ _____ _____    ______ ____
ROOT
ATOM      1  C   UNL     1       3.044   7.640  18.002  0.00  0.00    +0.000 C 
ATOM      2  O   UNL     1       3.340   8.343  17.033  0.00  0.00    +0.000 OA
ATOM      3  N   UNL     1       3.674   6.395  18.148  0.00  0.00    +0.000 N 
ENDROOT
BRANCH   1   7
ATOM      4  C   UNL     1       0.423   9.438  20.822  0.00  0.00    +0.000 A 
ATOM      5  N   UNL     1       1.161   8.377  21.187  0.00  0.00    +0.000 NA
ATOM      6  C   UNL     1       1.919   7.798  20.209  0.00  0.00    +0.000 A 
ATOM      7  C   UNL     1       1.975   8.195  18.878  0.00  0.00    +0.000 A 
ATOM      8  C   UNL     1       1.149   9.267  18.623  0.00  0.00    +0.000 A 
ATOM      9  N   UNL     1       0.366   9.894  19.558  0.00  0.00    +0.000 NA
BRANCH   4  11
ATOM     10  C   UNL     1      -0.278   9.604  23.285  0.00  0.00    +0.000 C 
ATOM     11  C   UNL     1      -0.422  10.138  21.862  0.00  0.00    +0.000 C 
ENDBRANCH   4  11
ENDBRANCH   1   7
BRANCH   3  12
ATOM     12  C   UNL     1       4.208   5.736  16.920  0.00  0.00    +0.000 C 
BRANCH  12  13
ATOM     13  C   UNL     1       5.716   5.780  17.012  0.00  0.00    +0.000 A 
ATOM     14  C   UNL     1       6.393   4.592  17.307  0.00  0.00    +0.000 A 
ATOM     15  C   UNL     1       7.546   4.642  18.071  0.00  0.00    +0.000 A 
ATOM     16  C   UNL     1       8.052   5.876  18.487  0.00  0.00    +0.000 A 
ATOM     17  C   UNL     1       7.498   7.060  17.995  0.00  0.00    +0.000 A 
ATOM     18  C   UNL     1       6.352   7.014  17.211  0.00  0.00    +0.000 A 
ENDBRANCH  12  13
ENDBRANCH   3  12
BRANCH   3  19
ATOM     19  C   UNL     1       3.662   5.563  19.346  0.00  0.00    +0.000 C 
BRANCH  19  20
ATOM     20  C   UNL     1       2.836   4.318  19.193  0.00  0.00    +0.000 A 
ATOM     21  N   UNL     1       1.562   4.523  18.779  0.00  0.00    +0.000 NA
ATOM     22  C   UNL     1       0.797   3.443  18.556  0.00  0.00    +0.000 A 
ATOM     23  C   UNL     1       1.243   2.145  18.721  0.00  0.00    +0.000 A 
ATOM     24  C   UNL     1       2.551   1.944  19.154  0.00  0.00    +0.000 A 
ATOM     25  C   UNL     1       3.375   3.037  19.408  0.00  0.00    +0.000 A 
ATOM     26  C   UNL     1       4.776   2.803  19.895  0.00  0.00    +0.000 C 
ENDBRANCH  19  20
ENDBRANCH   3  19
TORSDOF 6
ENDMDL
MODEL 8
REMARK VINA RESULT:      -7.2      2.529      5.765
REMARK  Name = 
REMARK  8 active torsions:
REMARK  status: ('A' for Active; 'I' for Inactive)
REMARK    1  A    between atoms: C_1  and  C_2
REMARK    2  A    between atoms: C_2  and  C_3
REMARK    3  A    between atoms: C_6  and  C_7
REMARK    4  A    between atoms: N_9  and  C_10
REMARK    5  A    between atoms: N_9  and  C_17
REMARK    6  A    between atoms: C_10  and  C_11
REMARK    7  A    between atoms: C_17  and  C_18
REMARK    8  A    between atoms: C_23  and  C_24
REMARK                            x       y       z     vdW  Elec       q    Type
REMARK                         _______ _______ _______ _____ _____    ______ ____
ROOT
ATOM      1  C   UNL     1       5.212   5.365  18.504  0.00  0.00    +0.000 C 
ATOM      2  O   UNL     1       6.169   5.244  19.273  0.00  0.00    +0.000 OA
ATOM      3  N   UNL     1       3.920   5.453  19.044  0.00  0.00    +0.000 N 
ENDROOT
BRANCH   1   7
ATOM      4  C   UNL     1       6.636   4.922  14.525  0.00  0.00    +0.000 A 
ATOM      5  N   UNL     1       7.371   5.604  15.419  0.00  0.00    +0.000 NA
ATOM      6  C   UNL     1       6.817   5.778  16.655  0.00  0.00    +0.000 A 
ATOM      7  C   UNL     1       5.561   5.335  17.057  0.00  0.00    +0.000 A 
ATOM      8  C   UNL     1       4.894   4.684  16.042  0.00  0.00    +0.000 A 
ATOM      9  N   UNL     1       5.395   4.474  14.783  0.00  0.00    +0.000 NA
BRANCH   4  11
ATOM     10  C   UNL     1       6.492   3.594  12.333  0.00  0.00    +0.000 C 
ATOM     11  C   UNL     1       7.201   4.676  13.145  0.00  0.00    +0.000 C 
ENDBRANCH   4  11
ENDBRANCH   1   7
BRANCH   3  12
ATOM     12  C   UNL     1       3.687   4.854  20.391  0.00  0.00    +0.000 C 
BRANCH  12  13
ATOM     13  C   UNL     1       2.875   3.596  20.184  0.00  0.00    +0.000 A 
ATOM     14  C   UNL     1       3.330   2.666  19.244  0.00  0.00    +0.000 A 
ATOM     15  C   UNL     1       2.407   1.943  18.507  0.00  0.00    +0.000 A 
ATOM     16  C   UNL     1       1.042   2.104  18.751  0.00  0.00    +0.000 A 
ATOM     17  C   UNL     1       0.612   2.861  19.844  0.00  0.00    +0.000 A 
ATOM     18  C   UNL     1       1.536   3.573  20.598  0.00  0.00    +0.000 A 
ENDBRANCH  12  13
ENDBRANCH   3  12
BRANCH   3  19
ATOM     19  C   UNL     1       2.718   5.868  18.330  0.00  0.00    +0.000 C 
BRANCH  19  20
ATOM     20  C   UNL     1       2.384   7.319  18.526  0.00  0.00    +0.000 A 
ATOM     21  N   UNL     1       2.738   8.131  17.501  0.00  0.00    +0.000 NA
ATOM     22  C   UNL     1       2.401   9.428  17.588  0.00  0.00    +0.000 A 
ATOM     23  C   UNL     1       1.714   9.968  18.659  0.00  0.00    +0.000 A 
ATOM     24  C   UNL     1       1.361   9.127  19.711  0.00  0.00    +0.000 A 
ATOM     25  C   UNL     1       1.701   7.777  19.666  0.00  0.00    +0.000 A 
ATOM     26  C   UNL     1       1.331   6.889  20.819  0.00  0.00    +0.000 C 
ENDBRANCH  19  20
ENDBRANCH   3  19
TORSDOF 6
ENDMDL
MODEL 9
REMARK VINA RESULT:      -7.2      2.837      5.137
REMARK  Name = 
REMARK  8 active torsions:
REMARK  status: ('A' for Active; 'I' for Inactive)
REMARK    1  A    between atoms: C_1  and  C_2
REMARK    2  A    between atoms: C_2  and  C_3
REMARK    3  A    between atoms: C_6  and  C_7
REMARK    4  A    between atoms: N_9  and  C_10
REMARK    5  A    between atoms: N_9  and  C_17
REMARK    6  A    between atoms: C_10  and  C_11
REMARK    7  A    between atoms: C_17  and  C_18
REMARK    8  A    between atoms: C_23  and  C_24
REMARK                            x       y       z     vdW  Elec       q    Type
REMARK                         _______ _______ _______ _____ _____    ______ ____
ROOT
ATOM      1  C   UNL     1       4.471   5.107  17.658  0.00  0.00    +0.000 C 
ATOM      2  O   UNL     1       4.477   4.146  16.886  0.00  0.00    +0.000 OA
ATOM      3  N   UNL     1       3.293   5.398  18.364  0.00  0.00    +0.000 N 
ENDROOT
BRANCH   1   7
ATOM      4  C   UNL     1       7.758   7.781  17.972  0.00  0.00    +0.000 A 
ATOM      5  N   UNL     1       6.795   8.019  17.066  0.00  0.00    +0.000 NA
ATOM      6  C   UNL     1       5.811   7.077  16.963  0.00  0.00    +0.000 A 
ATOM      7  C   UNL     1       5.734   5.895  17.691  0.00  0.00    +0.000 A 
ATOM      8  C   UNL     1       6.795   5.750  18.556  0.00  0.00    +0.000 A 
ATOM      9  N   UNL     1       7.811   6.658  18.710  0.00  0.00    +0.000 NA
BRANCH   4  11
ATOM     10  C   UNL     1       8.421  10.256  18.124  0.00  0.00    +0.000 C 
ATOM     11  C   UNL     1       8.865   8.795  18.152  0.00  0.00    +0.000 C 
ENDBRANCH   4  11
ENDBRANCH   1   7
BRANCH   3  12
ATOM     12  C   UNL     1       1.999   4.942  17.776  0.00  0.00    +0.000 C 
BRANCH  12  13
ATOM     13  C   UNL     1       1.458   3.857  18.679  0.00  0.00    +0.000 A 
ATOM     14  C   UNL     1       0.959   4.232  19.931  0.00  0.00    +0.000 A 
ATOM     15  C   UNL     1       1.123   3.375  21.007  0.00  0.00    +0.000 A 
ATOM     16  C   UNL     1       1.726   2.129  20.820  0.00  0.00    +0.000 A 
ATOM     17  C   UNL     1       2.009   1.678  19.529  0.00  0.00    +0.000 A 
ATOM     18  C   UNL     1       1.828   2.526  18.444  0.00  0.00    +0.000 A 
ENDBRANCH  12  13
ENDBRANCH   3  12
BRANCH   3  19
ATOM     19  C   UNL     1       3.176   6.302  19.502  0.00  0.00    +0.000 C 
BRANCH  19  20
ATOM     20  C   UNL     1       2.487   7.593  19.163  0.00  0.00    +0.000 A 
ATOM     21  N   UNL     1       2.786   8.097  17.941  0.00  0.00    +0.000 NA
ATOM     22  C   UNL     1       2.147   9.213  17.553  0.00  0.00    +0.000 A 
ATOM     23  C   UNL     1       1.205   9.862  18.330  0.00  0.00    +0.000 A 
ATOM     24  C   UNL     1       0.911   9.340  19.587  0.00  0.00    +0.000 A 
ATOM     25  C   UNL     1       1.559   8.192  20.033  0.00  0.00    +0.000 A 
ATOM     26  C   UNL     1       1.245   7.655  21.400  0.00  0.00    +0.000 C 
ENDBRANCH  19  20
ENDBRANCH   3  19
TORSDOF 6
ENDMDL
