MODEL 1
REMARK VINA RESULT:      -7.4      0.000      0.000
REMARK  Name = 
REMARK  7 active torsions:
REMARK  status: ('A' for Active; 'I' for Inactive)
REMARK    1  A    between atoms: C_1  and  N_2
REMARK    2  A    between atoms: N_2  and  C_3
REMARK    3  A    between atoms: N_2  and  C_4
REMARK    4  A    between atoms: C_4  and  C_5
REMARK    5  A    between atoms: C_5  and  O_6
REMARK    6  A    between atoms: N_10  and  C_11
REMARK    7  A    between atoms: C_16  and  C_17
REMARK                            x       y       z     vdW  Elec       q    Type
REMARK                         _______ _______ _______ _____ _____    ______ ____
ROOT
ATOM      1  C   UNL     1       3.415   5.555  18.384  0.00  0.00    +0.000 A 
ATOM      2  C   UNL     1       3.290   4.649  19.449  0.00  0.00    +0.000 A 
ATOM      3  C   UNL     1       2.569   4.986  20.568  0.00  0.00    +0.000 A 
ATOM      4  N   UNL     1       1.983   6.185  20.733  0.00  0.00    +0.000 NA
ATOM      5  C   UNL     1       2.074   7.092  19.759  0.00  0.00    +0.000 A 
ATOM      6  C   UNL     1       1.485   8.341  19.971  0.00  0.00    +0.000 A 
ATOM      7  C   UNL     1       1.552   9.350  18.991  0.00  0.00    +0.000 A 
ATOM      8  C   UNL     1       2.137   9.094  17.769  0.00  0.00    +0.000 A 
ATOM      9  C   UNL     1       2.674   7.835  17.535  0.00  0.00    +0.000 A 
ATOM     10  C   UNL     1       2.745   6.823  18.532  0.00  0.00    +0.000 A 
ENDROOT
BRANCH   1  15
ATOM     11  C   UNL     1       6.598   5.304  16.491  0.00  0.00    +0.000 C 
ATOM     12  C   UNL     1       6.243   4.136  15.562  0.00  0.00    +0.000 C 
ATOM     13  C   UNL     1       5.212   3.216  16.201  0.00  0.00    +0.000 C 
ATOM     14  C   UNL     1       3.929   3.996  16.502  0.00  0.00    +0.000 C 
ATOM     15  N   UNL     1       4.237   5.190  17.311  0.00  0.00    +0.000 N 
ATOM     16  C   UNL     1       5.282   6.074  16.761  0.00  0.00    +0.000 C 
BRANCH  11  17
ATOM     17  O   UNL     1       7.500   6.167  15.778  0.00  0.00    +0.000 OA
ATOM     18  H   UNL     1       7.603   5.761  14.896  0.00  0.00    +0.000 HD
ENDBRANCH  11  17
BRANCH  11  19
ATOM     19  C   UNL     1       7.223   4.974  17.886  0.00  0.00    +0.000 C 
BRANCH  19  21
ATOM     20  C   UNL     1       7.929   5.445  20.121  0.00  0.00    +0.000 C 
ATOM     21  N   UNL     1       7.305   6.039  18.922  0.00  0.00    +0.000 NA
ATOM     22  C   UNL     1       8.113   7.178  18.507  0.00  0.00    +0.000 C 
ENDBRANCH  19  21
ENDBRANCH  11  19
ENDBRANCH   1  15
BRANCH   6  23
ATOM     23  C   UNL     1       0.732   8.671  21.234  0.00  0.00    +0.000 C 
ATOM     24  F   UNL     1      -0.331   7.893  21.571  0.00  0.00    +0.000 F 
ATOM     25  F   UNL     1       1.556   8.644  22.328  0.00  0.00    +0.000 F 
ATOM     26  F   UNL     1       0.244   9.949  21.198  0.00  0.00    +0.000 F 
ENDBRANCH   6  23
TORSDOF 5
ENDMDL
MODEL 2
REMARK VINA RESULT:      -7.3      4.071      7.415
REMARK  Name = 
REMARK  7 active torsions:
REMARK  status: ('A' for Active; 'I' for Inactive)
REMARK    1  A    between atoms: C_1  and  N_2
REMARK    2  A    between atoms: N_2  and  C_3
REMARK    3  A    between atoms: N_2  and  C_4
REMARK    4  A    between atoms: C_4  and  C_5
REMARK    5  A    between atoms: C_5  and  O_6
REMARK    6  A    between atoms: N_10  and  C_11
REMARK    7  A    between atoms: C_16  and  C_17
REMARK                            x       y       z     vdW  Elec       q    Type
REMARK                         _______ _______ _______ _____ _____    ______ ____
ROOT
ATOM      1  C   UNL     1       2.270   7.905  18.781  0.00  0.00    +0.000 A 
ATOM      2  C   UNL     1       3.069   8.166  17.656  0.00  0.00    +0.000 A 
ATOM      3  C   UNL     1       3.890   7.193  17.145  0.00  0.00    +0.000 A 
ATOM      4  N   UNL     1       4.013   5.971  17.692  0.00  0.00    +0.000 NA
ATOM      5  C   UNL     1       3.287   5.665  18.769  0.00  0.00    +0.000 A 
ATOM      6  C   UNL     1       3.458   4.400  19.336  0.00  0.00    +0.000 A 
ATOM      7  C   UNL     1       2.733   4.014  20.480  0.00  0.00    +0.000 A 
ATOM      8  C   UNL     1       1.780   4.854  21.015  0.00  0.00    +0.000 A 
ATOM      9  C   UNL     1       1.566   6.090  20.418  0.00  0.00    +0.000 A 
ATOM     10  C   UNL     1       2.357   6.580  19.342  0.00  0.00    +0.000 A 
ENDROOT
BRANCH   1  15
ATOM     11  C   UNL     1      -0.124  10.739  18.679  0.00  0.00    +0.000 C 
ATOM     12  C   UNL     1      -0.498  10.802  20.165  0.00  0.00    +0.000 C 
ATOM     13  C   UNL     1      -0.362   9.437  20.827  0.00  0.00    +0.000 C 
ATOM     14  C   UNL     1       1.083   8.944  20.717  0.00  0.00    +0.000 C 
ATOM     15  N   UNL     1       1.522   8.964  19.310  0.00  0.00    +0.000 N 
ATOM     16  C   UNL     1       1.343  10.250  18.610  0.00  0.00    +0.000 C 
BRANCH  11  17
ATOM     17  O   UNL     1      -0.190  12.078  18.159  0.00  0.00    +0.000 OA
ATOM     18  H   UNL     1      -0.167  11.980  17.188  0.00  0.00    +0.000 HD
ENDBRANCH  11  17
BRANCH  11  19
ATOM     19  C   UNL     1      -0.958   9.801  17.746  0.00  0.00    +0.000 C 
BRANCH  19  21
ATOM     20  C   UNL     1      -2.372   9.965  15.826  0.00  0.00    +0.000 C 
ATOM     21  N   UNL     1      -2.299  10.241  17.275  0.00  0.00    +0.000 NA
ATOM     22  C   UNL     1      -3.394   9.537  17.928  0.00  0.00    +0.000 C 
ENDBRANCH  19  21
ENDBRANCH  11  19
ENDBRANCH   1  15
BRANCH   6  23
ATOM     23  C   UNL     1       4.401   3.379  18.753  0.00  0.00    +0.000 C 
ATOM     24  F   UNL     1       4.179   2.952  17.482  0.00  0.00    +0.000 F 
ATOM     25  F   UNL     1       5.693   3.830  18.759  0.00  0.00    +0.000 F 
ATOM     26  F   UNL     1       4.427   2.241  19.514  0.00  0.00    +0.000 F 
ENDBRANCH   6  23
TORSDOF 5
ENDMDL
MODEL 3
REMARK VINA RESULT:      -7.1      1.049      1.442
REMARK  Name = 
REMARK  7 active torsions:
REMARK  status: ('A' for Active; 'I' for Inactive)
REMARK    1  A    between atoms: C_1  and  N_2
REMARK    2  A    between atoms: N_2  and  C_3
REMARK    3  A    between atoms: N_2  and  C_4
REMARK    4  A    between atoms: C_4  and  C_5
REMARK    5  A    between atoms: C_5  and  O_6
REMARK    6  A    between atoms: N_10  and  C_11
REMARK    7  A    between atoms: C_16  and  C_17
REMARK                            x       y       z     vdW  Elec       q    Type
REMARK                         _______ _______ _______ _____ _____    ______ ____
ROOT
ATOM      1  C   UNL     1       3.214   5.558  19.029  0.00  0.00    +0.000 A 
ATOM      2  C   UNL     1       2.898   4.701  20.095  0.00  0.00    +0.000 A 
ATOM      3  C   UNL     1       2.021   5.100  21.073  0.00  0.00    +0.000 A 
ATOM      4  N   UNL     1       1.452   6.318  21.099  0.00  0.00    +0.000 NA
ATOM      5  C   UNL     1       1.720   7.182  20.118  0.00  0.00    +0.000 A 
ATOM      6  C   UNL     1       1.141   8.451  20.186  0.00  0.00    +0.000 A 
ATOM      7  C   UNL     1       1.389   9.416  19.192  0.00  0.00    +0.000 A 
ATOM      8  C   UNL     1       2.149   9.096  18.087  0.00  0.00    +0.000 A 
ATOM      9  C   UNL     1       2.680   7.816  17.988  0.00  0.00    +0.000 A 
ATOM     10  C   UNL     1       2.566   6.846  19.021  0.00  0.00    +0.000 A 
ENDROOT
BRANCH   1  15
ATOM     11  C   UNL     1       5.771   5.965  16.370  0.00  0.00    +0.000 C 
ATOM     12  C   UNL     1       6.536   4.649  16.558  0.00  0.00    +0.000 C 
ATOM     13  C   UNL     1       6.444   4.156  17.996  0.00  0.00    +0.000 C 
ATOM     14  C   UNL     1       4.979   3.917  18.375  0.00  0.00    +0.000 C 
ATOM     15  N   UNL     1       4.182   5.129  18.112  0.00  0.00    +0.000 N 
ATOM     16  C   UNL     1       4.298   5.681  16.749  0.00  0.00    +0.000 C 
BRANCH  11  17
ATOM     17  O   UNL     1       5.833   6.306  14.975  0.00  0.00    +0.000 OA
ATOM     18  H   UNL     1       4.947   6.100  14.619  0.00  0.00    +0.000 HD
ENDBRANCH  11  17
BRANCH  11  19
ATOM     19  C   UNL     1       6.222   7.207  17.207  0.00  0.00    +0.000 C 
BRANCH  19  21
ATOM     20  C   UNL     1       7.876   8.894  17.565  0.00  0.00    +0.000 C 
ATOM     21  N   UNL     1       7.671   7.436  17.454  0.00  0.00    +0.000 NA
ATOM     22  C   UNL     1       8.146   6.816  18.683  0.00  0.00    +0.000 C 
ENDBRANCH  19  21
ENDBRANCH  11  19
ENDBRANCH   1  15
BRANCH   6  23
ATOM     23  C   UNL     1       0.210   8.850  21.303  0.00  0.00    +0.000 C 
ATOM     24  F   UNL     1      -0.807   8.007  21.624  0.00  0.00    +0.000 F 
ATOM     25  F   UNL     1       0.891   9.052  22.473  0.00  0.00    +0.000 F 
ATOM     26  F   UNL     1      -0.390  10.052  21.038  0.00  0.00    +0.000 F 
ENDBRANCH   6  23
TORSDOF 5
ENDMDL
MODEL 4
REMARK VINA RESULT:      -6.9      4.145      7.607
REMARK  Name = 
REMARK  7 active torsions:
REMARK  status: ('A' for Active; 'I' for Inactive)
REMARK    1  A    between atoms: C_1  and  N_2
REMARK    2  A    between atoms: N_2  and  C_3
REMARK    3  A    between atoms: N_2  and  C_4
REMARK    4  A    between atoms: C_4  and  C_5
REMARK    5  A    between atoms: C_5  and  O_6
REMARK    6  A    between atoms: N_10  and  C_11
REMARK    7  A    between atoms: C_16  and  C_17
REMARK                            x       y       z     vdW  Elec       q    Type
REMARK                         _______ _______ _______ _____ _____    ______ ____
ROOT
ATOM      1  C   UNL     1       1.984   8.076  19.362  0.00  0.00    +0.000 A 
ATOM      2  C   UNL     1       2.536   8.609  18.187  0.00  0.00    +0.000 A 
ATOM      3  C   UNL     1       3.252   7.810  17.329  0.00  0.00    +0.000 A 
ATOM      4  N   UNL     1       3.499   6.511  17.567  0.00  0.00    +0.000 NA
ATOM      5  C   UNL     1       3.008   5.948  18.673  0.00  0.00    +0.000 A 
ATOM      6  C   UNL     1       3.308   4.605  18.913  0.00  0.00    +0.000 A 
ATOM      7  C   UNL     1       2.833   3.950  20.065  0.00  0.00    +0.000 A 
ATOM      8  C   UNL     1       1.995   4.606  20.942  0.00  0.00    +0.000 A 
ATOM      9  C   UNL     1       1.649   5.925  20.676  0.00  0.00    +0.000 A 
ATOM     10  C   UNL     1       2.200   6.670  19.598  0.00  0.00    +0.000 A 
ENDROOT
BRANCH   1  15
ATOM     11  C   UNL     1      -0.334  10.814  20.314  0.00  0.00    +0.000 C 
ATOM     12  C   UNL     1      -0.493  10.497  21.806  0.00  0.00    +0.000 C 
ATOM     13  C   UNL     1      -0.296   9.012  22.080  0.00  0.00    +0.000 C 
ATOM     14  C   UNL     1       1.107   8.580  21.645  0.00  0.00    +0.000 C 
ATOM     15  N   UNL     1       1.343   8.959  20.240  0.00  0.00    +0.000 N 
ATOM     16  C   UNL     1       1.096  10.377  19.916  0.00  0.00    +0.000 C 
BRANCH  11  17
ATOM     17  O   UNL     1      -0.442  12.239  20.160  0.00  0.00    +0.000 OA
ATOM     18  H   UNL     1      -0.196  12.612  21.028  0.00  0.00    +0.000 HD
ENDBRANCH  11  17
BRANCH  11  19
ATOM     19  C   UNL     1      -1.313  10.128  19.305  0.00  0.00    +0.000 C 
BRANCH  19  21
ATOM     20  C   UNL     1      -1.922   9.985  16.998  0.00  0.00    +0.000 C 
ATOM     21  N   UNL     1      -1.837  10.905  18.150  0.00  0.00    +0.000 NA
ATOM     22  C   UNL     1      -3.162  11.459  18.387  0.00  0.00    +0.000 C 
ENDBRANCH  19  21
ENDBRANCH  11  19
ENDBRANCH   1  15
BRANCH   6  23
ATOM     23  C   UNL     1       4.128   3.781  17.953  0.00  0.00    +0.000 C 
ATOM     24  F   UNL     1       3.823   3.843  16.630  0.00  0.00    +0.000 F 
ATOM     25  F   UNL     1       5.457   4.100  18.030  0.00  0.00    +0.000 F 
ATOM     26  F   UNL     1       4.071   2.451  18.272  0.00  0.00    +0.000 F 
ENDBRANCH   6  23
TORSDOF 5
ENDMDL
MODEL 5
REMARK VINA RESULT:      -6.8      2.176      3.754
REMARK  Name = 
REMARK  7 active torsions:
REMARK  status: ('A' for Active; 'I' for Inactive)
REMARK    1  A    between atoms: C_1  and  N_2
REMARK    2  A    between atoms: N_2  and  C_3
REMARK    3  A    between atoms: N_2  and  C_4
REMARK    4  A    between atoms: C_4  and  C_5
REMARK    5  A    between atoms: C_5  and  O_6
REMARK    6  A    between atoms: N_10  and  C_11
REMARK    7  A    between atoms: C_16  and  C_17
REMARK                            x       y       z     vdW  Elec       q    Type
REMARK                         _______ _______ _______ _____ _____    ______ ____
ROOT
ATOM      1  C   UNL     1       2.173   7.473  19.035  0.00  0.00    +0.000 A 
ATOM      2  C   UNL     1       2.543   8.096  17.834  0.00  0.00    +0.000 A 
ATOM      3  C   UNL     1       2.232   9.414  17.607  0.00  0.00    +0.000 A 
ATOM      4  N   UNL     1       1.536  10.166  18.478  0.00  0.00    +0.000 NA
ATOM      5  C   UNL     1       1.147   9.628  19.635  0.00  0.00    +0.000 A 
ATOM      6  C   UNL     1       0.398  10.421  20.507  0.00  0.00    +0.000 A 
ATOM      7  C   UNL     1      -0.056   9.914  21.740  0.00  0.00    +0.000 A 
ATOM      8  C   UNL     1       0.300   8.645  22.143  0.00  0.00    +0.000 A 
ATOM      9  C   UNL     1       1.094   7.874  21.303  0.00  0.00    +0.000 A 
ATOM     10  C   UNL     1       1.472   8.288  19.997  0.00  0.00    +0.000 A 
ENDROOT
BRANCH   1  15
ATOM     11  C   UNL     1       4.208   4.380  18.777  0.00  0.00    +0.000 C 
ATOM     12  C   UNL     1       3.467   3.509  19.799  0.00  0.00    +0.000 C 
ATOM     13  C   UNL     1       2.804   4.361  20.874  0.00  0.00    +0.000 C 
ATOM     14  C   UNL     1       1.792   5.316  20.235  0.00  0.00    +0.000 C 
ATOM     15  N   UNL     1       2.439   6.105  19.170  0.00  0.00    +0.000 N 
ATOM     16  C   UNL     1       3.152   5.320  18.145  0.00  0.00    +0.000 C 
BRANCH  11  17
ATOM     17  O   UNL     1       4.720   3.508  17.755  0.00  0.00    +0.000 OA
ATOM     18  H   UNL     1       5.691   3.544  17.848  0.00  0.00    +0.000 HD
ENDBRANCH  11  17
BRANCH  11  19
ATOM     19  C   UNL     1       5.374   5.288  19.288  0.00  0.00    +0.000 C 
BRANCH  19  21
ATOM     20  C   UNL     1       6.377   6.588  17.551  0.00  0.00    +0.000 C 
ATOM     21  N   UNL     1       6.599   5.443  18.457  0.00  0.00    +0.000 NA
ATOM     22  C   UNL     1       7.793   5.713  19.246  0.00  0.00    +0.000 C 
ENDBRANCH  19  21
ENDBRANCH  11  19
ENDBRANCH   1  15
BRANCH   6  23
ATOM     23  C   UNL     1       0.053  11.854  20.194  0.00  0.00    +0.000 C 
ATOM     24  F   UNL     1       1.067  12.706  19.885  0.00  0.00    +0.000 F 
ATOM     25  F   UNL     1      -0.820  11.941  19.143  0.00  0.00    +0.000 F 
ATOM     26  F   UNL     1      -0.603  12.444  21.241  0.00  0.00    +0.000 F 
ENDBRANCH   6  23
TORSDOF 5
ENDMDL
MODEL 6
REMARK VINA RESULT:      -6.8      4.292      7.883
REMARK  Name = 
REMARK  7 active torsions:
REMARK  status: ('A' for Active; 'I' for Inactive)
REMARK    1  A    between atoms: C_1  and  N_2
REMARK    2  A    between atoms: N_2  and  C_3
REMARK    3  A    between atoms: N_2  and  C_4
REMARK    4  A    between atoms: C_4  and  C_5
REMARK    5  A    between atoms: C_5  and  O_6
REMARK    6  A    between atoms: N_10  and  C_11
REMARK    7  A    between atoms: C_16  and  C_17
REMARK                            x       y       z     vdW  Elec       q    Type
REMARK                         _______ _______ _______ _____ _____    ______ ____
ROOT
ATOM      1  C   UNL     1       0.935   9.542  19.756  0.00  0.00    +0.000 A 
ATOM      2  C   UNL     1       0.329   9.297  20.998  0.00  0.00    +0.000 A 
ATOM      3  C   UNL     1       0.524   8.102  21.644  0.00  0.00    +0.000 A 
ATOM      4  N   UNL     1       1.254   7.097  21.129  0.00  0.00    +0.000 NA
ATOM      5  C   UNL     1       1.849   7.266  19.946  0.00  0.00    +0.000 A 
ATOM      6  C   UNL     1       2.574   6.195  19.420  0.00  0.00    +0.000 A 
ATOM      7  C   UNL     1       3.217   6.298  18.171  0.00  0.00    +0.000 A 
ATOM      8  C   UNL     1       3.206   7.491  17.481  0.00  0.00    +0.000 A 
ATOM      9  C   UNL     1       2.533   8.576  18.029  0.00  0.00    +0.000 A 
ATOM     10  C   UNL     1       1.763   8.489  19.222  0.00  0.00    +0.000 A 
ENDROOT
BRANCH   1  15
ATOM     11  C   UNL     1      -1.286  12.059  18.171  0.00  0.00    +0.000 C 
ATOM     12  C   UNL     1      -0.378  13.291  18.275  0.00  0.00    +0.000 C 
ATOM     13  C   UNL     1       0.569  13.181  19.462  0.00  0.00    +0.000 C 
ATOM     14  C   UNL     1       1.457  11.944  19.311  0.00  0.00    +0.000 C 
ATOM     15  N   UNL     1       0.626  10.743  19.105  0.00  0.00    +0.000 N 
ATOM     16  C   UNL     1      -0.355  10.833  18.007  0.00  0.00    +0.000 C 
BRANCH  11  17
ATOM     17  O   UNL     1      -2.076  12.202  16.979  0.00  0.00    +0.000 OA
ATOM     18  H   UNL     1      -1.447  12.468  16.282  0.00  0.00    +0.000 HD
ENDBRANCH  11  17
BRANCH  11  19
ATOM     19  C   UNL     1      -2.242  11.743  19.368  0.00  0.00    +0.000 C 
BRANCH  19  21
ATOM     20  C   UNL     1      -4.415  12.590  19.890  0.00  0.00    +0.000 C 
ATOM     21  N   UNL     1      -2.970  12.855  20.036  0.00  0.00    +0.000 NA
ATOM     22  C   UNL     1      -2.670  12.961  21.458  0.00  0.00    +0.000 C 
ENDBRANCH  19  21
ENDBRANCH  11  19
ENDBRANCH   1  15
BRANCH   6  23
ATOM     23  C   UNL     1       2.728   4.889  20.157  0.00  0.00    +0.000 C 
ATOM     24  F   UNL     1       2.637   4.902  21.513  0.00  0.00    +0.000 F 
ATOM     25  F   UNL     1       1.801   3.970  19.745  0.00  0.00    +0.000 F 
ATOM     26  F   UNL     1       3.938   4.308  19.884  0.00  0.00    +0.000 F 
ENDBRANCH   6  23
TORSDOF 5
ENDMDL
MODEL 7
REMARK VINA RESULT:      -6.8      4.190      7.409
REMARK  Name = 
REMARK  7 active torsions:
REMARK  status: ('A' for Active; 'I' for Inactive)
REMARK    1  A    between atoms: C_1  and  N_2
REMARK    2  A    between atoms: N_2  and  C_3
REMARK    3  A    between atoms: N_2  and  C_4
REMARK    4  A    between atoms: C_4  and  C_5
REMARK    5  A    between atoms: C_5  and  O_6
REMARK    6  A    between atoms: N_10  and  C_11
REMARK    7  A    between atoms: C_16  and  C_17
REMARK                            x       y       z     vdW  Elec       q    Type
REMARK                         _______ _______ _______ _____ _____    ______ ____
ROOT
ATOM      1  C   UNL     1       2.231   7.517  19.031  0.00  0.00    +0.000 A 
ATOM      2  C   UNL     1       3.045   7.836  17.933  0.00  0.00    +0.000 A 
ATOM      3  C   UNL     1       3.715   6.849  17.252  0.00  0.00    +0.000 A 
ATOM      4  N   UNL     1       3.670   5.553  17.603  0.00  0.00    +0.000 NA
ATOM      5  C   UNL     1       2.921   5.187  18.645  0.00  0.00    +0.000 A 
ATOM      6  C   UNL     1       2.919   3.838  19.009  0.00  0.00    +0.000 A 
ATOM      7  C   UNL     1       2.160   3.383  20.104  0.00  0.00    +0.000 A 
ATOM      8  C   UNL     1       1.342   4.254  20.792  0.00  0.00    +0.000 A 
ATOM      9  C   UNL     1       1.298   5.585  20.397  0.00  0.00    +0.000 A 
ATOM     10  C   UNL     1       2.137   6.121  19.381  0.00  0.00    +0.000 A 
ENDROOT
BRANCH   1  15
ATOM     11  C   UNL     1       0.248  10.627  19.442  0.00  0.00    +0.000 C 
ATOM     12  C   UNL     1      -0.084  10.514  20.935  0.00  0.00    +0.000 C 
ATOM     13  C   UNL     1      -0.124   9.060  21.384  0.00  0.00    +0.000 C 
ATOM     14  C   UNL     1       1.237   8.401  21.145  0.00  0.00    +0.000 C 
ATOM     15  N   UNL     1       1.647   8.574  19.739  0.00  0.00    +0.000 N 
ATOM     16  C   UNL     1       1.632   9.963  19.242  0.00  0.00    +0.000 C 
BRANCH  11  17
ATOM     17  O   UNL     1       0.356  12.025  19.126  0.00  0.00    +0.000 OA
ATOM     18  H   UNL     1       1.282  12.156  18.847  0.00  0.00    +0.000 HD
ENDBRANCH  11  17
BRANCH  11  19
ATOM     19  C   UNL     1      -0.726   9.958  18.416  0.00  0.00    +0.000 C 
BRANCH  19  21
ATOM     20  C   UNL     1      -2.246   9.980  16.572  0.00  0.00    +0.000 C 
ATOM     21  N   UNL     1      -1.689  10.806  17.662  0.00  0.00    +0.000 NA
ATOM     22  C   UNL     1      -2.795  11.282  18.481  0.00  0.00    +0.000 C 
ENDBRANCH  19  21
ENDBRANCH  11  19
ENDBRANCH   1  15
BRANCH   6  23
ATOM     23  C   UNL     1       3.701   2.799  18.246  0.00  0.00    +0.000 C 
ATOM     24  F   UNL     1       4.747   3.214  17.483  0.00  0.00    +0.000 F 
ATOM     25  F   UNL     1       4.223   1.852  19.085  0.00  0.00    +0.000 F 
ATOM     26  F   UNL     1       2.890   2.100  17.393  0.00  0.00    +0.000 F 
ENDBRANCH   6  23
TORSDOF 5
ENDMDL
MODEL 8
REMARK VINA RESULT:      -6.7      0.771      1.019
REMARK  Name = 
REMARK  7 active torsions:
REMARK  status: ('A' for Active; 'I' for Inactive)
REMARK    1  A    between atoms: C_1  and  N_2
REMARK    2  A    between atoms: N_2  and  C_3
REMARK    3  A    between atoms: N_2  and  C_4
REMARK    4  A    between atoms: C_4  and  C_5
REMARK    5  A    between atoms: C_5  and  O_6
REMARK    6  A    between atoms: N_10  and  C_11
REMARK    7  A    between atoms: C_16  and  C_17
REMARK                            x       y       z     vdW  Elec       q    Type
REMARK                         _______ _______ _______ _____ _____    ______ ____
ROOT
ATOM      1  C   UNL     1       2.758   5.843  18.734  0.00  0.00    +0.000 A 
ATOM      2  C   UNL     1       2.557   5.016  19.850  0.00  0.00    +0.000 A 
ATOM      3  C   UNL     1       1.897   5.490  20.958  0.00  0.00    +0.000 A 
ATOM      4  N   UNL     1       1.446   6.752  21.062  0.00  0.00    +0.000 NA
ATOM      5  C   UNL     1       1.615   7.590  20.037  0.00  0.00    +0.000 A 
ATOM      6  C   UNL     1       1.167   8.904  20.184  0.00  0.00    +0.000 A 
ATOM      7  C   UNL     1       1.323   9.844  19.148  0.00  0.00    +0.000 A 
ATOM      8  C   UNL     1       1.854   9.460  17.935  0.00  0.00    +0.000 A 
ATOM      9  C   UNL     1       2.249   8.139  17.766  0.00  0.00    +0.000 A 
ATOM     10  C   UNL     1       2.230   7.182  18.818  0.00  0.00    +0.000 A 
ENDROOT
BRANCH   1  15
ATOM     11  C   UNL     1       5.829   5.303  16.721  0.00  0.00    +0.000 C 
ATOM     12  C   UNL     1       5.411   4.035  15.965  0.00  0.00    +0.000 C 
ATOM     13  C   UNL     1       4.406   3.220  16.768  0.00  0.00    +0.000 C 
ATOM     14  C   UNL     1       3.151   4.053  17.037  0.00  0.00    +0.000 C 
ATOM     15  N   UNL     1       3.516   5.333  17.672  0.00  0.00    +0.000 N 
ATOM     16  C   UNL     1       4.539   6.123  16.962  0.00  0.00    +0.000 C 
BRANCH  11  17
ATOM     17  O   UNL     1       6.700   6.054  15.858  0.00  0.00    +0.000 OA
ATOM     18  H   UNL     1       7.536   5.551  15.833  0.00  0.00    +0.000 HD
ENDBRANCH  11  17
BRANCH  11  19
ATOM     19  C   UNL     1       6.526   5.138  18.111  0.00  0.00    +0.000 C 
BRANCH  19  21
ATOM     20  C   UNL     1       7.694   7.224  18.092  0.00  0.00    +0.000 C 
ATOM     21  N   UNL     1       7.849   5.777  18.347  0.00  0.00    +0.000 NA
ATOM     22  C   UNL     1       8.332   5.605  19.710  0.00  0.00    +0.000 C 
ENDBRANCH  19  21
ENDBRANCH  11  19
ENDBRANCH   1  15
BRANCH   6  23
ATOM     23  C   UNL     1       0.478   9.382  21.437  0.00  0.00    +0.000 C 
ATOM     24  F   UNL     1      -0.601   8.686  21.882  0.00  0.00    +0.000 F 
ATOM     25  F   UNL     1       1.341   9.422  22.498  0.00  0.00    +0.000 F 
ATOM     26  F   UNL     1       0.040  10.672  21.297  0.00  0.00    +0.000 F 
ENDBRANCH   6  23
TORSDOF 5
ENDMDL
MODEL 9
REMARK VINA RESULT:      -6.7      2.379      3.965
REMARK  Name = 
REMARK  7 active torsions:
REMARK  status: ('A' for Active; 'I' for Inactive)
REMARK    1  A    between atoms: C_1  and  N_2
REMARK    2  A    between atoms: N_2  and  C_3
REMARK    3  A    between atoms: N_2  and  C_4
REMARK    4  A    between atoms: C_4  and  C_5
REMARK    5  A    between atoms: C_5  and  O_6
REMARK    6  A    between atoms: N_10  and  C_11
REMARK    7  A    between atoms: C_16  and  C_17
REMARK                            x       y       z     vdW  Elec       q    Type
REMARK                         _______ _______ _______ _____ _____    ______ ____
ROOT
ATOM      1  C   UNL     1       2.207   7.405  18.934  0.00  0.00    +0.000 A 
ATOM      2  C   UNL     1       2.656   8.078  17.787  0.00  0.00    +0.000 A 
ATOM      3  C   UNL     1       2.375   9.409  17.606  0.00  0.00    +0.000 A 
ATOM      4  N   UNL     1       1.639  10.130  18.470  0.00  0.00    +0.000 NA
ATOM      5  C   UNL     1       1.175   9.545  19.576  0.00  0.00    +0.000 A 
ATOM      6  C   UNL     1       0.386  10.308  20.439  0.00  0.00    +0.000 A 
ATOM      7  C   UNL     1      -0.146   9.751  21.618  0.00  0.00    +0.000 A 
ATOM      8  C   UNL     1       0.170   8.459  21.980  0.00  0.00    +0.000 A 
ATOM      9  C   UNL     1       1.002   7.716  21.152  0.00  0.00    +0.000 A 
ATOM     10  C   UNL     1       1.462   8.185  19.891  0.00  0.00    +0.000 A 
ENDROOT
BRANCH   1  15
ATOM     11  C   UNL     1       3.068   4.034  17.641  0.00  0.00    +0.000 C 
ATOM     12  C   UNL     1       3.503   3.369  18.952  0.00  0.00    +0.000 C 
ATOM     13  C   UNL     1       4.047   4.394  19.938  0.00  0.00    +0.000 C 
ATOM     14  C   UNL     1       2.971   5.432  20.262  0.00  0.00    +0.000 C 
ATOM     15  N   UNL     1       2.447   6.028  19.019  0.00  0.00    +0.000 N 
ATOM     16  C   UNL     1       1.973   5.065  18.007  0.00  0.00    +0.000 C 
BRANCH  11  17
ATOM     17  O   UNL     1       2.485   3.016  16.810  0.00  0.00    +0.000 OA
ATOM     18  H   UNL     1       3.229   2.447  16.537  0.00  0.00    +0.000 HD
ENDBRANCH  11  17
BRANCH  11  19
ATOM     19  C   UNL     1       4.148   4.799  16.807  0.00  0.00    +0.000 C 
BRANCH  19  21
ATOM     20  C   UNL     1       5.560   4.294  14.946  0.00  0.00    +0.000 C 
ATOM     21  N   UNL     1       5.392   4.093  16.399  0.00  0.00    +0.000 NA
ATOM     22  C   UNL     1       6.583   4.600  17.068  0.00  0.00    +0.000 C 
ENDBRANCH  19  21
ENDBRANCH  11  19
ENDBRANCH   1  15
BRANCH   6  23
ATOM     23  C   UNL     1       0.079  11.759  20.175  0.00  0.00    +0.000 C 
ATOM     24  F   UNL     1      -0.483  12.091  18.982  0.00  0.00    +0.000 F 
ATOM     25  F   UNL     1      -0.765  12.272  21.123  0.00  0.00    +0.000 F 
ATOM     26  F   UNL     1       1.209  12.527  20.265  0.00  0.00    +0.000 F 
ENDBRANCH   6  23
TORSDOF 5
ENDMDL
