MODEL 1
REMARK VINA RESULT:      -8.0      0.000      0.000
REMARK  Name = 
REMARK  10 active torsions:
REMARK  status: ('A' for Active; 'I' for Inactive)
REMARK    1  A    between atoms: C_1  and  O_2
REMARK    2  A    between atoms: O_2  and  C_3
REMARK    3  A    between atoms: C_5  and  N_6
REMARK    4  A    between atoms: C_7  and  C_9
REMARK    5  A    between atoms: C_12  and  C_13
REMARK    6  A    between atoms: C_17  and  N_18
REMARK    7  A    between atoms: C_25  and  N_26
REMARK    8  A    between atoms: C_27  and  C_29
REMARK    9  A    between atoms: C_29  and  C_30
REMARK   10  A    between atoms: C_29  and  C_31
REMARK                            x       y       z     vdW  Elec       q    Type
REMARK                         _______ _______ _______ _____ _____    ______ ____
ROOT
ATOM      1  N   UNL     1       3.186   7.215  18.604  0.00  0.00    +0.000 N 
ATOM      2  C   UNL     1       2.986   5.930  18.120  0.00  0.00    +0.000 C 
ATOM      3  O   UNL     1       1.907   5.352  18.071  0.00  0.00    +0.000 OA
ATOM      4  H   UNL     1       4.110   7.604  18.464  0.00  0.00    +0.000 HD
ENDROOT
BRANCH   1   7
ATOM      5  C   UNL     1       0.720   9.997  19.153  0.00  0.00    +0.000 A 
ATOM      6  C   UNL     1       1.669   9.156  18.550  0.00  0.00    +0.000 A 
ATOM      7  C   UNL     1       2.207   8.044  19.194  0.00  0.00    +0.000 A 
ATOM      8  C   UNL     1       1.731   7.737  20.466  0.00  0.00    +0.000 A 
ATOM      9  C   UNL     1       0.751   8.535  21.068  0.00  0.00    +0.000 A 
ATOM     10  C   UNL     1       0.224   9.677  20.435  0.00  0.00    +0.000 A 
BRANCH  10  11
ATOM     11  N   UNL     1      -0.799  10.467  21.039  0.00  0.00    +0.000 N 
ATOM     12  C   UNL     1      -0.590  11.621  21.778  0.00  0.00    +0.000 C 
ATOM     13  O   UNL     1       0.491  12.205  21.884  0.00  0.00    +0.000 OA
ATOM     14  H   UNL     1      -1.747  10.183  20.817  0.00  0.00    +0.000 HD
BRANCH  12  15
ATOM     15  C   UNL     1      -1.795  12.205  22.517  0.00  0.00    +0.000 C 
ATOM     16  C   UNL     1      -1.436  13.384  23.408  0.00  0.00    +0.000 C 
ATOM     17  C   UNL     1      -2.944  12.539  21.575  0.00  0.00    +0.000 C 
ENDBRANCH  12  15
ENDBRANCH  10  11
BRANCH   5  19
ATOM     18  C   UNL     1       1.217  12.217  18.503  0.00  0.00    +0.000 C 
ATOM     19  O   UNL     1       0.264  11.139  18.528  0.00  0.00    +0.000 OA
ENDBRANCH   5  19
ENDBRANCH   1   7
BRANCH   2  20
ATOM     20  C   UNL     1       4.188   5.287  17.615  0.00  0.00    +0.000 A 
ATOM     21  C   UNL     1       5.158   4.571  18.286  0.00  0.00    +0.000 A 
ATOM     22  C   UNL     1       6.088   4.138  17.315  0.00  0.00    +0.000 A 
ATOM     23  C   UNL     1       5.638   4.616  16.098  0.00  0.00    +0.000 A 
ATOM     24  O   UNL     1       4.485   5.329  16.284  0.00  0.00    +0.000 OA
BRANCH  23  25
ATOM     25  C   UNL     1       6.099   4.487  14.719  0.00  0.00    +0.000 A 
ATOM     26  C   UNL     1       7.247   5.166  14.279  0.00  0.00    +0.000 A 
ATOM     27  C   UNL     1       7.722   5.009  12.973  0.00  0.00    +0.000 A 
ATOM     28  C   UNL     1       7.057   4.167  12.083  0.00  0.00    +0.000 A 
ATOM     29  C   UNL     1       5.905   3.495  12.508  0.00  0.00    +0.000 A 
ATOM     30  C   UNL     1       5.423   3.657  13.814  0.00  0.00    +0.000 A 
BRANCH  29  31
ATOM     31  N   UNL     1       5.201   2.598  11.586  0.00  0.00    +0.000 N 
ATOM     32  O   UNL     1       5.764   1.541  11.269  0.00  0.00    +0.000 OA
ATOM     33  O   UNL     1       4.083   2.948  11.180  0.00  0.00    +0.000 OA
ENDBRANCH  29  31
ENDBRANCH  23  25
ENDBRANCH   2  20
TORSDOF 7
ENDMDL
MODEL 2
REMARK VINA RESULT:      -7.9      4.160      5.875
REMARK  Name = 
REMARK  10 active torsions:
REMARK  status: ('A' for Active; 'I' for Inactive)
REMARK    1  A    between atoms: C_1  and  O_2
REMARK    2  A    between atoms: O_2  and  C_3
REMARK    3  A    between atoms: C_5  and  N_6
REMARK    4  A    between atoms: C_7  and  C_9
REMARK    5  A    between atoms: C_12  and  C_13
REMARK    6  A    between atoms: C_17  and  N_18
REMARK    7  A    between atoms: C_25  and  N_26
REMARK    8  A    between atoms: C_27  and  C_29
REMARK    9  A    between atoms: C_29  and  C_30
REMARK   10  A    between atoms: C_29  and  C_31
REMARK                            x       y       z     vdW  Elec       q    Type
REMARK                         _______ _______ _______ _____ _____    ______ ____
ROOT
ATOM      1  N   UNL     1       0.166   9.431  19.109  0.00  0.00    +0.000 N 
ATOM      2  C   UNL     1       1.398   9.621  18.500  0.00  0.00    +0.000 C 
ATOM      3  O   UNL     1       1.838  10.698  18.114  0.00  0.00    +0.000 OA
ATOM      4  H   UNL     1      -0.006   8.507  19.486  0.00  0.00    +0.000 HD
ENDROOT
BRANCH   1   7
ATOM      5  C   UNL     1      -2.878  11.587  18.659  0.00  0.00    +0.000 A 
ATOM      6  C   UNL     1      -1.915  10.583  18.468  0.00  0.00    +0.000 A 
ATOM      7  C   UNL     1      -0.822  10.418  19.316  0.00  0.00    +0.000 A 
ATOM      8  C   UNL     1      -0.726  11.257  20.423  0.00  0.00    +0.000 A 
ATOM      9  C   UNL     1      -1.700  12.235  20.658  0.00  0.00    +0.000 A 
ATOM     10  C   UNL     1      -2.791  12.427  19.790  0.00  0.00    +0.000 A 
BRANCH  10  11
ATOM     11  N   UNL     1      -3.798  13.402  20.054  0.00  0.00    +0.000 N 
ATOM     12  C   UNL     1      -4.918  13.205  20.848  0.00  0.00    +0.000 C 
ATOM     13  O   UNL     1      -5.116  12.214  21.554  0.00  0.00    +0.000 OA
ATOM     14  H   UNL     1      -3.604  14.328  19.689  0.00  0.00    +0.000 HD
BRANCH  12  15
ATOM     15  C   UNL     1      -5.984  14.302  20.837  0.00  0.00    +0.000 C 
ATOM     16  C   UNL     1      -7.386  13.770  20.588  0.00  0.00    +0.000 C 
ATOM     17  C   UNL     1      -5.925  15.177  22.082  0.00  0.00    +0.000 C 
ENDBRANCH  12  15
ENDBRANCH  10  11
BRANCH   5  19
ATOM     18  C   UNL     1      -3.768  11.041  16.536  0.00  0.00    +0.000 C 
ATOM     19  O   UNL     1      -3.906  11.784  17.761  0.00  0.00    +0.000 OA
ENDBRANCH   5  19
ENDBRANCH   1   7
BRANCH   2  20
ATOM     20  C   UNL     1       2.195   8.413  18.371  0.00  0.00    +0.000 A 
ATOM     21  C   UNL     1       3.245   8.132  17.520  0.00  0.00    +0.000 A 
ATOM     22  C   UNL     1       3.683   6.825  17.834  0.00  0.00    +0.000 A 
ATOM     23  C   UNL     1       2.873   6.374  18.860  0.00  0.00    +0.000 A 
ATOM     24  O   UNL     1       1.956   7.340  19.177  0.00  0.00    +0.000 OA
BRANCH  23  25
ATOM     25  C   UNL     1       2.826   5.154  19.660  0.00  0.00    +0.000 A 
ATOM     26  C   UNL     1       1.975   5.058  20.772  0.00  0.00    +0.000 A 
ATOM     27  C   UNL     1       1.887   3.876  21.514  0.00  0.00    +0.000 A 
ATOM     28  C   UNL     1       2.652   2.767  21.155  0.00  0.00    +0.000 A 
ATOM     29  C   UNL     1       3.513   2.856  20.056  0.00  0.00    +0.000 A 
ATOM     30  C   UNL     1       3.606   4.042  19.315  0.00  0.00    +0.000 A 
BRANCH  29  31
ATOM     31  N   UNL     1       4.315   1.693  19.659  0.00  0.00    +0.000 N 
ATOM     32  O   UNL     1       5.262   1.371  20.389  0.00  0.00    +0.000 OA
ATOM     33  O   UNL     1       3.996   1.100  18.619  0.00  0.00    +0.000 OA
ENDBRANCH  29  31
ENDBRANCH  23  25
ENDBRANCH   2  20
TORSDOF 7
ENDMDL
MODEL 3
REMARK VINA RESULT:      -7.9      0.748      1.193
REMARK  Name = 
REMARK  10 active torsions:
REMARK  status: ('A' for Active; 'I' for Inactive)
REMARK    1  A    between atoms: C_1  and  O_2
REMARK    2  A    between atoms: O_2  and  C_3
REMARK    3  A    between atoms: C_5  and  N_6
REMARK    4  A    between atoms: C_7  and  C_9
REMARK    5  A    between atoms: C_12  and  C_13
REMARK    6  A    between atoms: C_17  and  N_18
REMARK    7  A    between atoms: C_25  and  N_26
REMARK    8  A    between atoms: C_27  and  C_29
REMARK    9  A    between atoms: C_29  and  C_30
REMARK   10  A    between atoms: C_29  and  C_31
REMARK                            x       y       z     vdW  Elec       q    Type
REMARK                         _______ _______ _______ _____ _____    ______ ____
ROOT
ATOM      1  N   UNL     1       3.194   7.291  18.275  0.00  0.00    +0.000 N 
ATOM      2  C   UNL     1       3.154   5.906  18.201  0.00  0.00    +0.000 C 
ATOM      3  O   UNL     1       2.201   5.207  18.528  0.00  0.00    +0.000 OA
ATOM      4  H   UNL     1       3.999   7.735  17.853  0.00  0.00    +0.000 HD
ENDROOT
BRANCH   1   7
ATOM      5  C   UNL     1       0.406   9.795  18.556  0.00  0.00    +0.000 A 
ATOM      6  C   UNL     1       1.383   8.942  18.017  0.00  0.00    +0.000 A 
ATOM      7  C   UNL     1       2.188   8.126  18.810  0.00  0.00    +0.000 A 
ATOM      8  C   UNL     1       1.964   8.129  20.184  0.00  0.00    +0.000 A 
ATOM      9  C   UNL     1       0.964   8.938  20.737  0.00  0.00    +0.000 A 
ATOM     10  C   UNL     1       0.167   9.786  19.946  0.00  0.00    +0.000 A 
BRANCH  10  11
ATOM     11  N   UNL     1      -0.873  10.582  20.513  0.00  0.00    +0.000 N 
ATOM     12  C   UNL     1      -0.745  11.904  20.911  0.00  0.00    +0.000 C 
ATOM     13  O   UNL     1       0.238  12.616  20.691  0.00  0.00    +0.000 OA
ATOM     14  H   UNL     1      -1.788  10.145  20.528  0.00  0.00    +0.000 HD
BRANCH  12  15
ATOM     15  C   UNL     1      -1.913  12.517  21.685  0.00  0.00    +0.000 C 
ATOM     16  C   UNL     1      -3.189  12.616  20.864  0.00  0.00    +0.000 C 
ATOM     17  C   UNL     1      -2.152  11.818  23.018  0.00  0.00    +0.000 C 
ENDBRANCH  12  15
ENDBRANCH  10  11
BRANCH   5  19
ATOM     18  C   UNL     1      -1.542  10.088  17.246  0.00  0.00    +0.000 C 
ATOM     19  O   UNL     1      -0.322  10.654  17.760  0.00  0.00    +0.000 OA
ENDBRANCH   5  19
ENDBRANCH   1   7
BRANCH   2  20
ATOM     20  C   UNL     1       4.355   5.300  17.652  0.00  0.00    +0.000 A 
ATOM     21  C   UNL     1       5.377   4.626  18.290  0.00  0.00    +0.000 A 
ATOM     22  C   UNL     1       6.281   4.216  17.284  0.00  0.00    +0.000 A 
ATOM     23  C   UNL     1       5.765   4.665  16.083  0.00  0.00    +0.000 A 
ATOM     24  O   UNL     1       4.596   5.339  16.311  0.00  0.00    +0.000 OA
BRANCH  23  25
ATOM     25  C   UNL     1       6.173   4.538  14.688  0.00  0.00    +0.000 A 
ATOM     26  C   UNL     1       7.286   5.240  14.198  0.00  0.00    +0.000 A 
ATOM     27  C   UNL     1       7.713   5.086  12.875  0.00  0.00    +0.000 A 
ATOM     28  C   UNL     1       7.031   4.224  12.017  0.00  0.00    +0.000 A 
ATOM     29  C   UNL     1       5.913   3.529  12.491  0.00  0.00    +0.000 A 
ATOM     30  C   UNL     1       5.481   3.687  13.814  0.00  0.00    +0.000 A 
BRANCH  29  31
ATOM     31  N   UNL     1       5.193   2.609  11.603  0.00  0.00    +0.000 N 
ATOM     32  O   UNL     1       4.089   2.970  11.173  0.00  0.00    +0.000 OA
ATOM     33  O   UNL     1       5.733   1.527  11.332  0.00  0.00    +0.000 OA
ENDBRANCH  29  31
ENDBRANCH  23  25
ENDBRANCH   2  20
TORSDOF 7
ENDMDL
MODEL 4
REMARK VINA RESULT:      -7.8      4.365      5.818
REMARK  Name = 
REMARK  10 active torsions:
REMARK  status: ('A' for Active; 'I' for Inactive)
REMARK    1  A    between atoms: C_1  and  O_2
REMARK    2  A    between atoms: O_2  and  C_3
REMARK    3  A    between atoms: C_5  and  N_6
REMARK    4  A    between atoms: C_7  and  C_9
REMARK    5  A    between atoms: C_12  and  C_13
REMARK    6  A    between atoms: C_17  and  N_18
REMARK    7  A    between atoms: C_25  and  N_26
REMARK    8  A    between atoms: C_27  and  C_29
REMARK    9  A    between atoms: C_29  and  C_30
REMARK   10  A    between atoms: C_29  and  C_31
REMARK                            x       y       z     vdW  Elec       q    Type
REMARK                         _______ _______ _______ _____ _____    ______ ____
ROOT
ATOM      1  N   UNL     1       0.492   9.239  18.786  0.00  0.00    +0.000 N 
ATOM      2  C   UNL     1       1.733   9.437  18.197  0.00  0.00    +0.000 C 
ATOM      3  O   UNL     1       2.210  10.526  17.901  0.00  0.00    +0.000 OA
ATOM      4  H   UNL     1       0.288   8.294  19.086  0.00  0.00    +0.000 HD
ENDROOT
BRANCH   1   7
ATOM      5  C   UNL     1      -2.513  11.482  18.543  0.00  0.00    +0.000 A 
ATOM      6  C   UNL     1      -1.583  10.464  18.274  0.00  0.00    +0.000 A 
ATOM      7  C   UNL     1      -0.463  10.239  19.072  0.00  0.00    +0.000 A 
ATOM      8  C   UNL     1      -0.305  11.028  20.208  0.00  0.00    +0.000 A 
ATOM      9  C   UNL     1      -1.246  12.017  20.520  0.00  0.00    +0.000 A 
ATOM     10  C   UNL     1      -2.364  12.270  19.704  0.00  0.00    +0.000 A 
BRANCH  10  11
ATOM     11  N   UNL     1      -3.336  13.256  20.046  0.00  0.00    +0.000 N 
ATOM     12  C   UNL     1      -4.257  13.151  21.077  0.00  0.00    +0.000 C 
ATOM     13  O   UNL     1      -4.260  12.263  21.932  0.00  0.00    +0.000 OA
ATOM     14  H   UNL     1      -3.263  14.127  19.532  0.00  0.00    +0.000 HD
BRANCH  12  15
ATOM     15  C   UNL     1      -5.349  14.219  21.150  0.00  0.00    +0.000 C 
ATOM     16  C   UNL     1      -6.737  13.641  21.377  0.00  0.00    +0.000 C 
ATOM     17  C   UNL     1      -5.021  15.312  22.160  0.00  0.00    +0.000 C 
ENDBRANCH  12  15
ENDBRANCH  10  11
BRANCH   5  19
ATOM     18  C   UNL     1      -4.603  10.738  17.719  0.00  0.00    +0.000 C 
ATOM     19  O   UNL     1      -3.569  11.739  17.694  0.00  0.00    +0.000 OA
ENDBRANCH   5  19
ENDBRANCH   1   7
BRANCH   2  20
ATOM     20  C   UNL     1       2.489   8.217  17.970  0.00  0.00    +0.000 A 
ATOM     21  C   UNL     1       3.740   8.041  17.414  0.00  0.00    +0.000 A 
ATOM     22  C   UNL     1       4.015   6.656  17.463  0.00  0.00    +0.000 A 
ATOM     23  C   UNL     1       2.914   6.056  18.045  0.00  0.00    +0.000 A 
ATOM     24  O   UNL     1       1.977   7.009  18.342  0.00  0.00    +0.000 OA
BRANCH  23  25
ATOM     25  C   UNL     1       2.581   4.687  18.425  0.00  0.00    +0.000 A 
ATOM     26  C   UNL     1       2.368   3.702  17.447  0.00  0.00    +0.000 A 
ATOM     27  C   UNL     1       2.098   2.377  17.803  0.00  0.00    +0.000 A 
ATOM     28  C   UNL     1       2.036   2.013  19.148  0.00  0.00    +0.000 A 
ATOM     29  C   UNL     1       2.234   2.989  20.131  0.00  0.00    +0.000 A 
ATOM     30  C   UNL     1       2.499   4.319  19.775  0.00  0.00    +0.000 A 
BRANCH  29  31
ATOM     31  N   UNL     1       2.183   2.619  21.549  0.00  0.00    +0.000 N 
ATOM     32  O   UNL     1       3.212   2.156  22.060  0.00  0.00    +0.000 OA
ATOM     33  O   UNL     1       1.115   2.794  22.153  0.00  0.00    +0.000 OA
ENDBRANCH  29  31
ENDBRANCH  23  25
ENDBRANCH   2  20
TORSDOF 7
ENDMDL
MODEL 5
REMARK VINA RESULT:      -7.8      1.206      1.817
REMARK  Name = 
REMARK  10 active torsions:
REMARK  status: ('A' for Active; 'I' for Inactive)
REMARK    1  A    between atoms: C_1  and  O_2
REMARK    2  A    between atoms: O_2  and  C_3
REMARK    3  A    between atoms: C_5  and  N_6
REMARK    4  A    between atoms: C_7  and  C_9
REMARK    5  A    between atoms: C_12  and  C_13
REMARK    6  A    between atoms: C_17  and  N_18
REMARK    7  A    between atoms: C_25  and  N_26
REMARK    8  A    between atoms: C_27  and  C_29
REMARK    9  A    between atoms: C_29  and  C_30
REMARK   10  A    between atoms: C_29  and  C_31
REMARK                            x       y       z     vdW  Elec       q    Type
REMARK                         _______ _______ _______ _____ _____    ______ ____
ROOT
ATOM      1  N   UNL     1       3.305   7.356  18.048  0.00  0.00    +0.000 N 
ATOM      2  C   UNL     1       3.385   5.972  18.102  0.00  0.00    +0.000 C 
ATOM      3  O   UNL     1       2.518   5.231  18.550  0.00  0.00    +0.000 OA
ATOM      4  H   UNL     1       4.043   7.824  17.537  0.00  0.00    +0.000 HD
ENDROOT
BRANCH   1   7
ATOM      5  C   UNL     1       0.769   8.837  20.392  0.00  0.00    +0.000 A 
ATOM      6  C   UNL     1       1.831   8.068  19.889  0.00  0.00    +0.000 A 
ATOM      7  C   UNL     1       2.260   8.152  18.566  0.00  0.00    +0.000 A 
ATOM      8  C   UNL     1       1.636   9.082  17.739  0.00  0.00    +0.000 A 
ATOM      9  C   UNL     1       0.606   9.892  18.233  0.00  0.00    +0.000 A 
ATOM     10  C   UNL     1       0.148   9.792  19.560  0.00  0.00    +0.000 A 
BRANCH  10  11
ATOM     11  N   UNL     1      -0.878  10.644  20.066  0.00  0.00    +0.000 N 
ATOM     12  C   UNL     1      -1.059  11.974  19.721  0.00  0.00    +0.000 C 
ATOM     13  O   UNL     1      -0.454  12.558  18.818  0.00  0.00    +0.000 OA
ATOM     14  H   UNL     1      -1.565  10.185  20.654  0.00  0.00    +0.000 HD
BRANCH  12  15
ATOM     15  C   UNL     1      -2.084  12.773  20.528  0.00  0.00    +0.000 C 
ATOM     16  C   UNL     1      -1.703  14.235  20.698  0.00  0.00    +0.000 C 
ATOM     17  C   UNL     1      -3.497  12.617  19.981  0.00  0.00    +0.000 C 
ENDBRANCH  12  15
ENDBRANCH  10  11
BRANCH   5  19
ATOM     18  C   UNL     1       1.128   9.310  22.683  0.00  0.00    +0.000 C 
ATOM     19  O   UNL     1       0.308   8.678  21.682  0.00  0.00    +0.000 OA
ENDBRANCH   5  19
ENDBRANCH   1   7
BRANCH   2  20
ATOM     20  C   UNL     1       4.604   5.420  17.536  0.00  0.00    +0.000 A 
ATOM     21  C   UNL     1       5.699   4.863  18.165  0.00  0.00    +0.000 A 
ATOM     22  C   UNL     1       6.587   4.454  17.146  0.00  0.00    +0.000 A 
ATOM     23  C   UNL     1       5.989   4.785  15.944  0.00  0.00    +0.000 A 
ATOM     24  O   UNL     1       4.783   5.388  16.185  0.00  0.00    +0.000 OA
BRANCH  23  25
ATOM     25  C   UNL     1       6.345   4.596  14.542  0.00  0.00    +0.000 A 
ATOM     26  C   UNL     1       7.442   5.271  13.983  0.00  0.00    +0.000 A 
ATOM     27  C   UNL     1       7.820   5.057  12.653  0.00  0.00    +0.000 A 
ATOM     28  C   UNL     1       7.104   4.163  11.858  0.00  0.00    +0.000 A 
ATOM     29  C   UNL     1       6.002   3.495  12.401  0.00  0.00    +0.000 A 
ATOM     30  C   UNL     1       5.618   3.713  13.732  0.00  0.00    +0.000 A 
BRANCH  29  31
ATOM     31  N   UNL     1       5.246   2.542  11.580  0.00  0.00    +0.000 N 
ATOM     32  O   UNL     1       5.769   1.445  11.344  0.00  0.00    +0.000 OA
ATOM     33  O   UNL     1       4.129   2.891  11.173  0.00  0.00    +0.000 OA
ENDBRANCH  29  31
ENDBRANCH  23  25
ENDBRANCH   2  20
TORSDOF 7
ENDMDL
MODEL 6
REMARK VINA RESULT:      -7.8      2.478     11.680
REMARK  Name = 
REMARK  10 active torsions:
REMARK  status: ('A' for Active; 'I' for Inactive)
REMARK    1  A    between atoms: C_1  and  O_2
REMARK    2  A    between atoms: O_2  and  C_3
REMARK    3  A    between atoms: C_5  and  N_6
REMARK    4  A    between atoms: C_7  and  C_9
REMARK    5  A    between atoms: C_12  and  C_13
REMARK    6  A    between atoms: C_17  and  N_18
REMARK    7  A    between atoms: C_25  and  N_26
REMARK    8  A    between atoms: C_27  and  C_29
REMARK    9  A    between atoms: C_29  and  C_30
REMARK   10  A    between atoms: C_29  and  C_31
REMARK                            x       y       z     vdW  Elec       q    Type
REMARK                         _______ _______ _______ _____ _____    ______ ____
ROOT
ATOM      1  N   UNL     1       2.209   7.415  19.715  0.00  0.00    +0.000 N 
ATOM      2  C   UNL     1       1.590   8.649  19.580  0.00  0.00    +0.000 C 
ATOM      3  O   UNL     1       1.520   9.297  18.542  0.00  0.00    +0.000 OA
ATOM      4  H   UNL     1       2.076   6.945  20.601  0.00  0.00    +0.000 HD
ENDROOT
BRANCH   1   7
ATOM      5  C   UNL     1       3.526   4.687  17.491  0.00  0.00    +0.000 A 
ATOM      6  C   UNL     1       2.781   5.369  18.467  0.00  0.00    +0.000 A 
ATOM      7  C   UNL     1       2.932   6.732  18.712  0.00  0.00    +0.000 A 
ATOM      8  C   UNL     1       3.821   7.443  17.910  0.00  0.00    +0.000 A 
ATOM      9  C   UNL     1       4.540   6.791  16.900  0.00  0.00    +0.000 A 
ATOM     10  C   UNL     1       4.415   5.409  16.666  0.00  0.00    +0.000 A 
BRANCH  10  11
ATOM     11  N   UNL     1       5.124   4.758  15.613  0.00  0.00    +0.000 N 
ATOM     12  C   UNL     1       6.443   5.004  15.263  0.00  0.00    +0.000 C 
ATOM     13  O   UNL     1       7.225   5.706  15.908  0.00  0.00    +0.000 OA
ATOM     14  H   UNL     1       4.624   3.999  15.164  0.00  0.00    +0.000 HD
BRANCH  12  15
ATOM     15  C   UNL     1       6.956   4.358  13.975  0.00  0.00    +0.000 C 
ATOM     16  C   UNL     1       5.856   3.701  13.156  0.00  0.00    +0.000 C 
ATOM     17  C   UNL     1       7.787   5.321  13.136  0.00  0.00    +0.000 C 
ENDBRANCH  12  15
ENDBRANCH  10  11
BRANCH   5  19
ATOM     18  C   UNL     1       3.809   2.554  18.475  0.00  0.00    +0.000 C 
ATOM     19  O   UNL     1       3.420   3.323  17.321  0.00  0.00    +0.000 OA
ENDBRANCH   5  19
ENDBRANCH   1   7
BRANCH   2  20
ATOM     20  C   UNL     1       0.963   9.140  20.796  0.00  0.00    +0.000 A 
ATOM     21  C   UNL     1       1.011   8.638  22.082  0.00  0.00    +0.000 A 
ATOM     22  C   UNL     1       0.253   9.517  22.888  0.00  0.00    +0.000 A 
ATOM     23  C   UNL     1      -0.222  10.511  22.051  0.00  0.00    +0.000 A 
ATOM     24  O   UNL     1       0.201  10.271  20.771  0.00  0.00    +0.000 OA
BRANCH  23  25
ATOM     25  C   UNL     1      -1.008  11.723  22.252  0.00  0.00    +0.000 A 
ATOM     26  C   UNL     1      -0.650  12.924  21.620  0.00  0.00    +0.000 A 
ATOM     27  C   UNL     1      -1.428  14.078  21.768  0.00  0.00    +0.000 A 
ATOM     28  C   UNL     1      -2.579  14.048  22.553  0.00  0.00    +0.000 A 
ATOM     29  C   UNL     1      -2.938  12.860  23.198  0.00  0.00    +0.000 A 
ATOM     30  C   UNL     1      -2.157  11.705  23.056  0.00  0.00    +0.000 A 
BRANCH  29  31
ATOM     31  N   UNL     1      -4.154  12.811  24.018  0.00  0.00    +0.000 N 
ATOM     32  O   UNL     1      -4.942  13.763  23.936  0.00  0.00    +0.000 OA
ATOM     33  O   UNL     1      -4.322  11.819  24.741  0.00  0.00    +0.000 OA
ENDBRANCH  29  31
ENDBRANCH  23  25
ENDBRANCH   2  20
TORSDOF 7
ENDMDL
MODEL 7
REMARK VINA RESULT:      -7.8      4.331      5.995
REMARK  Name = 
REMARK  10 active torsions:
REMARK  status: ('A' for Active; 'I' for Inactive)
REMARK    1  A    between atoms: C_1  and  O_2
REMARK    2  A    between atoms: O_2  and  C_3
REMARK    3  A    between atoms: C_5  and  N_6
REMARK    4  A    between atoms: C_7  and  C_9
REMARK    5  A    between atoms: C_12  and  C_13
REMARK    6  A    between atoms: C_17  and  N_18
REMARK    7  A    between atoms: C_25  and  N_26
REMARK    8  A    between atoms: C_27  and  C_29
REMARK    9  A    between atoms: C_29  and  C_30
REMARK   10  A    between atoms: C_29  and  C_31
REMARK                            x       y       z     vdW  Elec       q    Type
REMARK                         _______ _______ _______ _____ _____    ______ ____
ROOT
ATOM      1  N   UNL     1       0.335   9.296  18.862  0.00  0.00    +0.000 N 
ATOM      2  C   UNL     1       1.599   9.527  18.339  0.00  0.00    +0.000 C 
ATOM      3  O   UNL     1       2.086  10.631  18.124  0.00  0.00    +0.000 OA
ATOM      4  H   UNL     1       0.120   8.336  19.100  0.00  0.00    +0.000 HD
ENDROOT
BRANCH   1   7
ATOM      5  C   UNL     1      -1.560  12.033  20.607  0.00  0.00    +0.000 A 
ATOM      6  C   UNL     1      -0.576  11.080  20.298  0.00  0.00    +0.000 A 
ATOM      7  C   UNL     1      -0.636  10.279  19.159  0.00  0.00    +0.000 A 
ATOM      8  C   UNL     1      -1.691  10.483  18.275  0.00  0.00    +0.000 A 
ATOM      9  C   UNL     1      -2.659  11.460  18.540  0.00  0.00    +0.000 A 
ATOM     10  C   UNL     1      -2.621  12.253  19.703  0.00  0.00    +0.000 A 
BRANCH  10  11
ATOM     11  N   UNL     1      -3.591  13.270  19.950  0.00  0.00    +0.000 N 
ATOM     12  C   UNL     1      -4.746  13.111  20.700  0.00  0.00    +0.000 C 
ATOM     13  O   UNL     1      -5.016  12.118  21.379  0.00  0.00    +0.000 OA
ATOM     14  H   UNL     1      -3.340  14.193  19.612  0.00  0.00    +0.000 HD
BRANCH  12  15
ATOM     15  C   UNL     1      -5.759  14.257  20.673  0.00  0.00    +0.000 C 
ATOM     16  C   UNL     1      -6.304  14.541  19.282  0.00  0.00    +0.000 C 
ATOM     17  C   UNL     1      -6.878  14.062  21.689  0.00  0.00    +0.000 C 
ENDBRANCH  12  15
ENDBRANCH  10  11
BRANCH   5  19
ATOM     18  C   UNL     1      -1.819  11.982  22.958  0.00  0.00    +0.000 C 
ATOM     19  O   UNL     1      -1.524  12.756  21.780  0.00  0.00    +0.000 OA
ENDBRANCH   5  19
ENDBRANCH   1   7
BRANCH   2  20
ATOM     20  C   UNL     1       2.368   8.322  18.079  0.00  0.00    +0.000 A 
ATOM     21  C   UNL     1       3.616   8.174  17.507  0.00  0.00    +0.000 A 
ATOM     22  C   UNL     1       3.908   6.792  17.525  0.00  0.00    +0.000 A 
ATOM     23  C   UNL     1       2.820   6.165  18.103  0.00  0.00    +0.000 A 
ATOM     24  O   UNL     1       1.874   7.100  18.429  0.00  0.00    +0.000 OA
BRANCH  23  25
ATOM     25  C   UNL     1       2.508   4.784  18.457  0.00  0.00    +0.000 A 
ATOM     26  C   UNL     1       2.279   3.822  17.460  0.00  0.00    +0.000 A 
ATOM     27  C   UNL     1       2.028   2.486  17.789  0.00  0.00    +0.000 A 
ATOM     28  C   UNL     1       2.002   2.089  19.125  0.00  0.00    +0.000 A 
ATOM     29  C   UNL     1       2.217   3.041  20.127  0.00  0.00    +0.000 A 
ATOM     30  C   UNL     1       2.462   4.382  19.799  0.00  0.00    +0.000 A 
BRANCH  29  31
ATOM     31  N   UNL     1       2.205   2.635  21.537  0.00  0.00    +0.000 N 
ATOM     32  O   UNL     1       1.138   2.742  22.157  0.00  0.00    +0.000 OA
ATOM     33  O   UNL     1       3.261   2.207  22.023  0.00  0.00    +0.000 OA
ENDBRANCH  29  31
ENDBRANCH  23  25
ENDBRANCH   2  20
TORSDOF 7
ENDMDL
MODEL 8
REMARK VINA RESULT:      -7.8      3.160      4.971
REMARK  Name = 
REMARK  10 active torsions:
REMARK  status: ('A' for Active; 'I' for Inactive)
REMARK    1  A    between atoms: C_1  and  O_2
REMARK    2  A    between atoms: O_2  and  C_3
REMARK    3  A    between atoms: C_5  and  N_6
REMARK    4  A    between atoms: C_7  and  C_9
REMARK    5  A    between atoms: C_12  and  C_13
REMARK    6  A    between atoms: C_17  and  N_18
REMARK    7  A    between atoms: C_25  and  N_26
REMARK    8  A    between atoms: C_27  and  C_29
REMARK    9  A    between atoms: C_29  and  C_30
REMARK   10  A    between atoms: C_29  and  C_31
REMARK                            x       y       z     vdW  Elec       q    Type
REMARK                         _______ _______ _______ _____ _____    ______ ____
ROOT
ATOM      1  N   UNL     1       1.064   9.675  19.161  0.00  0.00    +0.000 N 
ATOM      2  C   UNL     1       1.284   9.021  20.365  0.00  0.00    +0.000 C 
ATOM      3  O   UNL     1       1.115   9.509  21.476  0.00  0.00    +0.000 OA
ATOM      4  H   UNL     1       1.126   9.105  18.327  0.00  0.00    +0.000 HD
ENDROOT
BRANCH   1   7
ATOM      5  C   UNL     1       1.238  13.393  18.639  0.00  0.00    +0.000 A 
ATOM      6  C   UNL     1       1.611  12.044  18.762  0.00  0.00    +0.000 A 
ATOM      7  C   UNL     1       0.690  11.028  19.004  0.00  0.00    +0.000 A 
ATOM      8  C   UNL     1      -0.657  11.374  19.070  0.00  0.00    +0.000 A 
ATOM      9  C   UNL     1      -1.056  12.707  18.905  0.00  0.00    +0.000 A 
ATOM     10  C   UNL     1      -0.128  13.743  18.689  0.00  0.00    +0.000 A 
BRANCH  10  11
ATOM     11  N   UNL     1      -0.543  15.093  18.487  0.00  0.00    +0.000 N 
ATOM     12  C   UNL     1      -0.711  16.038  19.487  0.00  0.00    +0.000 C 
ATOM     13  O   UNL     1      -0.379  15.886  20.665  0.00  0.00    +0.000 OA
ATOM     14  H   UNL     1      -0.626  15.375  17.517  0.00  0.00    +0.000 HD
BRANCH  12  15
ATOM     15  C   UNL     1      -1.361  17.365  19.092  0.00  0.00    +0.000 C 
ATOM     16  C   UNL     1      -1.349  18.393  20.212  0.00  0.00    +0.000 C 
ATOM     17  C   UNL     1      -0.784  17.929  17.800  0.00  0.00    +0.000 C 
ENDBRANCH  12  15
ENDBRANCH  10  11
BRANCH   5  19
ATOM     18  C   UNL     1       2.953  14.662  19.663  0.00  0.00    +0.000 C 
ATOM     19  O   UNL     1       2.176  14.391  18.481  0.00  0.00    +0.000 OA
ENDBRANCH   5  19
ENDBRANCH   1   7
BRANCH   2  20
ATOM     20  C   UNL     1       1.715   7.640  20.225  0.00  0.00    +0.000 A 
ATOM     21  C   UNL     1       1.360   6.524  20.956  0.00  0.00    +0.000 A 
ATOM     22  C   UNL     1       2.043   5.429  20.381  0.00  0.00    +0.000 A 
ATOM     23  C   UNL     1       2.784   5.935  19.329  0.00  0.00    +0.000 A 
ATOM     24  O   UNL     1       2.593   7.288  19.244  0.00  0.00    +0.000 OA
BRANCH  23  25
ATOM     25  C   UNL     1       3.653   5.343  18.317  0.00  0.00    +0.000 A 
ATOM     26  C   UNL     1       3.325   4.116  17.718  0.00  0.00    +0.000 A 
ATOM     27  C   UNL     1       4.127   3.566  16.712  0.00  0.00    +0.000 A 
ATOM     28  C   UNL     1       5.273   4.236  16.288  0.00  0.00    +0.000 A 
ATOM     29  C   UNL     1       5.616   5.453  16.887  0.00  0.00    +0.000 A 
ATOM     30  C   UNL     1       4.817   6.002  17.899  0.00  0.00    +0.000 A 
BRANCH  29  31
ATOM     31  N   UNL     1       6.813   6.175  16.442  0.00  0.00    +0.000 N 
ATOM     32  O   UNL     1       7.045   7.278  16.957  0.00  0.00    +0.000 OA
ATOM     33  O   UNL     1       7.522   5.639  15.579  0.00  0.00    +0.000 OA
ENDBRANCH  29  31
ENDBRANCH  23  25
ENDBRANCH   2  20
TORSDOF 7
ENDMDL
MODEL 9
REMARK VINA RESULT:      -7.7      4.303      5.655
REMARK  Name = 
REMARK  10 active torsions:
REMARK  status: ('A' for Active; 'I' for Inactive)
REMARK    1  A    between atoms: C_1  and  O_2
REMARK    2  A    between atoms: O_2  and  C_3
REMARK    3  A    between atoms: C_5  and  N_6
REMARK    4  A    between atoms: C_7  and  C_9
REMARK    5  A    between atoms: C_12  and  C_13
REMARK    6  A    between atoms: C_17  and  N_18
REMARK    7  A    between atoms: C_25  and  N_26
REMARK    8  A    between atoms: C_27  and  C_29
REMARK    9  A    between atoms: C_29  and  C_30
REMARK   10  A    between atoms: C_29  and  C_31
REMARK                            x       y       z     vdW  Elec       q    Type
REMARK                         _______ _______ _______ _____ _____    ______ ____
ROOT
ATOM      1  N   UNL     1       0.558   9.358  18.894  0.00  0.00    +0.000 N 
ATOM      2  C   UNL     1       1.671   9.490  18.076  0.00  0.00    +0.000 C 
ATOM      3  O   UNL     1       2.033  10.528  17.534  0.00  0.00    +0.000 OA
ATOM      4  H   UNL     1       0.458   8.471  19.370  0.00  0.00    +0.000 HD
ENDROOT
BRANCH   1   7
ATOM      5  C   UNL     1      -2.492  11.545  18.714  0.00  0.00    +0.000 A 
ATOM      6  C   UNL     1      -1.568  10.522  18.449  0.00  0.00    +0.000 A 
ATOM      7  C   UNL     1      -0.390  10.365  19.178  0.00  0.00    +0.000 A 
ATOM      8  C   UNL     1      -0.165  11.233  20.243  0.00  0.00    +0.000 A 
ATOM      9  C   UNL     1      -1.096  12.232  20.553  0.00  0.00    +0.000 A 
ATOM     10  C   UNL     1      -2.274  12.415  19.803  0.00  0.00    +0.000 A 
BRANCH  10  11
ATOM     11  N   UNL     1      -3.235  13.412  20.146  0.00  0.00    +0.000 N 
ATOM     12  C   UNL     1      -4.227  13.273  21.104  0.00  0.00    +0.000 C 
ATOM     13  O   UNL     1      -4.319  12.331  21.895  0.00  0.00    +0.000 OA
ATOM     14  H   UNL     1      -3.097  14.311  19.698  0.00  0.00    +0.000 HD
BRANCH  12  15
ATOM     15  C   UNL     1      -5.287  14.374  21.176  0.00  0.00    +0.000 C 
ATOM     16  C   UNL     1      -4.808  15.703  20.612  0.00  0.00    +0.000 C 
ATOM     17  C   UNL     1      -6.611  13.942  20.558  0.00  0.00    +0.000 C 
ENDBRANCH  12  15
ENDBRANCH  10  11
BRANCH   5  19
ATOM     18  C   UNL     1      -3.506  11.159  16.611  0.00  0.00    +0.000 C 
ATOM     19  O   UNL     1      -3.610  11.731  17.928  0.00  0.00    +0.000 OA
ENDBRANCH   5  19
ENDBRANCH   1   7
BRANCH   2  20
ATOM     20  C   UNL     1       2.446   8.270  17.918  0.00  0.00    +0.000 A 
ATOM     21  C   UNL     1       3.708   8.085  17.391  0.00  0.00    +0.000 A 
ATOM     22  C   UNL     1       3.998   6.707  17.509  0.00  0.00    +0.000 A 
ATOM     23  C   UNL     1       2.894   6.120  18.100  0.00  0.00    +0.000 A 
ATOM     24  O   UNL     1       1.941   7.074  18.337  0.00  0.00    +0.000 OA
BRANCH  23  25
ATOM     25  C   UNL     1       2.571   4.766  18.537  0.00  0.00    +0.000 A 
ATOM     26  C   UNL     1       1.517   4.053  17.945  0.00  0.00    +0.000 A 
ATOM     27  C   UNL     1       1.233   2.737  18.324  0.00  0.00    +0.000 A 
ATOM     28  C   UNL     1       2.001   2.111  19.304  0.00  0.00    +0.000 A 
ATOM     29  C   UNL     1       3.046   2.816  19.910  0.00  0.00    +0.000 A 
ATOM     30  C   UNL     1       3.328   4.137  19.536  0.00  0.00    +0.000 A 
BRANCH  29  31
ATOM     31  N   UNL     1       3.871   2.166  20.935  0.00  0.00    +0.000 N 
ATOM     32  O   UNL     1       5.027   1.847  20.626  0.00  0.00    +0.000 OA
ATOM     33  O   UNL     1       3.362   1.976  22.049  0.00  0.00    +0.000 OA
ENDBRANCH  29  31
ENDBRANCH  23  25
ENDBRANCH   2  20
TORSDOF 7
ENDMDL
