MODEL 1
REMARK VINA RESULT:      -7.7      0.000      0.000
REMARK  Name = 
REMARK  5 active torsions:
REMARK  status: ('A' for Active; 'I' for Inactive)
REMARK    1  A    between atoms: C_1  and  C_2
REMARK    2  A    between atoms: C_2  and  C_3
REMARK    3  A    between atoms: C_3  and  C_4
REMARK    4  A    between atoms: C_6  and  N_7
REMARK    5  A    between atoms: N_10  and  C_11
REMARK                            x       y       z     vdW  Elec       q    Type
REMARK                         _______ _______ _______ _____ _____    ______ ____
ROOT
ATOM      1  N   UNL     1       2.575   6.882  18.884  0.00  0.00    +0.000 N 
ATOM      2  C   UNL     1       1.729   7.068  20.090  0.00  0.00    +0.000 C 
ATOM      3  C   UNL     1       1.689   8.552  20.499  0.00  0.00    +0.000 C 
ATOM      4  N   UNL     1       1.260   9.391  19.370  0.00  0.00    +0.000 N 
ATOM      5  C   UNL     1       2.028   9.212  18.124  0.00  0.00    +0.000 C 
ATOM      6  C   UNL     1       2.152   7.716  17.740  0.00  0.00    +0.000 C 
ENDROOT
BRANCH   1   9
ATOM      7  C   UNL     1       5.966   5.306  18.643  0.00  0.00    +0.000 A 
ATOM      8  C   UNL     1       4.894   6.342  18.486  0.00  0.00    +0.000 A 
ATOM      9  C   UNL     1       3.649   5.987  18.856  0.00  0.00    +0.000 A 
ATOM     10  N   UNL     1       3.460   4.660  19.277  0.00  0.00    +0.000 N 
ATOM     11  C   UNL     1       2.339   3.964  19.636  0.00  0.00    +0.000 A 
ATOM     12  N   UNL     1       2.646   2.735  19.967  0.00  0.00    +0.000 NA
ATOM     13  N   UNL     1       4.005   2.595  19.802  0.00  0.00    +0.000 NA
ATOM     14  C   UNL     1       4.495   3.741  19.373  0.00  0.00    +0.000 A 
ATOM     15  N   UNL     1       5.777   4.089  19.063  0.00  0.00    +0.000 NA
BRANCH   7  16
ATOM     16  C   UNL     1       7.393   5.729  18.317  0.00  0.00    +0.000 C 
BRANCH  16  18
ATOM     17  C   UNL     1       8.053   8.131  17.932  0.00  0.00    +0.000 C 
ATOM     18  C   UNL     1       7.401   6.895  17.332  0.00  0.00    +0.000 C 
ENDBRANCH  16  18
ENDBRANCH   7  16
ENDBRANCH   1   9
BRANCH   4  19
ATOM     19  C   UNL     1       0.118  10.170  19.416  0.00  0.00    +0.000 A 
ATOM     20  C   UNL     1      -0.128  10.996  20.526  0.00  0.00    +0.000 A 
ATOM     21  C   UNL     1      -1.232  11.854  20.585  0.00  0.00    +0.000 A 
ATOM     22  C   UNL     1      -2.164  11.858  19.555  0.00  0.00    +0.000 A 
ATOM     23  C   UNL     1      -1.987  11.013  18.467  0.00  0.00    +0.000 A 
ATOM     24  C   UNL     1      -0.855  10.199  18.396  0.00  0.00    +0.000 A 
ATOM     25  F   UNL     1      -0.695   9.479  17.273  0.00  0.00    +0.000 F 
ENDBRANCH   4  19
TORSDOF 4
ENDMDL
MODEL 2
REMARK VINA RESULT:      -7.7      0.933      1.334
REMARK  Name = 
REMARK  5 active torsions:
REMARK  status: ('A' for Active; 'I' for Inactive)
REMARK    1  A    between atoms: C_1  and  C_2
REMARK    2  A    between atoms: C_2  and  C_3
REMARK    3  A    between atoms: C_3  and  C_4
REMARK    4  A    between atoms: C_6  and  N_7
REMARK    5  A    between atoms: N_10  and  C_11
REMARK                            x       y       z     vdW  Elec       q    Type
REMARK                         _______ _______ _______ _____ _____    ______ ____
ROOT
ATOM      1  N   UNL     1       2.625   6.878  18.757  0.00  0.00    +0.000 N 
ATOM      2  C   UNL     1       1.750   7.093  19.937  0.00  0.00    +0.000 C 
ATOM      3  C   UNL     1       1.693   8.588  20.302  0.00  0.00    +0.000 C 
ATOM      4  N   UNL     1       1.286   9.391  19.140  0.00  0.00    +0.000 N 
ATOM      5  C   UNL     1       2.084   9.181  17.918  0.00  0.00    +0.000 C 
ATOM      6  C   UNL     1       2.226   7.675  17.580  0.00  0.00    +0.000 C 
ENDROOT
BRANCH   1   9
ATOM      7  C   UNL     1       6.031   5.317  18.643  0.00  0.00    +0.000 A 
ATOM      8  C   UNL     1       4.957   6.341  18.431  0.00  0.00    +0.000 A 
ATOM      9  C   UNL     1       3.705   5.989  18.780  0.00  0.00    +0.000 A 
ATOM     10  N   UNL     1       3.512   4.672  19.233  0.00  0.00    +0.000 N 
ATOM     11  C   UNL     1       2.387   3.980  19.583  0.00  0.00    +0.000 A 
ATOM     12  N   UNL     1       2.692   2.763  19.955  0.00  0.00    +0.000 NA
ATOM     13  N   UNL     1       4.056   2.626  19.828  0.00  0.00    +0.000 NA
ATOM     14  C   UNL     1       4.550   3.763  19.380  0.00  0.00    +0.000 A 
ATOM     15  N   UNL     1       5.837   4.110  19.092  0.00  0.00    +0.000 NA
BRANCH   7  16
ATOM     16  C   UNL     1       7.463   5.740  18.342  0.00  0.00    +0.000 C 
BRANCH  16  18
ATOM     17  C   UNL     1       8.101   8.151  17.983  0.00  0.00    +0.000 C 
ATOM     18  C   UNL     1       7.487   6.908  17.360  0.00  0.00    +0.000 C 
ENDBRANCH  16  18
ENDBRANCH   7  16
ENDBRANCH   1   9
BRANCH   4  19
ATOM     19  C   UNL     1       0.138  10.164  19.137  0.00  0.00    +0.000 A 
ATOM     20  C   UNL     1      -0.798  10.030  18.098  0.00  0.00    +0.000 A 
ATOM     21  C   UNL     1      -2.005  10.738  18.089  0.00  0.00    +0.000 A 
ATOM     22  C   UNL     1      -2.279  11.658  19.094  0.00  0.00    +0.000 A 
ATOM     23  C   UNL     1      -1.351  11.862  20.107  0.00  0.00    +0.000 A 
ATOM     24  C   UNL     1      -0.174  11.112  20.132  0.00  0.00    +0.000 A 
ATOM     25  F   UNL     1       0.635  11.287  21.191  0.00  0.00    +0.000 F 
ENDBRANCH   4  19
TORSDOF 4
ENDMDL
MODEL 3
REMARK VINA RESULT:      -7.6      2.676      3.835
REMARK  Name = 
REMARK  5 active torsions:
REMARK  status: ('A' for Active; 'I' for Inactive)
REMARK    1  A    between atoms: C_1  and  C_2
REMARK    2  A    between atoms: C_2  and  C_3
REMARK    3  A    between atoms: C_3  and  C_4
REMARK    4  A    between atoms: C_6  and  N_7
REMARK    5  A    between atoms: N_10  and  C_11
REMARK                            x       y       z     vdW  Elec       q    Type
REMARK                         _______ _______ _______ _____ _____    ______ ____
ROOT
ATOM      1  N   UNL     1       4.244   6.441  18.235  0.00  0.00    +0.000 N 
ATOM      2  C   UNL     1       3.932   7.854  17.902  0.00  0.00    +0.000 C 
ATOM      3  C   UNL     1       2.411   8.096  17.943  0.00  0.00    +0.000 C 
ATOM      4  N   UNL     1       1.853   7.682  19.238  0.00  0.00    +0.000 N 
ATOM      5  C   UNL     1       2.175   6.303  19.651  0.00  0.00    +0.000 C 
ATOM      6  C   UNL     1       3.693   6.012  19.537  0.00  0.00    +0.000 C 
ENDROOT
BRANCH   1   9
ATOM      7  C   UNL     1       5.568   4.488  15.323  0.00  0.00    +0.000 A 
ATOM      8  C   UNL     1       4.586   5.246  16.165  0.00  0.00    +0.000 A 
ATOM      9  C   UNL     1       5.000   5.625  17.389  0.00  0.00    +0.000 A 
ATOM     10  N   UNL     1       6.281   5.205  17.789  0.00  0.00    +0.000 N 
ATOM     11  C   UNL     1       6.962   5.342  18.966  0.00  0.00    +0.000 A 
ATOM     12  N   UNL     1       8.146   4.790  18.879  0.00  0.00    +0.000 NA
ATOM     13  N   UNL     1       8.253   4.247  17.619  0.00  0.00    +0.000 NA
ATOM     14  C   UNL     1       7.131   4.479  16.968  0.00  0.00    +0.000 A 
ATOM     15  N   UNL     1       6.762   4.133  15.701  0.00  0.00    +0.000 NA
BRANCH   7  16
ATOM     16  C   UNL     1       5.141   4.140  13.903  0.00  0.00    +0.000 C 
BRANCH  16  18
ATOM     17  C   UNL     1       5.850   2.837  11.865  0.00  0.00    +0.000 C 
ATOM     18  C   UNL     1       6.317   3.583  13.105  0.00  0.00    +0.000 C 
ENDBRANCH  16  18
ENDBRANCH   7  16
ENDBRANCH   1   9
BRANCH   4  19
ATOM     19  C   UNL     1       1.214   8.566  20.089  0.00  0.00    +0.000 A 
ATOM     20  C   UNL     1       1.302   8.393  21.480  0.00  0.00    +0.000 A 
ATOM     21  C   UNL     1       0.732   9.301  22.380  0.00  0.00    +0.000 A 
ATOM     22  C   UNL     1      -0.006  10.379  21.905  0.00  0.00    +0.000 A 
ATOM     23  C   UNL     1      -0.165  10.550  20.536  0.00  0.00    +0.000 A 
ATOM     24  C   UNL     1       0.451   9.667  19.649  0.00  0.00    +0.000 A 
ATOM     25  F   UNL     1       0.339   9.946  18.339  0.00  0.00    +0.000 F 
ENDBRANCH   4  19
TORSDOF 4
ENDMDL
MODEL 4
REMARK VINA RESULT:      -7.3      1.289      1.354
REMARK  Name = 
REMARK  5 active torsions:
REMARK  status: ('A' for Active; 'I' for Inactive)
REMARK    1  A    between atoms: C_1  and  C_2
REMARK    2  A    between atoms: C_2  and  C_3
REMARK    3  A    between atoms: C_3  and  C_4
REMARK    4  A    between atoms: C_6  and  N_7
REMARK    5  A    between atoms: N_10  and  C_11
REMARK                            x       y       z     vdW  Elec       q    Type
REMARK                         _______ _______ _______ _____ _____    ______ ____
ROOT
ATOM      1  N   UNL     1       2.345   7.261  18.272  0.00  0.00    +0.000 N 
ATOM      2  C   UNL     1       1.684   7.147  19.596  0.00  0.00    +0.000 C 
ATOM      3  C   UNL     1       1.856   8.449  20.400  0.00  0.00    +0.000 C 
ATOM      4  N   UNL     1       1.380   9.605  19.626  0.00  0.00    +0.000 N 
ATOM      5  C   UNL     1       1.961   9.742  18.277  0.00  0.00    +0.000 C 
ATOM      6  C   UNL     1       1.873   8.416  17.480  0.00  0.00    +0.000 C 
ENDROOT
BRANCH   1   9
ATOM      7  C   UNL     1       5.519   5.565  17.225  0.00  0.00    +0.000 A 
ATOM      8  C   UNL     1       4.574   6.684  17.545  0.00  0.00    +0.000 A 
ATOM      9  C   UNL     1       3.304   6.342  17.835  0.00  0.00    +0.000 A 
ATOM     10  N   UNL     1       2.968   4.981  17.732  0.00  0.00    +0.000 N 
ATOM     11  C   UNL     1       1.781   4.319  17.874  0.00  0.00    +0.000 A 
ATOM     12  N   UNL     1       1.947   3.033  17.693  0.00  0.00    +0.000 NA
ATOM     13  N   UNL     1       3.276   2.830  17.397  0.00  0.00    +0.000 NA
ATOM     14  C   UNL     1       3.888   3.997  17.404  0.00  0.00    +0.000 A 
ATOM     15  N   UNL     1       5.195   4.306  17.164  0.00  0.00    +0.000 NA
BRANCH   7  16
ATOM     16  C   UNL     1       6.978   5.934  16.991  0.00  0.00    +0.000 C 
BRANCH  16  18
ATOM     17  C   UNL     1       7.942   8.135  17.754  0.00  0.00    +0.000 C 
ATOM     18  C   UNL     1       7.532   6.731  18.169  0.00  0.00    +0.000 C 
ENDBRANCH  16  18
ENDBRANCH   7  16
ENDBRANCH   1   9
BRANCH   4  19
ATOM     19  C   UNL     1       0.344  10.413  20.058  0.00  0.00    +0.000 A 
ATOM     20  C   UNL     1       0.423  11.054  21.306  0.00  0.00    +0.000 A 
ATOM     21  C   UNL     1      -0.567  11.935  21.754  0.00  0.00    +0.000 A 
ATOM     22  C   UNL     1      -1.706  12.149  20.986  0.00  0.00    +0.000 A 
ATOM     23  C   UNL     1      -1.848  11.488  19.773  0.00  0.00    +0.000 A 
ATOM     24  C   UNL     1      -0.830  10.651  19.314  0.00  0.00    +0.000 A 
ATOM     25  F   UNL     1      -0.986  10.121  18.089  0.00  0.00    +0.000 F 
ENDBRANCH   4  19
TORSDOF 4
ENDMDL
MODEL 5
REMARK VINA RESULT:      -7.3      2.268      2.764
REMARK  Name = 
REMARK  5 active torsions:
REMARK  status: ('A' for Active; 'I' for Inactive)
REMARK    1  A    between atoms: C_1  and  C_2
REMARK    2  A    between atoms: C_2  and  C_3
REMARK    3  A    between atoms: C_3  and  C_4
REMARK    4  A    between atoms: C_6  and  N_7
REMARK    5  A    between atoms: N_10  and  C_11
REMARK                            x       y       z     vdW  Elec       q    Type
REMARK                         _______ _______ _______ _____ _____    ______ ____
ROOT
ATOM      1  N   UNL     1       3.111   6.990  18.512  0.00  0.00    +0.000 N 
ATOM      2  C   UNL     1       2.863   8.280  17.819  0.00  0.00    +0.000 C 
ATOM      3  C   UNL     1       1.419   8.757  18.064  0.00  0.00    +0.000 C 
ATOM      4  N   UNL     1       1.131   8.821  19.504  0.00  0.00    +0.000 N 
ATOM      5  C   UNL     1       1.410   7.586  20.259  0.00  0.00    +0.000 C 
ATOM      6  C   UNL     1       2.830   7.042  19.961  0.00  0.00    +0.000 C 
ENDROOT
BRANCH   1   9
ATOM      7  C   UNL     1       5.205   4.475  16.686  0.00  0.00    +0.000 A 
ATOM      8  C   UNL     1       4.789   5.801  17.246  0.00  0.00    +0.000 A 
ATOM      9  C   UNL     1       3.581   5.859  17.837  0.00  0.00    +0.000 A 
ATOM     10  N   UNL     1       2.794   4.694  17.802  0.00  0.00    +0.000 N 
ATOM     11  C   UNL     1       1.521   4.437  18.224  0.00  0.00    +0.000 A 
ATOM     12  N   UNL     1       1.201   3.189  17.989  0.00  0.00    +0.000 NA
ATOM     13  N   UNL     1       2.280   2.600  17.370  0.00  0.00    +0.000 NA
ATOM     14  C   UNL     1       3.231   3.503  17.241  0.00  0.00    +0.000 A 
ATOM     15  N   UNL     1       4.474   3.398  16.688  0.00  0.00    +0.000 NA
BRANCH   7  16
ATOM     16  C   UNL     1       6.609   4.377  16.101  0.00  0.00    +0.000 C 
BRANCH  16  18
ATOM     17  C   UNL     1       6.191   3.892  13.664  0.00  0.00    +0.000 C 
ATOM     18  C   UNL     1       6.643   4.929  14.679  0.00  0.00    +0.000 C 
ENDBRANCH  16  18
ENDBRANCH   7  16
ENDBRANCH   1   9
BRANCH   4  19
ATOM     19  C   UNL     1       0.782  10.000  20.140  0.00  0.00    +0.000 A 
ATOM     20  C   UNL     1       1.236  11.231  19.639  0.00  0.00    +0.000 A 
ATOM     21  C   UNL     1       0.851  12.452  20.205  0.00  0.00    +0.000 A 
ATOM     22  C   UNL     1       0.050  12.469  21.340  0.00  0.00    +0.000 A 
ATOM     23  C   UNL     1      -0.371  11.270  21.900  0.00  0.00    +0.000 A 
ATOM     24  C   UNL     1      -0.022  10.061  21.296  0.00  0.00    +0.000 A 
ATOM     25  F   UNL     1      -0.543   8.943  21.830  0.00  0.00    +0.000 F 
ENDBRANCH   4  19
TORSDOF 4
ENDMDL
MODEL 6
REMARK VINA RESULT:      -7.3      1.981      3.933
REMARK  Name = 
REMARK  5 active torsions:
REMARK  status: ('A' for Active; 'I' for Inactive)
REMARK    1  A    between atoms: C_1  and  C_2
REMARK    2  A    between atoms: C_2  and  C_3
REMARK    3  A    between atoms: C_3  and  C_4
REMARK    4  A    between atoms: C_6  and  N_7
REMARK    5  A    between atoms: N_10  and  C_11
REMARK                            x       y       z     vdW  Elec       q    Type
REMARK                         _______ _______ _______ _____ _____    ______ ____
ROOT
ATOM      1  N   UNL     1       2.286   7.738  18.944  0.00  0.00    +0.000 N 
ATOM      2  C   UNL     1       2.206   8.807  17.918  0.00  0.00    +0.000 C 
ATOM      3  C   UNL     1       0.818   9.475  17.940  0.00  0.00    +0.000 C 
ATOM      4  N   UNL     1       0.495   9.959  19.290  0.00  0.00    +0.000 N 
ATOM      5  C   UNL     1       0.610   8.954  20.364  0.00  0.00    +0.000 C 
ATOM      6  C   UNL     1       1.969   8.211  20.307  0.00  0.00    +0.000 C 
ENDROOT
BRANCH   1   9
ATOM      7  C   UNL     1       2.424   4.010  18.585  0.00  0.00    +0.000 A 
ATOM      8  C   UNL     1       2.014   5.345  19.128  0.00  0.00    +0.000 A 
ATOM      9  C   UNL     1       2.646   6.424  18.627  0.00  0.00    +0.000 A 
ATOM     10  N   UNL     1       3.680   6.189  17.705  0.00  0.00    +0.000 N 
ATOM     11  C   UNL     1       4.557   7.031  17.080  0.00  0.00    +0.000 A 
ATOM     12  N   UNL     1       5.354   6.359  16.287  0.00  0.00    +0.000 NA
ATOM     13  N   UNL     1       5.020   5.029  16.403  0.00  0.00    +0.000 NA
ATOM     14  C   UNL     1       4.028   4.921  17.264  0.00  0.00    +0.000 A 
ATOM     15  N   UNL     1       3.366   3.814  17.708  0.00  0.00    +0.000 NA
BRANCH   7  16
ATOM     16  C   UNL     1       1.648   2.794  19.075  0.00  0.00    +0.000 C 
BRANCH  16  18
ATOM     17  C   UNL     1       1.543   2.651  21.589  0.00  0.00    +0.000 C 
ATOM     18  C   UNL     1       0.845   3.132  20.328  0.00  0.00    +0.000 C 
ENDBRANCH  16  18
ENDBRANCH   7  16
ENDBRANCH   1   9
BRANCH   4  19
ATOM     19  C   UNL     1       0.262  11.294  19.565  0.00  0.00    +0.000 A 
ATOM     20  C   UNL     1       1.335  12.148  19.874  0.00  0.00    +0.000 A 
ATOM     21  C   UNL     1       1.156  13.519  20.088  0.00  0.00    +0.000 A 
ATOM     22  C   UNL     1      -0.121  14.065  20.065  0.00  0.00    +0.000 A 
ATOM     23  C   UNL     1      -1.214  13.243  19.821  0.00  0.00    +0.000 A 
ATOM     24  C   UNL     1      -1.017  11.886  19.558  0.00  0.00    +0.000 A 
ATOM     25  F   UNL     1      -2.105  11.168  19.232  0.00  0.00    +0.000 F 
ENDBRANCH   4  19
TORSDOF 4
ENDMDL
MODEL 7
REMARK VINA RESULT:      -7.2      2.078      3.957
REMARK  Name = 
REMARK  5 active torsions:
REMARK  status: ('A' for Active; 'I' for Inactive)
REMARK    1  A    between atoms: C_1  and  C_2
REMARK    2  A    between atoms: C_2  and  C_3
REMARK    3  A    between atoms: C_3  and  C_4
REMARK    4  A    between atoms: C_6  and  N_7
REMARK    5  A    between atoms: N_10  and  C_11
REMARK                            x       y       z     vdW  Elec       q    Type
REMARK                         _______ _______ _______ _____ _____    ______ ____
ROOT
ATOM      1  N   UNL     1       2.267   7.684  18.878  0.00  0.00    +0.000 N 
ATOM      2  C   UNL     1       2.209   8.695  17.792  0.00  0.00    +0.000 C 
ATOM      3  C   UNL     1       0.847   9.415  17.797  0.00  0.00    +0.000 C 
ATOM      4  N   UNL     1       0.565   9.987  19.122  0.00  0.00    +0.000 N 
ATOM      5  C   UNL     1       0.662   9.041  20.250  0.00  0.00    +0.000 C 
ATOM      6  C   UNL     1       1.991   8.245  20.216  0.00  0.00    +0.000 C 
ENDROOT
BRANCH   1   9
ATOM      7  C   UNL     1       2.243   3.940  18.701  0.00  0.00    +0.000 A 
ATOM      8  C   UNL     1       1.885   5.318  19.171  0.00  0.00    +0.000 A 
ATOM      9  C   UNL     1       2.573   6.342  18.631  0.00  0.00    +0.000 A 
ATOM     10  N   UNL     1       3.611   6.017  17.741  0.00  0.00    +0.000 N 
ATOM     11  C   UNL     1       4.535   6.787  17.092  0.00  0.00    +0.000 A 
ATOM     12  N   UNL     1       5.314   6.043  16.348  0.00  0.00    +0.000 NA
ATOM     13  N   UNL     1       4.919   4.736  16.522  0.00  0.00    +0.000 NA
ATOM     14  C   UNL     1       3.909   4.714  17.368  0.00  0.00    +0.000 A 
ATOM     15  N   UNL     1       3.190   3.661  17.852  0.00  0.00    +0.000 NA
BRANCH   7  16
ATOM     16  C   UNL     1       1.406   2.785  19.234  0.00  0.00    +0.000 C 
BRANCH  16  18
ATOM     17  C   UNL     1       2.267   2.694  21.601  0.00  0.00    +0.000 C 
ATOM     18  C   UNL     1       1.073   2.993  20.709  0.00  0.00    +0.000 C 
ENDBRANCH  16  18
ENDBRANCH   7  16
ENDBRANCH   1   9
BRANCH   4  19
ATOM     19  C   UNL     1       0.386  11.344  19.323  0.00  0.00    +0.000 A 
ATOM     20  C   UNL     1      -0.795  11.818  19.918  0.00  0.00    +0.000 A 
ATOM     21  C   UNL     1      -0.990  13.173  20.206  0.00  0.00    +0.000 A 
ATOM     22  C   UNL     1      -0.028  14.107  19.841  0.00  0.00    +0.000 A 
ATOM     23  C   UNL     1       1.128  13.684  19.197  0.00  0.00    +0.000 A 
ATOM     24  C   UNL     1       1.333  12.323  18.962  0.00  0.00    +0.000 A 
ATOM     25  F   UNL     1       2.514  11.972  18.425  0.00  0.00    +0.000 F 
ENDBRANCH   4  19
TORSDOF 4
ENDMDL
MODEL 8
REMARK VINA RESULT:      -7.2      2.202      2.683
REMARK  Name = 
REMARK  5 active torsions:
REMARK  status: ('A' for Active; 'I' for Inactive)
REMARK    1  A    between atoms: C_1  and  C_2
REMARK    2  A    between atoms: C_2  and  C_3
REMARK    3  A    between atoms: C_3  and  C_4
REMARK    4  A    between atoms: C_6  and  N_7
REMARK    5  A    between atoms: N_10  and  C_11
REMARK                            x       y       z     vdW  Elec       q    Type
REMARK                         _______ _______ _______ _____ _____    ______ ____
ROOT
ATOM      1  N   UNL     1       3.105   7.045  18.408  0.00  0.00    +0.000 N 
ATOM      2  C   UNL     1       2.886   8.326  17.690  0.00  0.00    +0.000 C 
ATOM      3  C   UNL     1       1.448   8.830  17.911  0.00  0.00    +0.000 C 
ATOM      4  N   UNL     1       1.144   8.925  19.346  0.00  0.00    +0.000 N 
ATOM      5  C   UNL     1       1.393   7.698  20.125  0.00  0.00    +0.000 C 
ATOM      6  C   UNL     1       2.808   7.126  19.853  0.00  0.00    +0.000 C 
ENDROOT
BRANCH   1   9
ATOM      7  C   UNL     1       5.170   4.473  16.629  0.00  0.00    +0.000 A 
ATOM      8  C   UNL     1       4.766   5.816  17.159  0.00  0.00    +0.000 A 
ATOM      9  C   UNL     1       3.563   5.894  17.759  0.00  0.00    +0.000 A 
ATOM     10  N   UNL     1       2.771   4.732  17.761  0.00  0.00    +0.000 N 
ATOM     11  C   UNL     1       1.500   4.492  18.201  0.00  0.00    +0.000 A 
ATOM     12  N   UNL     1       1.173   3.240  18.001  0.00  0.00    +0.000 NA
ATOM     13  N   UNL     1       2.243   2.631  17.388  0.00  0.00    +0.000 NA
ATOM     14  C   UNL     1       3.198   3.525  17.227  0.00  0.00    +0.000 A 
ATOM     15  N   UNL     1       4.435   3.400  16.666  0.00  0.00    +0.000 NA
BRANCH   7  16
ATOM     16  C   UNL     1       6.568   4.355  16.035  0.00  0.00    +0.000 C 
BRANCH  16  18
ATOM     17  C   UNL     1       6.196   3.858  13.592  0.00  0.00    +0.000 C 
ATOM     18  C   UNL     1       6.601   4.909  14.613  0.00  0.00    +0.000 C 
ENDBRANCH  16  18
ENDBRANCH   7  16
ENDBRANCH   1   9
BRANCH   4  19
ATOM     19  C   UNL     1       0.808  10.120  19.957  0.00  0.00    +0.000 A 
ATOM     20  C   UNL     1      -0.032  10.123  21.084  0.00  0.00    +0.000 A 
ATOM     21  C   UNL     1      -0.342  11.298  21.777  0.00  0.00    +0.000 A 
ATOM     22  C   UNL     1       0.130  12.521  21.317  0.00  0.00    +0.000 A 
ATOM     23  C   UNL     1       0.916  12.566  20.172  0.00  0.00    +0.000 A 
ATOM     24  C   UNL     1       1.260  11.381  19.519  0.00  0.00    +0.000 A 
ATOM     25  F   UNL     1       2.102  11.485  18.477  0.00  0.00    +0.000 F 
ENDBRANCH   4  19
TORSDOF 4
ENDMDL
MODEL 9
REMARK VINA RESULT:      -7.1      2.174      2.607
REMARK  Name = 
REMARK  5 active torsions:
REMARK  status: ('A' for Active; 'I' for Inactive)
REMARK    1  A    between atoms: C_1  and  C_2
REMARK    2  A    between atoms: C_2  and  C_3
REMARK    3  A    between atoms: C_3  and  C_4
REMARK    4  A    between atoms: C_6  and  N_7
REMARK    5  A    between atoms: N_10  and  C_11
REMARK                            x       y       z     vdW  Elec       q    Type
REMARK                         _______ _______ _______ _____ _____    ______ ____
ROOT
ATOM      1  N   UNL     1       2.817   7.200  18.681  0.00  0.00    +0.000 N 
ATOM      2  C   UNL     1       2.454   8.528  18.125  0.00  0.00    +0.000 C 
ATOM      3  C   UNL     1       1.003   8.890  18.492  0.00  0.00    +0.000 C 
ATOM      4  N   UNL     1       0.799   8.808  19.946  0.00  0.00    +0.000 N 
ATOM      5  C   UNL     1       1.192   7.530  20.566  0.00  0.00    +0.000 C 
ATOM      6  C   UNL     1       2.621   7.104  20.142  0.00  0.00    +0.000 C 
ENDROOT
BRANCH   1   9
ATOM      7  C   UNL     1       4.914   5.020  16.468  0.00  0.00    +0.000 A 
ATOM      8  C   UNL     1       4.445   6.262  17.165  0.00  0.00    +0.000 A 
ATOM      9  C   UNL     1       3.308   6.165  17.879  0.00  0.00    +0.000 A 
ATOM     10  N   UNL     1       2.630   4.934  17.839  0.00  0.00    +0.000 N 
ATOM     11  C   UNL     1       1.437   4.529  18.369  0.00  0.00    +0.000 A 
ATOM     12  N   UNL     1       1.206   3.274  18.076  0.00  0.00    +0.000 NA
ATOM     13  N   UNL     1       2.259   2.833  17.308  0.00  0.00    +0.000 NA
ATOM     14  C   UNL     1       3.106   3.829  17.149  0.00  0.00    +0.000 A 
ATOM     15  N   UNL     1       4.286   3.880  16.465  0.00  0.00    +0.000 NA
BRANCH   7  16
ATOM     16  C   UNL     1       6.248   5.096  15.737  0.00  0.00    +0.000 C 
BRANCH  16  18
ATOM     17  C   UNL     1       7.672   4.631  17.764  0.00  0.00    +0.000 C 
ATOM     18  C   UNL     1       7.343   5.623  16.660  0.00  0.00    +0.000 C 
ENDBRANCH  16  18
ENDBRANCH   7  16
ENDBRANCH   1   9
BRANCH   4  19
ATOM     19  C   UNL     1       0.423   9.901  20.706  0.00  0.00    +0.000 A 
ATOM     20  C   UNL     1       0.826  11.193  20.330  0.00  0.00    +0.000 A 
ATOM     21  C   UNL     1       0.411  12.334  21.026  0.00  0.00    +0.000 A 
ATOM     22  C   UNL     1      -0.370  12.205  22.168  0.00  0.00    +0.000 A 
ATOM     23  C   UNL     1      -0.741  10.940  22.606  0.00  0.00    +0.000 A 
ATOM     24  C   UNL     1      -0.363   9.814  21.873  0.00  0.00    +0.000 A 
ATOM     25  F   UNL     1      -0.836   8.629  22.295  0.00  0.00    +0.000 F 
ENDBRANCH   4  19
TORSDOF 4
ENDMDL
