MODEL 1
REMARK VINA RESULT:      -7.1      0.000      0.000
REMARK  Name = 
REMARK  3 active torsions:
REMARK  status: ('A' for Active; 'I' for Inactive)
REMARK    1  A    between atoms: N_3  and  C_4
REMARK    2  A    between atoms: C_4  and  C_5
REMARK    3  A    between atoms: N_14  and  C_15
REMARK                            x       y       z     vdW  Elec       q    Type
REMARK                         _______ _______ _______ _____ _____    ______ ____
ROOT
ATOM      1  O   UNL     1       5.157   5.313  14.871  0.00  0.00    +0.000 OA
ATOM      2  C   UNL     1       5.700   4.219  14.910  0.00  0.00    +0.000 C 
ATOM      3  N   UNL     1       5.936   3.529  16.069  0.00  0.00    +0.000 N 
ATOM      4  N   UNL     1       6.175   3.541  13.820  0.00  0.00    +0.000 N 
ATOM      5  H   UNL     1       6.365   2.619  16.022  0.00  0.00    +0.000 HD
ATOM      6  H   UNL     1       6.589   2.638  13.982  0.00  0.00    +0.000 HD
ENDROOT
BRANCH   4   7
ATOM      7  C   UNL     1       6.035   3.996  12.441  0.00  0.00    +0.000 C 
ATOM      8  C   UNL     1       7.383   3.890  11.709  0.00  0.00    +0.000 C 
ATOM      9  C   UNL     1       7.811   2.436  11.474  0.00  0.00    +0.000 C 
ATOM     10  C   UNL     1       6.721   1.606  10.798  0.00  0.00    +0.000 C 
ATOM     11  C   UNL     1       5.369   1.733  11.497  0.00  0.00    +0.000 C 
ATOM     12  C   UNL     1       4.965   3.195  11.684  0.00  0.00    +0.000 C 
ENDBRANCH   4   7
BRANCH   3  13
ATOM     13  C   UNL     1       5.668   4.083  17.386  0.00  0.00    +0.000 C 
BRANCH  13  14
ATOM     14  C   UNL     1       4.281   3.703  17.930  0.00  0.00    +0.000 C 
ATOM     15  C   UNL     1       4.382   3.374  19.424  0.00  0.00    +0.000 C 
ATOM     16  N   UNL     1       3.059   3.275  20.004  0.00  0.00    +0.000 N 
ATOM     17  C   UNL     1       2.700   2.719  21.194  0.00  0.00    +0.000 A 
ATOM     18  C   UNL     1       1.343   2.931  21.277  0.00  0.00    +0.000 A 
ATOM     19  N   UNL     1       0.883   3.601  20.169  0.00  0.00    +0.000 NA
ATOM     20  C   UNL     1       1.944   3.808  19.415  0.00  0.00    +0.000 A 
ATOM     21  C   UNL     1       2.018   4.466  18.077  0.00  0.00    +0.000 C 
ATOM     22  O   UNL     1       3.384   4.825  17.772  0.00  0.00    +0.000 OA
ENDBRANCH  13  14
ENDBRANCH   3  13
TORSDOF 3
ENDMDL
MODEL 2
REMARK VINA RESULT:      -7.0      0.986      1.128
REMARK  Name = 
REMARK  3 active torsions:
REMARK  status: ('A' for Active; 'I' for Inactive)
REMARK    1  A    between atoms: N_3  and  C_4
REMARK    2  A    between atoms: C_4  and  C_5
REMARK    3  A    between atoms: N_14  and  C_15
REMARK                            x       y       z     vdW  Elec       q    Type
REMARK                         _______ _______ _______ _____ _____    ______ ____
ROOT
ATOM      1  O   UNL     1       5.428   5.436  14.836  0.00  0.00    +0.000 OA
ATOM      2  C   UNL     1       5.794   4.271  14.890  0.00  0.00    +0.000 C 
ATOM      3  N   UNL     1       6.020   3.599  16.062  0.00  0.00    +0.000 N 
ATOM      4  N   UNL     1       6.058   3.482  13.804  0.00  0.00    +0.000 N 
ATOM      5  H   UNL     1       6.295   2.631  16.030  0.00  0.00    +0.000 HD
ATOM      6  H   UNL     1       6.338   2.531  13.981  0.00  0.00    +0.000 HD
ENDROOT
BRANCH   4   7
ATOM      7  C   UNL     1       5.870   3.897  12.418  0.00  0.00    +0.000 C 
ATOM      8  C   UNL     1       7.226   3.955  11.694  0.00  0.00    +0.000 C 
ATOM      9  C   UNL     1       7.839   2.566  11.481  0.00  0.00    +0.000 C 
ATOM     10  C   UNL     1       6.869   1.594  10.811  0.00  0.00    +0.000 C 
ATOM     11  C   UNL     1       5.507   1.554  11.502  0.00  0.00    +0.000 C 
ATOM     12  C   UNL     1       4.917   2.955  11.666  0.00  0.00    +0.000 C 
ENDBRANCH   4   7
BRANCH   3  13
ATOM     13  C   UNL     1       5.960   4.242  17.364  0.00  0.00    +0.000 C 
BRANCH  13  14
ATOM     14  C   UNL     1       4.872   3.654  18.278  0.00  0.00    +0.000 C 
ATOM     15  C   UNL     1       4.010   4.785  18.851  0.00  0.00    +0.000 C 
ATOM     16  N   UNL     1       2.833   4.238  19.493  0.00  0.00    +0.000 N 
ATOM     17  C   UNL     1       1.986   4.852  20.365  0.00  0.00    +0.000 A 
ATOM     18  C   UNL     1       1.021   3.909  20.629  0.00  0.00    +0.000 A 
ATOM     19  N   UNL     1       1.267   2.749  19.937  0.00  0.00    +0.000 NA
ATOM     20  C   UNL     1       2.367   2.975  19.245  0.00  0.00    +0.000 A 
ATOM     21  C   UNL     1       3.105   2.043  18.343  0.00  0.00    +0.000 C 
ATOM     22  O   UNL     1       4.020   2.782  17.504  0.00  0.00    +0.000 OA
ENDBRANCH  13  14
ENDBRANCH   3  13
TORSDOF 3
ENDMDL
MODEL 3
REMARK VINA RESULT:      -6.9      1.015      1.118
REMARK  Name = 
REMARK  3 active torsions:
REMARK  status: ('A' for Active; 'I' for Inactive)
REMARK    1  A    between atoms: N_3  and  C_4
REMARK    2  A    between atoms: C_4  and  C_5
REMARK    3  A    between atoms: N_14  and  C_15
REMARK                            x       y       z     vdW  Elec       q    Type
REMARK                         _______ _______ _______ _____ _____    ______ ____
ROOT
ATOM      1  O   UNL     1       5.758   5.574  14.812  0.00  0.00    +0.000 OA
ATOM      2  C   UNL     1       5.953   4.369  14.871  0.00  0.00    +0.000 C 
ATOM      3  N   UNL     1       6.061   3.674  16.047  0.00  0.00    +0.000 N 
ATOM      4  N   UNL     1       6.120   3.548  13.789  0.00  0.00    +0.000 N 
ATOM      5  H   UNL     1       6.194   2.676  16.018  0.00  0.00    +0.000 HD
ATOM      6  H   UNL     1       6.257   2.568  13.970  0.00  0.00    +0.000 HD
ENDROOT
BRANCH   4   7
ATOM      7  C   UNL     1       6.017   3.984  12.401  0.00  0.00    +0.000 C 
ATOM      8  C   UNL     1       7.372   3.823  11.693  0.00  0.00    +0.000 C 
ATOM      9  C   UNL     1       7.758   2.353  11.489  0.00  0.00    +0.000 C 
ATOM     10  C   UNL     1       6.653   1.546  10.809  0.00  0.00    +0.000 C 
ATOM     11  C   UNL     1       5.295   1.727  11.483  0.00  0.00    +0.000 C 
ATOM     12  C   UNL     1       4.934   3.204  11.639  0.00  0.00    +0.000 C 
ENDBRANCH   4   7
BRANCH   3  13
ATOM     13  C   UNL     1       6.071   4.320  17.348  0.00  0.00    +0.000 C 
BRANCH  13  14
ATOM     14  C   UNL     1       4.662   4.537  17.926  0.00  0.00    +0.000 C 
ATOM     15  C   UNL     1       3.955   3.186  18.087  0.00  0.00    +0.000 C 
ATOM     16  N   UNL     1       2.746   3.346  18.867  0.00  0.00    +0.000 N 
ATOM     17  C   UNL     1       1.699   2.484  18.984  0.00  0.00    +0.000 A 
ATOM     18  C   UNL     1       0.846   3.098  19.872  0.00  0.00    +0.000 A 
ATOM     19  N   UNL     1       1.358   4.302  20.290  0.00  0.00    +0.000 NA
ATOM     20  C   UNL     1       2.516   4.428  19.675  0.00  0.00    +0.000 A 
ATOM     21  C   UNL     1       3.483   5.563  19.737  0.00  0.00    +0.000 C 
ATOM     22  O   UNL     1       4.772   5.150  19.230  0.00  0.00    +0.000 OA
ENDBRANCH  13  14
ENDBRANCH   3  13
TORSDOF 3
ENDMDL
MODEL 4
REMARK VINA RESULT:      -6.7      1.711      7.645
REMARK  Name = 
REMARK  3 active torsions:
REMARK  status: ('A' for Active; 'I' for Inactive)
REMARK    1  A    between atoms: N_3  and  C_4
REMARK    2  A    between atoms: C_4  and  C_5
REMARK    3  A    between atoms: N_14  and  C_15
REMARK                            x       y       z     vdW  Elec       q    Type
REMARK                         _______ _______ _______ _____ _____    ______ ____
ROOT
ATOM      1  O   UNL     1       4.020   6.438  17.656  0.00  0.00    +0.000 OA
ATOM      2  C   UNL     1       4.316   5.322  18.056  0.00  0.00    +0.000 C 
ATOM      3  N   UNL     1       5.563   4.771  17.917  0.00  0.00    +0.000 N 
ATOM      4  N   UNL     1       3.453   4.454  18.667  0.00  0.00    +0.000 N 
ATOM      5  H   UNL     1       5.741   3.855  18.296  0.00  0.00    +0.000 HD
ATOM      6  H   UNL     1       3.823   3.568  18.966  0.00  0.00    +0.000 HD
ENDROOT
BRANCH   4   7
ATOM      7  C   UNL     1       2.066   4.767  18.997  0.00  0.00    +0.000 C 
ATOM      8  C   UNL     1       1.160   3.569  18.666  0.00  0.00    +0.000 C 
ATOM      9  C   UNL     1       1.400   2.375  19.598  0.00  0.00    +0.000 C 
ATOM     10  C   UNL     1       1.327   2.761  21.074  0.00  0.00    +0.000 C 
ATOM     11  C   UNL     1       2.196   3.972  21.407  0.00  0.00    +0.000 C 
ATOM     12  C   UNL     1       1.905   5.149  20.476  0.00  0.00    +0.000 C 
ENDBRANCH   4   7
BRANCH   3  13
ATOM     13  C   UNL     1       6.632   5.415  17.172  0.00  0.00    +0.000 C 
BRANCH  13  14
ATOM     14  C   UNL     1       6.907   4.749  15.813  0.00  0.00    +0.000 C 
ATOM     15  C   UNL     1       5.583   4.316  15.171  0.00  0.00    +0.000 C 
ATOM     16  N   UNL     1       5.800   3.932  13.793  0.00  0.00    +0.000 N 
ATOM     17  C   UNL     1       4.974   3.220  12.976  0.00  0.00    +0.000 A 
ATOM     18  C   UNL     1       5.635   3.180  11.770  0.00  0.00    +0.000 A 
ATOM     19  N   UNL     1       6.832   3.850  11.844  0.00  0.00    +0.000 NA
ATOM     20  C   UNL     1       6.906   4.308  13.078  0.00  0.00    +0.000 A 
ATOM     21  C   UNL     1       8.010   5.081  13.717  0.00  0.00    +0.000 C 
ATOM     22  O   UNL     1       7.545   5.702  14.936  0.00  0.00    +0.000 OA
ENDBRANCH  13  14
ENDBRANCH   3  13
TORSDOF 3
ENDMDL
MODEL 5
REMARK VINA RESULT:      -6.7      1.005      1.251
REMARK  Name = 
REMARK  3 active torsions:
REMARK  status: ('A' for Active; 'I' for Inactive)
REMARK    1  A    between atoms: N_3  and  C_4
REMARK    2  A    between atoms: C_4  and  C_5
REMARK    3  A    between atoms: N_14  and  C_15
REMARK                            x       y       z     vdW  Elec       q    Type
REMARK                         _______ _______ _______ _____ _____    ______ ____
ROOT
ATOM      1  O   UNL     1       6.460   5.503  14.674  0.00  0.00    +0.000 OA
ATOM      2  C   UNL     1       6.295   4.298  14.792  0.00  0.00    +0.000 C 
ATOM      3  N   UNL     1       6.053   3.679  15.990  0.00  0.00    +0.000 N 
ATOM      4  N   UNL     1       6.354   3.395  13.766  0.00  0.00    +0.000 N 
ATOM      5  H   UNL     1       5.899   2.684  16.007  0.00  0.00    +0.000 HD
ATOM      6  H   UNL     1       6.183   2.429  13.991  0.00  0.00    +0.000 HD
ENDROOT
BRANCH   4   7
ATOM      7  C   UNL     1       6.552   3.751  12.365  0.00  0.00    +0.000 C 
ATOM      8  C   UNL     1       7.087   2.540  11.582  0.00  0.00    +0.000 C 
ATOM      9  C   UNL     1       6.042   1.427  11.435  0.00  0.00    +0.000 C 
ATOM     10  C   UNL     1       4.717   1.938  10.872  0.00  0.00    +0.000 C 
ATOM     11  C   UNL     1       4.195   3.162  11.621  0.00  0.00    +0.000 C 
ATOM     12  C   UNL     1       5.255   4.259  11.718  0.00  0.00    +0.000 C 
ENDBRANCH   4   7
BRANCH   3  13
ATOM     13  C   UNL     1       6.086   4.380  17.262  0.00  0.00    +0.000 C 
BRANCH  13  14
ATOM     14  C   UNL     1       4.715   4.430  17.959  0.00  0.00    +0.000 C 
ATOM     15  C   UNL     1       4.678   3.409  19.102  0.00  0.00    +0.000 C 
ATOM     16  N   UNL     1       3.508   3.626  19.926  0.00  0.00    +0.000 N 
ATOM     17  C   UNL     1       2.950   2.781  20.837  0.00  0.00    +0.000 A 
ATOM     18  C   UNL     1       1.895   3.491  21.363  0.00  0.00    +0.000 A 
ATOM     19  N   UNL     1       1.810   4.737  20.793  0.00  0.00    +0.000 NA
ATOM     20  C   UNL     1       2.805   4.802  19.931  0.00  0.00    +0.000 A 
ATOM     21  C   UNL     1       3.166   5.919  19.011  0.00  0.00    +0.000 C 
ATOM     22  O   UNL     1       4.514   5.747  18.520  0.00  0.00    +0.000 OA
ENDBRANCH  13  14
ENDBRANCH   3  13
TORSDOF 3
ENDMDL
MODEL 6
REMARK VINA RESULT:      -6.6      4.955      6.515
REMARK  Name = 
REMARK  3 active torsions:
REMARK  status: ('A' for Active; 'I' for Inactive)
REMARK    1  A    between atoms: N_3  and  C_4
REMARK    2  A    between atoms: C_4  and  C_5
REMARK    3  A    between atoms: N_14  and  C_15
REMARK                            x       y       z     vdW  Elec       q    Type
REMARK                         _______ _______ _______ _____ _____    ______ ____
ROOT
ATOM      1  O   UNL     1       2.163   5.776  18.217  0.00  0.00    +0.000 OA
ATOM      2  C   UNL     1       3.101   6.541  18.044  0.00  0.00    +0.000 C 
ATOM      3  N   UNL     1       2.980   7.905  18.050  0.00  0.00    +0.000 N 
ATOM      4  N   UNL     1       4.389   6.155  17.791  0.00  0.00    +0.000 N 
ATOM      5  H   UNL     1       3.803   8.473  17.927  0.00  0.00    +0.000 HD
ATOM      6  H   UNL     1       5.076   6.882  17.682  0.00  0.00    +0.000 HD
ENDROOT
BRANCH   4   7
ATOM      7  C   UNL     1       4.845   4.769  17.764  0.00  0.00    +0.000 C 
ATOM      8  C   UNL     1       4.602   4.159  16.373  0.00  0.00    +0.000 C 
ATOM      9  C   UNL     1       5.511   4.766  15.298  0.00  0.00    +0.000 C 
ATOM     10  C   UNL     1       6.986   4.733  15.691  0.00  0.00    +0.000 C 
ATOM     11  C   UNL     1       7.235   5.305  17.085  0.00  0.00    +0.000 C 
ATOM     12  C   UNL     1       6.332   4.652  18.132  0.00  0.00    +0.000 C 
ENDBRANCH   4   7
BRANCH   3  13
ATOM     13  C   UNL     1       1.699   8.583  18.148  0.00  0.00    +0.000 C 
BRANCH  13  14
ATOM     14  C   UNL     1       1.479   9.266  19.509  0.00  0.00    +0.000 C 
ATOM     15  C   UNL     1       0.196  10.104  19.467  0.00  0.00    +0.000 C 
ATOM     16  N   UNL     1      -0.162  10.535  20.802  0.00  0.00    +0.000 N 
ATOM     17  C   UNL     1      -1.032  11.517  21.166  0.00  0.00    +0.000 A 
ATOM     18  C   UNL     1      -1.036  11.481  22.541  0.00  0.00    +0.000 A 
ATOM     19  N   UNL     1      -0.194  10.501  23.008  0.00  0.00    +0.000 NA
ATOM     20  C   UNL     1       0.318   9.933  21.934  0.00  0.00    +0.000 A 
ATOM     21  C   UNL     1       1.319   8.829  21.855  0.00  0.00    +0.000 C 
ATOM     22  O   UNL     1       1.327   8.255  20.530  0.00  0.00    +0.000 OA
ENDBRANCH  13  14
ENDBRANCH   3  13
TORSDOF 3
ENDMDL
MODEL 7
REMARK VINA RESULT:      -6.5      1.877      2.577
REMARK  Name = 
REMARK  3 active torsions:
REMARK  status: ('A' for Active; 'I' for Inactive)
REMARK    1  A    between atoms: N_3  and  C_4
REMARK    2  A    between atoms: C_4  and  C_5
REMARK    3  A    between atoms: N_14  and  C_15
REMARK                            x       y       z     vdW  Elec       q    Type
REMARK                         _______ _______ _______ _____ _____    ______ ____
ROOT
ATOM      1  O   UNL     1       7.059   5.546  14.390  0.00  0.00    +0.000 OA
ATOM      2  C   UNL     1       6.629   4.423  14.606  0.00  0.00    +0.000 C 
ATOM      3  N   UNL     1       6.591   3.850  15.850  0.00  0.00    +0.000 N 
ATOM      4  N   UNL     1       6.153   3.569  13.649  0.00  0.00    +0.000 N 
ATOM      5  H   UNL     1       6.197   2.929  15.956  0.00  0.00    +0.000 HD
ATOM      6  H   UNL     1       5.810   2.674  13.957  0.00  0.00    +0.000 HD
ENDROOT
BRANCH   4   7
ATOM      7  C   UNL     1       6.024   3.905  12.235  0.00  0.00    +0.000 C 
ATOM      8  C   UNL     1       7.370   3.707  11.518  0.00  0.00    +0.000 C 
ATOM      9  C   UNL     1       7.767   2.229  11.412  0.00  0.00    +0.000 C 
ATOM     10  C   UNL     1       6.661   1.367  10.808  0.00  0.00    +0.000 C 
ATOM     11  C   UNL     1       5.311   1.582  11.489  0.00  0.00    +0.000 C 
ATOM     12  C   UNL     1       4.937   3.063  11.547  0.00  0.00    +0.000 C 
ENDBRANCH   4   7
BRANCH   3  13
ATOM     13  C   UNL     1       7.170   4.477  17.026  0.00  0.00    +0.000 C 
BRANCH  13  14
ATOM     14  C   UNL     1       6.115   5.069  17.975  0.00  0.00    +0.000 C 
ATOM     15  C   UNL     1       5.276   6.114  17.230  0.00  0.00    +0.000 C 
ATOM     16  N   UNL     1       4.123   6.484  18.023  0.00  0.00    +0.000 N 
ATOM     17  C   UNL     1       3.309   7.566  17.874  0.00  0.00    +0.000 A 
ATOM     18  C   UNL     1       2.352   7.414  18.850  0.00  0.00    +0.000 A 
ATOM     19  N   UNL     1       2.571   6.269  19.577  0.00  0.00    +0.000 NA
ATOM     20  C   UNL     1       3.645   5.715  19.051  0.00  0.00    +0.000 A 
ATOM     21  C   UNL     1       4.348   4.468  19.472  0.00  0.00    +0.000 C 
ATOM     22  O   UNL     1       5.233   4.016  18.423  0.00  0.00    +0.000 OA
ENDBRANCH  13  14
ENDBRANCH   3  13
TORSDOF 3
ENDMDL
MODEL 8
REMARK VINA RESULT:      -6.5      1.288      1.816
REMARK  Name = 
REMARK  3 active torsions:
REMARK  status: ('A' for Active; 'I' for Inactive)
REMARK    1  A    between atoms: N_3  and  C_4
REMARK    2  A    between atoms: C_4  and  C_5
REMARK    3  A    between atoms: N_14  and  C_15
REMARK                            x       y       z     vdW  Elec       q    Type
REMARK                         _______ _______ _______ _____ _____    ______ ____
ROOT
ATOM      1  O   UNL     1       6.763   5.460  14.786  0.00  0.00    +0.000 OA
ATOM      2  C   UNL     1       6.374   4.304  14.873  0.00  0.00    +0.000 C 
ATOM      3  N   UNL     1       6.023   3.708  16.055  0.00  0.00    +0.000 N 
ATOM      4  N   UNL     1       6.260   3.435  13.822  0.00  0.00    +0.000 N 
ATOM      5  H   UNL     1       5.685   2.759  16.046  0.00  0.00    +0.000 HD
ATOM      6  H   UNL     1       5.912   2.513  14.021  0.00  0.00    +0.000 HD
ENDROOT
BRANCH   4   7
ATOM      7  C   UNL     1       6.520   3.787  12.430  0.00  0.00    +0.000 C 
ATOM      8  C   UNL     1       7.187   2.608  11.701  0.00  0.00    +0.000 C 
ATOM      9  C   UNL     1       6.236   1.421  11.510  0.00  0.00    +0.000 C 
ATOM     10  C   UNL     1       4.915   1.826  10.859  0.00  0.00    +0.000 C 
ATOM     11  C   UNL     1       4.261   3.019  11.554  0.00  0.00    +0.000 C 
ATOM     12  C   UNL     1       5.231   4.191  11.697  0.00  0.00    +0.000 C 
ENDBRANCH   4   7
BRANCH   3  13
ATOM     13  C   UNL     1       6.190   4.354  17.345  0.00  0.00    +0.000 C 
BRANCH  13  14
ATOM     14  C   UNL     1       5.008   4.112  18.299  0.00  0.00    +0.000 C 
ATOM     15  C   UNL     1       3.733   3.850  17.487  0.00  0.00    +0.000 C 
ATOM     16  N   UNL     1       2.681   3.364  18.355  0.00  0.00    +0.000 N 
ATOM     17  C   UNL     1       1.344   3.299  18.104  0.00  0.00    +0.000 A 
ATOM     18  C   UNL     1       0.811   2.721  19.233  0.00  0.00    +0.000 A 
ATOM     19  N   UNL     1       1.793   2.437  20.149  0.00  0.00    +0.000 NA
ATOM     20  C   UNL     1       2.922   2.826  19.592  0.00  0.00    +0.000 A 
ATOM     21  C   UNL     1       4.302   2.783  20.159  0.00  0.00    +0.000 C 
ATOM     22  O   UNL     1       5.279   2.945  19.107  0.00  0.00    +0.000 OA
ENDBRANCH  13  14
ENDBRANCH   3  13
TORSDOF 3
ENDMDL
MODEL 9
REMARK VINA RESULT:      -6.5      1.742      7.339
REMARK  Name = 
REMARK  3 active torsions:
REMARK  status: ('A' for Active; 'I' for Inactive)
REMARK    1  A    between atoms: N_3  and  C_4
REMARK    2  A    between atoms: C_4  and  C_5
REMARK    3  A    between atoms: N_14  and  C_15
REMARK                            x       y       z     vdW  Elec       q    Type
REMARK                         _______ _______ _______ _____ _____    ______ ____
ROOT
ATOM      1  O   UNL     1       4.878   5.927  18.969  0.00  0.00    +0.000 OA
ATOM      2  C   UNL     1       5.054   4.721  18.883  0.00  0.00    +0.000 C 
ATOM      3  N   UNL     1       6.124   4.153  18.244  0.00  0.00    +0.000 N 
ATOM      4  N   UNL     1       4.207   3.768  19.381  0.00  0.00    +0.000 N 
ATOM      5  H   UNL     1       6.218   3.150  18.237  0.00  0.00    +0.000 HD
ATOM      6  H   UNL     1       4.473   2.805  19.260  0.00  0.00    +0.000 HD
ENDROOT
BRANCH   4   7
ATOM      7  C   UNL     1       3.002   4.058  20.152  0.00  0.00    +0.000 C 
ATOM      8  C   UNL     1       1.987   4.817  19.281  0.00  0.00    +0.000 C 
ATOM      9  C   UNL     1       1.395   3.942  18.169  0.00  0.00    +0.000 C 
ATOM     10  C   UNL     1       0.830   2.625  18.699  0.00  0.00    +0.000 C 
ATOM     11  C   UNL     1       1.818   1.880  19.593  0.00  0.00    +0.000 C 
ATOM     12  C   UNL     1       2.360   2.777  20.706  0.00  0.00    +0.000 C 
ENDBRANCH   4   7
BRANCH   3  13
ATOM     13  C   UNL     1       7.100   4.928  17.497  0.00  0.00    +0.000 C 
BRANCH  13  14
ATOM     14  C   UNL     1       7.239   4.476  16.034  0.00  0.00    +0.000 C 
ATOM     15  C   UNL     1       5.872   4.035  15.496  0.00  0.00    +0.000 C 
ATOM     16  N   UNL     1       5.935   3.860  14.060  0.00  0.00    +0.000 N 
ATOM     17  C   UNL     1       5.056   3.205  13.252  0.00  0.00    +0.000 A 
ATOM     18  C   UNL     1       5.560   3.379  11.984  0.00  0.00    +0.000 A 
ATOM     19  N   UNL     1       6.715   4.122  12.013  0.00  0.00    +0.000 NA
ATOM     20  C   UNL     1       6.918   4.411  13.283  0.00  0.00    +0.000 A 
ATOM     21  C   UNL     1       8.048   5.172  13.893  0.00  0.00    +0.000 C 
ATOM     22  O   UNL     1       7.705   5.585  15.234  0.00  0.00    +0.000 OA
ENDBRANCH  13  14
ENDBRANCH   3  13
TORSDOF 3
ENDMDL
