MODEL 1
REMARK VINA RESULT:      -8.7      0.000      0.000
REMARK  Name = 
REMARK  5 active torsions:
REMARK  status: ('A' for Active; 'I' for Inactive)
REMARK    1  A    between atoms: C_1  and  S_2
REMARK    2  A    between atoms: S_2  and  C_3
REMARK    3  A    between atoms: C_5  and  C_6
REMARK    4  A    between atoms: C_13  and  C_14
REMARK    5  A    between atoms: C_20  and  C_22
REMARK                            x       y       z     vdW  Elec       q    Type
REMARK                         _______ _______ _______ _____ _____    ______ ____
ROOT
ATOM      1  C   UNL     1       6.174   4.170  14.082  0.00  0.00    +0.000 A 
ATOM      2  N   UNL     1       5.098   3.835  14.745  0.00  0.00    +0.000 NA
ATOM      3  C   UNL     1       5.202   4.504  15.951  0.00  0.00    +0.000 A 
ATOM      4  C   UNL     1       6.403   5.208  16.036  0.00  0.00    +0.000 A 
ATOM      5  N   UNL     1       6.982   4.995  14.800  0.00  0.00    +0.000 N 
ATOM      6  H   UNL     1       7.863   5.358  14.473  0.00  0.00    +0.000 HD
ENDROOT
BRANCH   4   7
ATOM      7  C   UNL     1       7.043   6.022  17.077  0.00  0.00    +0.000 A 
ATOM      8  C   UNL     1       7.486   5.432  18.261  0.00  0.00    +0.000 A 
ATOM      9  C   UNL     1       8.153   6.222  19.175  0.00  0.00    +0.000 A 
ATOM     10  N   UNL     1       8.414   7.529  18.983  0.00  0.00    +0.000 NA
ATOM     11  C   UNL     1       7.992   8.108  17.851  0.00  0.00    +0.000 A 
ATOM     12  N   UNL     1       8.302   9.451  17.576  0.00  0.00    +0.000 N 
ATOM     13  C   UNL     1       9.017  10.276  18.420  0.00  0.00    +0.000 C 
ATOM     14  O   UNL     1       9.489   9.997  19.514  0.00  0.00    +0.000 OA
ATOM     15  C   UNL     1       7.271   7.395  16.897  0.00  0.00    +0.000 A 
ATOM     16  H   UNL     1       8.014   9.813  16.684  0.00  0.00    +0.000 HD
BRANCH  13  17
ATOM     17  C   UNL     1       9.250  11.672  17.930  0.00  0.00    +0.000 C 
ATOM     18  C   UNL     1       8.074  12.542  17.549  0.00  0.00    +0.000 C 
ATOM     19  C   UNL     1       8.979  12.956  18.672  0.00  0.00    +0.000 C 
ENDBRANCH  13  17
ENDBRANCH   4   7
BRANCH   3  20
ATOM     20  C   UNL     1       4.169   4.405  16.973  0.00  0.00    +0.000 A 
ATOM     21  C   UNL     1       3.609   5.576  17.507  0.00  0.00    +0.000 A 
ATOM     22  C   UNL     1       2.533   5.503  18.396  0.00  0.00    +0.000 A 
ATOM     23  C   UNL     1       2.016   4.262  18.748  0.00  0.00    +0.000 A 
ATOM     24  F   UNL     1       0.948   4.193  19.553  0.00  0.00    +0.000 F 
ATOM     25  C   UNL     1       2.588   3.090  18.273  0.00  0.00    +0.000 A 
ATOM     26  C   UNL     1       3.686   3.162  17.416  0.00  0.00    +0.000 A 
ENDBRANCH   3  20
BRANCH   1  28
ATOM     27  C   UNL     1       5.042   3.217  11.800  0.00  0.00    +0.000 C 
ATOM     28  S   UNL     1       6.637   3.708  12.488  0.00  0.00    +0.000 S 
ENDBRANCH   1  28
TORSDOF 4
ENDMDL
MODEL 2
REMARK VINA RESULT:      -8.5      0.470      1.167
REMARK  Name = 
REMARK  5 active torsions:
REMARK  status: ('A' for Active; 'I' for Inactive)
REMARK    1  A    between atoms: C_1  and  S_2
REMARK    2  A    between atoms: S_2  and  C_3
REMARK    3  A    between atoms: C_5  and  C_6
REMARK    4  A    between atoms: C_13  and  C_14
REMARK    5  A    between atoms: C_20  and  C_22
REMARK                            x       y       z     vdW  Elec       q    Type
REMARK                         _______ _______ _______ _____ _____    ______ ____
ROOT
ATOM      1  C   UNL     1       6.306   4.280  14.088  0.00  0.00    +0.000 A 
ATOM      2  N   UNL     1       5.176   4.017  14.692  0.00  0.00    +0.000 NA
ATOM      3  C   UNL     1       5.256   4.684  15.900  0.00  0.00    +0.000 A 
ATOM      4  C   UNL     1       6.493   5.312  16.049  0.00  0.00    +0.000 A 
ATOM      5  N   UNL     1       7.123   5.056  14.848  0.00  0.00    +0.000 N 
ATOM      6  H   UNL     1       8.043   5.361  14.568  0.00  0.00    +0.000 HD
ENDROOT
BRANCH   4   7
ATOM      7  C   UNL     1       7.125   6.089  17.123  0.00  0.00    +0.000 A 
ATOM      8  C   UNL     1       7.587   5.455  18.277  0.00  0.00    +0.000 A 
ATOM      9  C   UNL     1       8.245   6.214  19.221  0.00  0.00    +0.000 A 
ATOM     10  N   UNL     1       8.482   7.533  19.087  0.00  0.00    +0.000 NA
ATOM     11  C   UNL     1       8.042   8.155  17.984  0.00  0.00    +0.000 A 
ATOM     12  N   UNL     1       8.328   9.514  17.768  0.00  0.00    +0.000 N 
ATOM     13  C   UNL     1       9.033  10.313  18.644  0.00  0.00    +0.000 C 
ATOM     14  O   UNL     1       9.518   9.993  19.722  0.00  0.00    +0.000 OA
ATOM     15  C   UNL     1       7.328   7.473  17.003  0.00  0.00    +0.000 A 
ATOM     16  H   UNL     1       8.027   9.911  16.895  0.00  0.00    +0.000 HD
BRANCH  13  17
ATOM     17  C   UNL     1       9.238  11.734  18.216  0.00  0.00    +0.000 C 
ATOM     18  C   UNL     1      10.203  12.616  18.974  0.00  0.00    +0.000 C 
ATOM     19  C   UNL     1      10.445  12.313  17.525  0.00  0.00    +0.000 C 
ENDBRANCH  13  17
ENDBRANCH   4   7
BRANCH   3  20
ATOM     20  C   UNL     1       4.165   4.656  16.865  0.00  0.00    +0.000 A 
ATOM     21  C   UNL     1       3.642   3.423  17.284  0.00  0.00    +0.000 A 
ATOM     22  C   UNL     1       2.683   3.371  18.299  0.00  0.00    +0.000 A 
ATOM     23  C   UNL     1       2.249   4.549  18.896  0.00  0.00    +0.000 A 
ATOM     24  F   UNL     1       1.374   4.496  19.907  0.00  0.00    +0.000 F 
ATOM     25  C   UNL     1       2.714   5.782  18.460  0.00  0.00    +0.000 A 
ATOM     26  C   UNL     1       3.643   5.836  17.421  0.00  0.00    +0.000 A 
ENDBRANCH   3  20
BRANCH   1  28
ATOM     27  C   UNL     1       5.289   3.111  11.853  0.00  0.00    +0.000 C 
ATOM     28  S   UNL     1       6.824   3.781  12.523  0.00  0.00    +0.000 S 
ENDBRANCH   1  28
TORSDOF 4
ENDMDL
MODEL 3
REMARK VINA RESULT:      -8.5      3.910      6.559
REMARK  Name = 
REMARK  5 active torsions:
REMARK  status: ('A' for Active; 'I' for Inactive)
REMARK    1  A    between atoms: C_1  and  S_2
REMARK    2  A    between atoms: S_2  and  C_3
REMARK    3  A    between atoms: C_5  and  C_6
REMARK    4  A    between atoms: C_13  and  C_14
REMARK    5  A    between atoms: C_20  and  C_22
REMARK                            x       y       z     vdW  Elec       q    Type
REMARK                         _______ _______ _______ _____ _____    ______ ____
ROOT
ATOM      1  C   UNL     1       3.146   3.690  20.373  0.00  0.00    +0.000 A 
ATOM      2  N   UNL     1       2.483   4.816  20.418  0.00  0.00    +0.000 NA
ATOM      3  C   UNL     1       3.084   5.620  19.468  0.00  0.00    +0.000 A 
ATOM      4  C   UNL     1       4.177   4.979  18.882  0.00  0.00    +0.000 A 
ATOM      5  N   UNL     1       4.159   3.729  19.468  0.00  0.00    +0.000 N 
ATOM      6  H   UNL     1       4.794   2.966  19.289  0.00  0.00    +0.000 HD
ENDROOT
BRANCH   4   7
ATOM      7  C   UNL     1       5.182   5.371  17.887  0.00  0.00    +0.000 A 
ATOM      8  C   UNL     1       6.281   6.145  18.260  0.00  0.00    +0.000 A 
ATOM      9  C   UNL     1       7.240   6.420  17.307  0.00  0.00    +0.000 A 
ATOM     10  N   UNL     1       7.184   5.971  16.038  0.00  0.00    +0.000 NA
ATOM     11  C   UNL     1       6.132   5.228  15.667  0.00  0.00    +0.000 A 
ATOM     12  N   UNL     1       6.066   4.680  14.375  0.00  0.00    +0.000 N 
ATOM     13  C   UNL     1       7.020   4.867  13.397  0.00  0.00    +0.000 C 
ATOM     14  O   UNL     1       8.054   5.517  13.477  0.00  0.00    +0.000 OA
ATOM     15  C   UNL     1       5.097   4.943  16.553  0.00  0.00    +0.000 A 
ATOM     16  H   UNL     1       5.285   4.080  14.173  0.00  0.00    +0.000 HD
BRANCH  13  17
ATOM     17  C   UNL     1       6.763   4.182  12.089  0.00  0.00    +0.000 C 
ATOM     18  C   UNL     1       7.192   2.746  11.894  0.00  0.00    +0.000 C 
ATOM     19  C   UNL     1       5.740   3.113  11.805  0.00  0.00    +0.000 C 
ENDBRANCH  13  17
ENDBRANCH   4   7
BRANCH   3  20
ATOM     20  C   UNL     1       2.611   6.970  19.196  0.00  0.00    +0.000 A 
ATOM     21  C   UNL     1       2.812   7.531  17.925  0.00  0.00    +0.000 A 
ATOM     22  C   UNL     1       2.258   8.774  17.606  0.00  0.00    +0.000 A 
ATOM     23  C   UNL     1       1.500   9.453  18.554  0.00  0.00    +0.000 A 
ATOM     24  F   UNL     1       0.920  10.615  18.230  0.00  0.00    +0.000 F 
ATOM     25  C   UNL     1       1.333   8.939  19.833  0.00  0.00    +0.000 A 
ATOM     26  C   UNL     1       1.918   7.718  20.163  0.00  0.00    +0.000 A 
ENDBRANCH   3  20
BRANCH   1  28
ATOM     27  C   UNL     1       1.234   2.578  21.956  0.00  0.00    +0.000 C 
ATOM     28  S   UNL     1       2.875   2.251  21.281  0.00  0.00    +0.000 S 
ENDBRANCH   1  28
TORSDOF 4
ENDMDL
MODEL 4
REMARK VINA RESULT:      -8.2      4.080      6.920
REMARK  Name = 
REMARK  5 active torsions:
REMARK  status: ('A' for Active; 'I' for Inactive)
REMARK    1  A    between atoms: C_1  and  S_2
REMARK    2  A    between atoms: S_2  and  C_3
REMARK    3  A    between atoms: C_5  and  C_6
REMARK    4  A    between atoms: C_13  and  C_14
REMARK    5  A    between atoms: C_20  and  C_22
REMARK                            x       y       z     vdW  Elec       q    Type
REMARK                         _______ _______ _______ _____ _____    ______ ____
ROOT
ATOM      1  C   UNL     1       2.221   4.446  20.677  0.00  0.00    +0.000 A 
ATOM      2  N   UNL     1       1.682   5.636  20.718  0.00  0.00    +0.000 NA
ATOM      3  C   UNL     1       2.312   6.346  19.712  0.00  0.00    +0.000 A 
ATOM      4  C   UNL     1       3.299   5.577  19.094  0.00  0.00    +0.000 A 
ATOM      5  N   UNL     1       3.183   4.352  19.721  0.00  0.00    +0.000 N 
ATOM      6  H   UNL     1       3.724   3.522  19.535  0.00  0.00    +0.000 HD
ENDROOT
BRANCH   4   7
ATOM      7  C   UNL     1       4.284   5.832  18.036  0.00  0.00    +0.000 A 
ATOM      8  C   UNL     1       5.214   6.863  18.171  0.00  0.00    +0.000 A 
ATOM      9  C   UNL     1       6.171   7.013  17.189  0.00  0.00    +0.000 A 
ATOM     10  N   UNL     1       6.269   6.211  16.111  0.00  0.00    +0.000 NA
ATOM     11  C   UNL     1       5.379   5.218  15.968  0.00  0.00    +0.000 A 
ATOM     12  N   UNL     1       5.485   4.314  14.898  0.00  0.00    +0.000 N 
ATOM     13  C   UNL     1       6.453   4.373  13.918  0.00  0.00    +0.000 C 
ATOM     14  O   UNL     1       7.358   5.191  13.810  0.00  0.00    +0.000 OA
ATOM     15  C   UNL     1       4.354   5.026  16.889  0.00  0.00    +0.000 A 
ATOM     16  H   UNL     1       4.829   3.553  14.877  0.00  0.00    +0.000 HD
BRANCH  13  17
ATOM     17  C   UNL     1       6.394   3.303  12.871  0.00  0.00    +0.000 C 
ATOM     18  C   UNL     1       5.300   3.328  11.829  0.00  0.00    +0.000 C 
ATOM     19  C   UNL     1       6.737   3.436  11.410  0.00  0.00    +0.000 C 
ENDBRANCH  13  17
ENDBRANCH   4   7
BRANCH   3  20
ATOM     20  C   UNL     1       1.967   7.730  19.419  0.00  0.00    +0.000 A 
ATOM     21  C   UNL     1       2.129   8.223  18.115  0.00  0.00    +0.000 A 
ATOM     22  C   UNL     1       1.689   9.508  17.786  0.00  0.00    +0.000 A 
ATOM     23  C   UNL     1       1.085  10.298  18.757  0.00  0.00    +0.000 A 
ATOM     24  F   UNL     1       0.610  11.505  18.429  0.00  0.00    +0.000 F 
ATOM     25  C   UNL     1       0.962   9.849  20.066  0.00  0.00    +0.000 A 
ATOM     26  C   UNL     1       1.436   8.582  20.402  0.00  0.00    +0.000 A 
ENDBRANCH   3  20
BRANCH   1  28
ATOM     27  C   UNL     1       3.323   2.059  21.376  0.00  0.00    +0.000 C 
ATOM     28  S   UNL     1       1.851   3.069  21.644  0.00  0.00    +0.000 S 
ENDBRANCH   1  28
TORSDOF 4
ENDMDL
MODEL 5
REMARK VINA RESULT:      -8.1      4.240      5.985
REMARK  Name = 
REMARK  5 active torsions:
REMARK  status: ('A' for Active; 'I' for Inactive)
REMARK    1  A    between atoms: C_1  and  S_2
REMARK    2  A    between atoms: S_2  and  C_3
REMARK    3  A    between atoms: C_5  and  C_6
REMARK    4  A    between atoms: C_13  and  C_14
REMARK    5  A    between atoms: C_20  and  C_22
REMARK                            x       y       z     vdW  Elec       q    Type
REMARK                         _______ _______ _______ _____ _____    ______ ____
ROOT
ATOM      1  C   UNL     1       5.477   4.515  16.619  0.00  0.00    +0.000 A 
ATOM      2  N   UNL     1       4.917   3.684  17.460  0.00  0.00    +0.000 NA
ATOM      3  C   UNL     1       3.939   4.427  18.095  0.00  0.00    +0.000 A 
ATOM      4  C   UNL     1       3.955   5.755  17.665  0.00  0.00    +0.000 A 
ATOM      5  N   UNL     1       4.935   5.759  16.693  0.00  0.00    +0.000 N 
ATOM      6  H   UNL     1       5.233   6.545  16.135  0.00  0.00    +0.000 HD
ENDROOT
BRANCH   4   7
ATOM      7  C   UNL     1       3.200   6.960  18.032  0.00  0.00    +0.000 A 
ATOM      8  C   UNL     1       3.048   8.003  17.118  0.00  0.00    +0.000 A 
ATOM      9  C   UNL     1       2.263   9.078  17.479  0.00  0.00    +0.000 A 
ATOM     10  N   UNL     1       1.621   9.173  18.658  0.00  0.00    +0.000 NA
ATOM     11  C   UNL     1       1.760   8.178  19.546  0.00  0.00    +0.000 A 
ATOM     12  N   UNL     1       1.054   8.200  20.761  0.00  0.00    +0.000 N 
ATOM     13  C   UNL     1       0.207   9.215  21.153  0.00  0.00    +0.000 C 
ATOM     14  O   UNL     1      -0.070  10.237  20.538  0.00  0.00    +0.000 OA
ATOM     15  C   UNL     1       2.572   7.078  19.281  0.00  0.00    +0.000 A 
ATOM     16  H   UNL     1       1.149   7.398  21.359  0.00  0.00    +0.000 HD
BRANCH  13  17
ATOM     17  C   UNL     1      -0.459   9.037  22.483  0.00  0.00    +0.000 C 
ATOM     18  C   UNL     1       0.268   9.430  23.748  0.00  0.00    +0.000 C 
ATOM     19  C   UNL     1      -1.014  10.115  23.378  0.00  0.00    +0.000 C 
ENDBRANCH  13  17
ENDBRANCH   4   7
BRANCH   3  20
ATOM     20  C   UNL     1       3.066   3.842  19.104  0.00  0.00    +0.000 A 
ATOM     21  C   UNL     1       3.627   3.264  20.253  0.00  0.00    +0.000 A 
ATOM     22  C   UNL     1       2.804   2.811  21.288  0.00  0.00    +0.000 A 
ATOM     23  C   UNL     1       1.424   2.938  21.176  0.00  0.00    +0.000 A 
ATOM     24  F   UNL     1       0.639   2.558  22.191  0.00  0.00    +0.000 F 
ATOM     25  C   UNL     1       0.848   3.459  20.025  0.00  0.00    +0.000 A 
ATOM     26  C   UNL     1       1.667   3.876  18.977  0.00  0.00    +0.000 A 
ENDBRANCH   3  20
BRANCH   1  28
ATOM     27  C   UNL     1       5.804   4.055  13.958  0.00  0.00    +0.000 C 
ATOM     28  S   UNL     1       6.743   4.207  15.493  0.00  0.00    +0.000 S 
ENDBRANCH   1  28
TORSDOF 4
ENDMDL
MODEL 6
REMARK VINA RESULT:      -8.1      3.465      6.002
REMARK  Name = 
REMARK  5 active torsions:
REMARK  status: ('A' for Active; 'I' for Inactive)
REMARK    1  A    between atoms: C_1  and  S_2
REMARK    2  A    between atoms: S_2  and  C_3
REMARK    3  A    between atoms: C_5  and  C_6
REMARK    4  A    between atoms: C_13  and  C_14
REMARK    5  A    between atoms: C_20  and  C_22
REMARK                            x       y       z     vdW  Elec       q    Type
REMARK                         _______ _______ _______ _____ _____    ______ ____
ROOT
ATOM      1  C   UNL     1       6.338   4.252  14.055  0.00  0.00    +0.000 A 
ATOM      2  N   UNL     1       7.115   5.104  14.670  0.00  0.00    +0.000 NA
ATOM      3  C   UNL     1       6.491   5.344  15.880  0.00  0.00    +0.000 A 
ATOM      4  C   UNL     1       5.275   4.664  15.965  0.00  0.00    +0.000 A 
ATOM      5  N   UNL     1       5.232   3.948  14.785  0.00  0.00    +0.000 N 
ATOM      6  H   UNL     1       4.505   3.319  14.484  0.00  0.00    +0.000 HD
ENDROOT
BRANCH   4   7
ATOM      7  C   UNL     1       4.204   4.600  16.967  0.00  0.00    +0.000 A 
ATOM      8  C   UNL     1       3.619   3.378  17.298  0.00  0.00    +0.000 A 
ATOM      9  C   UNL     1       2.673   3.357  18.303  0.00  0.00    +0.000 A 
ATOM     10  N   UNL     1       2.293   4.448  18.994  0.00  0.00    +0.000 NA
ATOM     11  C   UNL     1       2.846   5.629  18.683  0.00  0.00    +0.000 A 
ATOM     12  N   UNL     1       2.532   6.782  19.424  0.00  0.00    +0.000 N 
ATOM     13  C   UNL     1       1.642   6.815  20.477  0.00  0.00    +0.000 C 
ATOM     14  O   UNL     1       0.994   5.884  20.937  0.00  0.00    +0.000 OA
ATOM     15  C   UNL     1       3.774   5.746  17.652  0.00  0.00    +0.000 A 
ATOM     16  H   UNL     1       3.025   7.625  19.186  0.00  0.00    +0.000 HD
BRANCH  13  17
ATOM     17  C   UNL     1       1.460   8.146  21.140  0.00  0.00    +0.000 C 
ATOM     18  C   UNL     1       0.743   9.259  20.411  0.00  0.00    +0.000 C 
ATOM     19  C   UNL     1       0.182   8.722  21.695  0.00  0.00    +0.000 C 
ENDBRANCH  13  17
ENDBRANCH   4   7
BRANCH   3  20
ATOM     20  C   UNL     1       7.067   6.237  16.876  0.00  0.00    +0.000 A 
ATOM     21  C   UNL     1       7.600   5.703  18.060  0.00  0.00    +0.000 A 
ATOM     22  C   UNL     1       8.267   6.529  18.969  0.00  0.00    +0.000 A 
ATOM     23  C   UNL     1       8.404   7.885  18.695  0.00  0.00    +0.000 A 
ATOM     24  F   UNL     1       9.092   8.665  19.537  0.00  0.00    +0.000 F 
ATOM     25  C   UNL     1       7.838   8.442  17.556  0.00  0.00    +0.000 A 
ATOM     26  C   UNL     1       7.140   7.624  16.668  0.00  0.00    +0.000 A 
ENDBRANCH   3  20
BRANCH   1  28
ATOM     27  C   UNL     1       4.852   3.316  11.977  0.00  0.00    +0.000 C 
ATOM     28  S   UNL     1       6.564   3.517  12.513  0.00  0.00    +0.000 S 
ENDBRANCH   1  28
TORSDOF 4
ENDMDL
MODEL 7
REMARK VINA RESULT:      -7.9      4.256      6.020
REMARK  Name = 
REMARK  5 active torsions:
REMARK  status: ('A' for Active; 'I' for Inactive)
REMARK    1  A    between atoms: C_1  and  S_2
REMARK    2  A    between atoms: S_2  and  C_3
REMARK    3  A    between atoms: C_5  and  C_6
REMARK    4  A    between atoms: C_13  and  C_14
REMARK    5  A    between atoms: C_20  and  C_22
REMARK                            x       y       z     vdW  Elec       q    Type
REMARK                         _______ _______ _______ _____ _____    ______ ____
ROOT
ATOM      1  C   UNL     1       4.936   4.146  16.475  0.00  0.00    +0.000 A 
ATOM      2  N   UNL     1       4.430   3.411  17.430  0.00  0.00    +0.000 NA
ATOM      3  C   UNL     1       3.619   4.269  18.148  0.00  0.00    +0.000 A 
ATOM      4  C   UNL     1       3.692   5.570  17.646  0.00  0.00    +0.000 A 
ATOM      5  N   UNL     1       4.521   5.439  16.550  0.00  0.00    +0.000 N 
ATOM      6  H   UNL     1       4.805   6.167  15.914  0.00  0.00    +0.000 HD
ENDROOT
BRANCH   4   7
ATOM      7  C   UNL     1       3.104   6.856  18.042  0.00  0.00    +0.000 A 
ATOM      8  C   UNL     1       3.187   7.961  17.195  0.00  0.00    +0.000 A 
ATOM      9  C   UNL     1       2.550   9.124  17.575  0.00  0.00    +0.000 A 
ATOM     10  N   UNL     1       1.839   9.251  18.711  0.00  0.00    +0.000 NA
ATOM     11  C   UNL     1       1.753   8.196  19.535  0.00  0.00    +0.000 A 
ATOM     12  N   UNL     1       0.964   8.259  20.696  0.00  0.00    +0.000 N 
ATOM     13  C   UNL     1       0.255   9.372  21.099  0.00  0.00    +0.000 C 
ATOM     14  O   UNL     1       0.188  10.458  20.539  0.00  0.00    +0.000 OA
ATOM     15  C   UNL     1       2.404   7.000  19.250  0.00  0.00    +0.000 A 
ATOM     16  H   UNL     1       0.886   7.419  21.241  0.00  0.00    +0.000 HD
BRANCH  13  17
ATOM     17  C   UNL     1      -0.534   9.224  22.364  0.00  0.00    +0.000 C 
ATOM     18  C   UNL     1       0.116   9.521  23.696  0.00  0.00    +0.000 C 
ATOM     19  C   UNL     1      -1.066  10.327  23.242  0.00  0.00    +0.000 C 
ENDBRANCH  13  17
ENDBRANCH   4   7
BRANCH   3  20
ATOM     20  C   UNL     1       2.849   3.815  19.298  0.00  0.00    +0.000 A 
ATOM     21  C   UNL     1       1.455   3.690  19.191  0.00  0.00    +0.000 A 
ATOM     22  C   UNL     1       0.714   3.139  20.241  0.00  0.00    +0.000 A 
ATOM     23  C   UNL     1       1.365   2.711  21.392  0.00  0.00    +0.000 A 
ATOM     24  F   UNL     1       0.663   2.130  22.373  0.00  0.00    +0.000 F 
ATOM     25  C   UNL     1       2.736   2.875  21.538  0.00  0.00    +0.000 A 
ATOM     26  C   UNL     1       3.470   3.459  20.507  0.00  0.00    +0.000 A 
ENDBRANCH   3  20
BRANCH   1  28
ATOM     27  C   UNL     1       7.061   5.125  15.087  0.00  0.00    +0.000 C 
ATOM     28  S   UNL     1       6.000   3.670  15.206  0.00  0.00    +0.000 S 
ENDBRANCH   1  28
TORSDOF 4
ENDMDL
MODEL 8
REMARK VINA RESULT:      -7.7      3.415      5.833
REMARK  Name = 
REMARK  5 active torsions:
REMARK  status: ('A' for Active; 'I' for Inactive)
REMARK    1  A    between atoms: C_1  and  S_2
REMARK    2  A    between atoms: S_2  and  C_3
REMARK    3  A    between atoms: C_5  and  C_6
REMARK    4  A    between atoms: C_13  and  C_14
REMARK    5  A    between atoms: C_20  and  C_22
REMARK                            x       y       z     vdW  Elec       q    Type
REMARK                         _______ _______ _______ _____ _____    ______ ____
ROOT
ATOM      1  C   UNL     1       6.130   3.975  13.886  0.00  0.00    +0.000 A 
ATOM      2  N   UNL     1       7.000   4.747  14.482  0.00  0.00    +0.000 NA
ATOM      3  C   UNL     1       6.456   5.000  15.727  0.00  0.00    +0.000 A 
ATOM      4  C   UNL     1       5.196   4.414  15.857  0.00  0.00    +0.000 A 
ATOM      5  N   UNL     1       5.041   3.736  14.664  0.00  0.00    +0.000 N 
ATOM      6  H   UNL     1       4.253   3.173  14.384  0.00  0.00    +0.000 HD
ENDROOT
BRANCH   4   7
ATOM      7  C   UNL     1       4.173   4.405  16.909  0.00  0.00    +0.000 A 
ATOM      8  C   UNL     1       3.620   3.201  17.347  0.00  0.00    +0.000 A 
ATOM      9  C   UNL     1       2.722   3.236  18.393  0.00  0.00    +0.000 A 
ATOM     10  N   UNL     1       2.358   4.366  19.028  0.00  0.00    +0.000 NA
ATOM     11  C   UNL     1       2.880   5.530  18.616  0.00  0.00    +0.000 A 
ATOM     12  N   UNL     1       2.584   6.726  19.293  0.00  0.00    +0.000 N 
ATOM     13  C   UNL     1       1.743   6.819  20.382  0.00  0.00    +0.000 C 
ATOM     14  O   UNL     1       1.129   5.913  20.932  0.00  0.00    +0.000 OA
ATOM     15  C   UNL     1       3.758   5.589  17.537  0.00  0.00    +0.000 A 
ATOM     16  H   UNL     1       3.054   7.557  18.979  0.00  0.00    +0.000 HD
BRANCH  13  17
ATOM     17  C   UNL     1       1.573   8.188  20.965  0.00  0.00    +0.000 C 
ATOM     18  C   UNL     1       0.766   9.228  20.221  0.00  0.00    +0.000 C 
ATOM     19  C   UNL     1       0.326   8.769  21.581  0.00  0.00    +0.000 C 
ENDBRANCH  13  17
ENDBRANCH   4   7
BRANCH   3  20
ATOM     20  C   UNL     1       7.147   5.819  16.714  0.00  0.00    +0.000 A 
ATOM     21  C   UNL     1       7.328   7.190  16.472  0.00  0.00    +0.000 A 
ATOM     22  C   UNL     1       7.877   8.015  17.459  0.00  0.00    +0.000 A 
ATOM     23  C   UNL     1       8.240   7.471  18.685  0.00  0.00    +0.000 A 
ATOM     24  F   UNL     1       8.710   8.271  19.651  0.00  0.00    +0.000 F 
ATOM     25  C   UNL     1       8.117   6.110  18.926  0.00  0.00    +0.000 A 
ATOM     26  C   UNL     1       7.606   5.281  17.928  0.00  0.00    +0.000 A 
ENDBRANCH   3  20
BRANCH   1  28
ATOM     27  C   UNL     1       4.491   3.320  11.817  0.00  0.00    +0.000 C 
ATOM     28  S   UNL     1       6.224   3.267  12.319  0.00  0.00    +0.000 S 
ENDBRANCH   1  28
TORSDOF 4
ENDMDL
MODEL 9
REMARK VINA RESULT:      -7.7      5.404      7.391
REMARK  Name = 
REMARK  5 active torsions:
REMARK  status: ('A' for Active; 'I' for Inactive)
REMARK    1  A    between atoms: C_1  and  S_2
REMARK    2  A    between atoms: S_2  and  C_3
REMARK    3  A    between atoms: C_5  and  C_6
REMARK    4  A    between atoms: C_13  and  C_14
REMARK    5  A    between atoms: C_20  and  C_22
REMARK                            x       y       z     vdW  Elec       q    Type
REMARK                         _______ _______ _______ _____ _____    ______ ____
ROOT
ATOM      1  C   UNL     1       2.532   3.655  19.552  0.00  0.00    +0.000 A 
ATOM      2  N   UNL     1       3.758   3.802  19.122  0.00  0.00    +0.000 NA
ATOM      3  C   UNL     1       3.898   5.160  18.906  0.00  0.00    +0.000 A 
ATOM      4  C   UNL     1       2.703   5.837  19.153  0.00  0.00    +0.000 A 
ATOM      5  N   UNL     1       1.862   4.837  19.600  0.00  0.00    +0.000 N 
ATOM      6  H   UNL     1       0.903   4.938  19.893  0.00  0.00    +0.000 HD
ENDROOT
BRANCH   4   7
ATOM      7  C   UNL     1       2.274   7.236  19.036  0.00  0.00    +0.000 A 
ATOM      8  C   UNL     1       2.300   7.881  17.799  0.00  0.00    +0.000 A 
ATOM      9  C   UNL     1       1.812   9.169  17.723  0.00  0.00    +0.000 A 
ATOM     10  N   UNL     1       1.297   9.836  18.773  0.00  0.00    +0.000 NA
ATOM     11  C   UNL     1       1.268   9.228  19.968  0.00  0.00    +0.000 A 
ATOM     12  N   UNL     1       0.675   9.858  21.076  0.00  0.00    +0.000 N 
ATOM     13  C   UNL     1       0.116  11.119  21.051  0.00  0.00    +0.000 C 
ATOM     14  O   UNL     1       0.038  11.883  20.097  0.00  0.00    +0.000 OA
ATOM     15  C   UNL     1       1.782   7.947  20.141  0.00  0.00    +0.000 A 
ATOM     16  H   UNL     1       0.626   9.329  21.929  0.00  0.00    +0.000 HD
BRANCH  13  17
ATOM     17  C   UNL     1      -0.475  11.600  22.341  0.00  0.00    +0.000 C 
ATOM     18  C   UNL     1      -1.947  11.933  22.416  0.00  0.00    +0.000 C 
ATOM     19  C   UNL     1      -1.382  10.836  23.270  0.00  0.00    +0.000 C 
ENDBRANCH  13  17
ENDBRANCH   4   7
BRANCH   3  20
ATOM     20  C   UNL     1       5.151   5.737  18.437  0.00  0.00    +0.000 A 
ATOM     21  C   UNL     1       5.165   6.498  17.258  0.00  0.00    +0.000 A 
ATOM     22  C   UNL     1       6.329   7.161  16.860  0.00  0.00    +0.000 A 
ATOM     23  C   UNL     1       7.475   7.067  17.640  0.00  0.00    +0.000 A 
ATOM     24  F   UNL     1       8.573   7.749  17.290  0.00  0.00    +0.000 F 
ATOM     25  C   UNL     1       7.498   6.277  18.781  0.00  0.00    +0.000 A 
ATOM     26  C   UNL     1       6.348   5.585  19.158  0.00  0.00    +0.000 A 
ENDBRANCH   3  20
BRANCH   1  28
ATOM     27  C   UNL     1       1.430   2.562  21.785  0.00  0.00    +0.000 C 
ATOM     28  S   UNL     1       1.735   2.209  20.042  0.00  0.00    +0.000 S 
ENDBRANCH   1  28
TORSDOF 4
ENDMDL
