MODEL 1
REMARK VINA RESULT:      -8.2      0.000      0.000
REMARK  Name = 
REMARK  6 active torsions:
REMARK  status: ('A' for Active; 'I' for Inactive)
REMARK    1  A    between atoms: C_1  and  O_2
REMARK    2  A    between atoms: O_2  and  C_3
REMARK    3  A    between atoms: C_8  and  O_9
REMARK    4  A    between atoms: C_10  and  C_11
REMARK    5  A    between atoms: C_11  and  N_12
REMARK    6  A    between atoms: N_12  and  C_13
REMARK                            x       y       z     vdW  Elec       q    Type
REMARK                         _______ _______ _______ _____ _____    ______ ____
ROOT
ATOM      1  C   UNL     1       5.993   3.479  12.590  0.00  0.00    +0.000 A 
ATOM      2  C   UNL     1       7.099   4.302  12.402  0.00  0.00    +0.000 A 
ATOM      3  C   UNL     1       7.594   5.062  13.468  0.00  0.00    +0.000 A 
ATOM      4  C   UNL     1       7.023   5.008  14.730  0.00  0.00    +0.000 A 
ATOM      5  N   UNL     1       7.563   5.735  15.720  0.00  0.00    +0.000 NA
ATOM      6  C   UNL     1       7.028   5.594  16.944  0.00  0.00    +0.000 A 
ATOM      7  C   UNL     1       5.967   4.771  17.274  0.00  0.00    +0.000 A 
ATOM      8  C   UNL     1       5.374   4.073  16.219  0.00  0.00    +0.000 A 
ATOM      9  C   UNL     1       5.907   4.169  14.924  0.00  0.00    +0.000 A 
ATOM     10  C   UNL     1       5.386   3.433  13.844  0.00  0.00    +0.000 A 
ENDROOT
BRANCH   1  12
ATOM     11  C   UNL     1       4.119   3.119  11.197  0.00  0.00    +0.000 C 
ATOM     12  O   UNL     1       5.413   2.706  11.624  0.00  0.00    +0.000 OA
ENDBRANCH   1  12
BRANCH   6  13
ATOM     13  O   UNL     1       7.676   6.329  17.881  0.00  0.00    +0.000 OA
ATOM     14  H   UNL     1       8.101   6.992  17.306  0.00  0.00    +0.000 HD
ENDBRANCH   6  13
BRANCH   7  15
ATOM     15  C   UNL     1       5.525   4.580  18.697  0.00  0.00    +0.000 C 
BRANCH  15  16
ATOM     16  N   UNL     1       4.959   3.256  18.914  0.00  0.00    +0.000 N 
ATOM     17  H   UNL     1       5.494   2.696  19.573  0.00  0.00    +0.000 HD
BRANCH  16  18
ATOM     18  C   UNL     1       3.577   3.169  19.142  0.00  0.00    +0.000 A 
ATOM     19  C   UNL     1       2.694   2.494  18.286  0.00  0.00    +0.000 A 
ATOM     20  C   UNL     1       1.331   2.382  18.582  0.00  0.00    +0.000 A 
ATOM     21  C   UNL     1       0.829   2.917  19.762  0.00  0.00    +0.000 A 
ATOM     22  C   UNL     1       1.693   3.548  20.651  0.00  0.00    +0.000 A 
ATOM     23  C   UNL     1       3.056   3.657  20.349  0.00  0.00    +0.000 A 
ENDBRANCH  16  18
ENDBRANCH  15  16
ENDBRANCH   7  15
TORSDOF 5
ENDMDL
MODEL 2
REMARK VINA RESULT:      -8.2      0.836      1.334
REMARK  Name = 
REMARK  6 active torsions:
REMARK  status: ('A' for Active; 'I' for Inactive)
REMARK    1  A    between atoms: C_1  and  O_2
REMARK    2  A    between atoms: O_2  and  C_3
REMARK    3  A    between atoms: C_8  and  O_9
REMARK    4  A    between atoms: C_10  and  C_11
REMARK    5  A    between atoms: C_11  and  N_12
REMARK    6  A    between atoms: N_12  and  C_13
REMARK                            x       y       z     vdW  Elec       q    Type
REMARK                         _______ _______ _______ _____ _____    ______ ____
ROOT
ATOM      1  C   UNL     1       5.930   3.467  12.480  0.00  0.00    +0.000 A 
ATOM      2  C   UNL     1       7.090   4.211  12.286  0.00  0.00    +0.000 A 
ATOM      3  C   UNL     1       7.598   4.996  13.327  0.00  0.00    +0.000 A 
ATOM      4  C   UNL     1       6.988   5.045  14.570  0.00  0.00    +0.000 A 
ATOM      5  N   UNL     1       7.542   5.790  15.538  0.00  0.00    +0.000 NA
ATOM      6  C   UNL     1       6.963   5.748  16.750  0.00  0.00    +0.000 A 
ATOM      7  C   UNL     1       5.844   5.010  17.087  0.00  0.00    +0.000 A 
ATOM      8  C   UNL     1       5.241   4.292  16.051  0.00  0.00    +0.000 A 
ATOM      9  C   UNL     1       5.816   4.285  14.771  0.00  0.00    +0.000 A 
ATOM     10  C   UNL     1       5.284   3.524  13.714  0.00  0.00    +0.000 A 
ENDROOT
BRANCH   1  12
ATOM     11  C   UNL     1       4.018   3.067  11.149  0.00  0.00    +0.000 C 
ATOM     12  O   UNL     1       5.332   2.678  11.537  0.00  0.00    +0.000 OA
ENDBRANCH   1  12
BRANCH   6  13
ATOM     13  O   UNL     1       7.627   6.493  17.668  0.00  0.00    +0.000 OA
ATOM     14  H   UNL     1       7.632   5.868  18.415  0.00  0.00    +0.000 HD
ENDBRANCH   6  13
BRANCH   7  15
ATOM     15  C   UNL     1       5.349   4.923  18.502  0.00  0.00    +0.000 C 
BRANCH  15  16
ATOM     16  N   UNL     1       4.044   5.551  18.658  0.00  0.00    +0.000 N 
ATOM     17  H   UNL     1       3.790   6.143  17.871  0.00  0.00    +0.000 HD
BRANCH  16  18
ATOM     18  C   UNL     1       2.979   4.742  19.081  0.00  0.00    +0.000 A 
ATOM     19  C   UNL     1       2.392   4.840  20.352  0.00  0.00    +0.000 A 
ATOM     20  C   UNL     1       1.293   4.052  20.712  0.00  0.00    +0.000 A 
ATOM     21  C   UNL     1       0.736   3.172  19.793  0.00  0.00    +0.000 A 
ATOM     22  C   UNL     1       1.270   3.093  18.510  0.00  0.00    +0.000 A 
ATOM     23  C   UNL     1       2.369   3.883  18.155  0.00  0.00    +0.000 A 
ENDBRANCH  16  18
ENDBRANCH  15  16
ENDBRANCH   7  15
TORSDOF 5
ENDMDL
MODEL 3
REMARK VINA RESULT:      -8.0      3.065      7.074
REMARK  Name = 
REMARK  6 active torsions:
REMARK  status: ('A' for Active; 'I' for Inactive)
REMARK    1  A    between atoms: C_1  and  O_2
REMARK    2  A    between atoms: O_2  and  C_3
REMARK    3  A    between atoms: C_8  and  O_9
REMARK    4  A    between atoms: C_10  and  C_11
REMARK    5  A    between atoms: C_11  and  N_12
REMARK    6  A    between atoms: N_12  and  C_13
REMARK                            x       y       z     vdW  Elec       q    Type
REMARK                         _______ _______ _______ _____ _____    ______ ____
ROOT
ATOM      1  C   UNL     1       1.822   7.306  20.132  0.00  0.00    +0.000 A 
ATOM      2  C   UNL     1       1.544   6.208  20.940  0.00  0.00    +0.000 A 
ATOM      3  C   UNL     1       1.951   4.929  20.544  0.00  0.00    +0.000 A 
ATOM      4  C   UNL     1       2.649   4.717  19.366  0.00  0.00    +0.000 A 
ATOM      5  N   UNL     1       3.041   3.472  19.057  0.00  0.00    +0.000 NA
ATOM      6  C   UNL     1       3.783   3.321  17.946  0.00  0.00    +0.000 A 
ATOM      7  C   UNL     1       4.172   4.334  17.090  0.00  0.00    +0.000 A 
ATOM      8  C   UNL     1       3.699   5.614  17.389  0.00  0.00    +0.000 A 
ATOM      9  C   UNL     1       2.938   5.830  18.549  0.00  0.00    +0.000 A 
ATOM     10  C   UNL     1       2.497   7.111  18.928  0.00  0.00    +0.000 A 
ENDROOT
BRANCH   1  12
ATOM     11  C   UNL     1       1.188   8.886  21.771  0.00  0.00    +0.000 C 
ATOM     12  O   UNL     1       1.462   8.596  20.404  0.00  0.00    +0.000 OA
ENDBRANCH   1  12
BRANCH   6  13
ATOM     13  O   UNL     1       4.170   2.036  17.752  0.00  0.00    +0.000 OA
ATOM     14  H   UNL     1       4.011   1.679  18.645  0.00  0.00    +0.000 HD
ENDBRANCH   6  13
BRANCH   7  15
ATOM     15  C   UNL     1       5.113   4.086  15.945  0.00  0.00    +0.000 C 
BRANCH  15  16
ATOM     16  N   UNL     1       6.489   3.940  16.399  0.00  0.00    +0.000 N 
ATOM     17  H   UNL     1       7.109   3.573  15.681  0.00  0.00    +0.000 HD
BRANCH  16  18
ATOM     18  C   UNL     1       7.061   5.015  17.096  0.00  0.00    +0.000 A 
ATOM     19  C   UNL     1       7.102   6.325  16.595  0.00  0.00    +0.000 A 
ATOM     20  C   UNL     1       7.631   7.380  17.349  0.00  0.00    +0.000 A 
ATOM     21  C   UNL     1       8.099   7.148  18.637  0.00  0.00    +0.000 A 
ATOM     22  C   UNL     1       8.023   5.867  19.174  0.00  0.00    +0.000 A 
ATOM     23  C   UNL     1       7.493   4.817  18.415  0.00  0.00    +0.000 A 
ENDBRANCH  16  18
ENDBRANCH  15  16
ENDBRANCH   7  15
TORSDOF 5
ENDMDL
MODEL 4
REMARK VINA RESULT:      -7.8      3.050      7.109
REMARK  Name = 
REMARK  6 active torsions:
REMARK  status: ('A' for Active; 'I' for Inactive)
REMARK    1  A    between atoms: C_1  and  O_2
REMARK    2  A    between atoms: O_2  and  C_3
REMARK    3  A    between atoms: C_8  and  O_9
REMARK    4  A    between atoms: C_10  and  C_11
REMARK    5  A    between atoms: C_11  and  N_12
REMARK    6  A    between atoms: N_12  and  C_13
REMARK                            x       y       z     vdW  Elec       q    Type
REMARK                         _______ _______ _______ _____ _____    ______ ____
ROOT
ATOM      1  C   UNL     1       1.796   7.238  20.178  0.00  0.00    +0.000 A 
ATOM      2  C   UNL     1       1.564   6.142  21.003  0.00  0.00    +0.000 A 
ATOM      3  C   UNL     1       1.995   4.869  20.611  0.00  0.00    +0.000 A 
ATOM      4  C   UNL     1       2.671   4.662  19.419  0.00  0.00    +0.000 A 
ATOM      5  N   UNL     1       3.087   3.424  19.114  0.00  0.00    +0.000 NA
ATOM      6  C   UNL     1       3.807   3.280  17.988  0.00  0.00    +0.000 A 
ATOM      7  C   UNL     1       4.151   4.294  17.113  0.00  0.00    +0.000 A 
ATOM      8  C   UNL     1       3.654   5.565  17.411  0.00  0.00    +0.000 A 
ATOM      9  C   UNL     1       2.914   5.774  18.585  0.00  0.00    +0.000 A 
ATOM     10  C   UNL     1       2.449   7.048  18.961  0.00  0.00    +0.000 A 
ENDROOT
BRANCH   1  12
ATOM     11  C   UNL     1       1.266   8.849  21.825  0.00  0.00    +0.000 C 
ATOM     12  O   UNL     1       1.411   8.522  20.446  0.00  0.00    +0.000 OA
ENDBRANCH   1  12
BRANCH   6  13
ATOM     13  O   UNL     1       4.222   2.004  17.797  0.00  0.00    +0.000 OA
ATOM     14  H   UNL     1       5.186   2.146  17.779  0.00  0.00    +0.000 HD
ENDBRANCH   6  13
BRANCH   7  15
ATOM     15  C   UNL     1       5.072   4.058  15.950  0.00  0.00    +0.000 C 
BRANCH  15  16
ATOM     16  N   UNL     1       6.463   3.969  16.371  0.00  0.00    +0.000 N 
ATOM     17  H   UNL     1       7.095   3.723  15.613  0.00  0.00    +0.000 HD
BRANCH  16  18
ATOM     18  C   UNL     1       6.969   5.007  17.168  0.00  0.00    +0.000 A 
ATOM     19  C   UNL     1       7.511   4.804  18.446  0.00  0.00    +0.000 A 
ATOM     20  C   UNL     1       8.057   5.861  19.185  0.00  0.00    +0.000 A 
ATOM     21  C   UNL     1       8.102   7.139  18.642  0.00  0.00    +0.000 A 
ATOM     22  C   UNL     1       7.616   7.355  17.356  0.00  0.00    +0.000 A 
ATOM     23  C   UNL     1       7.071   6.294  16.623  0.00  0.00    +0.000 A 
ENDBRANCH  16  18
ENDBRANCH  15  16
ENDBRANCH   7  15
TORSDOF 5
ENDMDL
MODEL 5
REMARK VINA RESULT:      -7.6      3.411      4.757
REMARK  Name = 
REMARK  6 active torsions:
REMARK  status: ('A' for Active; 'I' for Inactive)
REMARK    1  A    between atoms: C_1  and  O_2
REMARK    2  A    between atoms: O_2  and  C_3
REMARK    3  A    between atoms: C_8  and  O_9
REMARK    4  A    between atoms: C_10  and  C_11
REMARK    5  A    between atoms: C_11  and  N_12
REMARK    6  A    between atoms: N_12  and  C_13
REMARK                            x       y       z     vdW  Elec       q    Type
REMARK                         _______ _______ _______ _____ _____    ______ ____
ROOT
ATOM      1  C   UNL     1       7.496   7.750  17.725  0.00  0.00    +0.000 A 
ATOM      2  C   UNL     1       8.226   6.944  18.593  0.00  0.00    +0.000 A 
ATOM      3  C   UNL     1       7.715   5.704  18.992  0.00  0.00    +0.000 A 
ATOM      4  C   UNL     1       6.495   5.235  18.532  0.00  0.00    +0.000 A 
ATOM      5  N   UNL     1       6.073   4.024  18.924  0.00  0.00    +0.000 NA
ATOM      6  C   UNL     1       4.923   3.574  18.394  0.00  0.00    +0.000 A 
ATOM      7  C   UNL     1       4.133   4.250  17.483  0.00  0.00    +0.000 A 
ATOM      8  C   UNL     1       4.552   5.537  17.136  0.00  0.00    +0.000 A 
ATOM      9  C   UNL     1       5.756   6.047  17.646  0.00  0.00    +0.000 A 
ATOM     10  C   UNL     1       6.252   7.310  17.273  0.00  0.00    +0.000 A 
ENDROOT
BRANCH   1  12
ATOM     11  C   UNL     1       8.609   9.777  18.212  0.00  0.00    +0.000 C 
ATOM     12  O   UNL     1       7.883   8.982  17.279  0.00  0.00    +0.000 OA
ENDBRANCH   1  12
BRANCH   6  13
ATOM     13  O   UNL     1       4.613   2.323  18.814  0.00  0.00    +0.000 OA
ATOM     14  H   UNL     1       4.397   2.511  19.746  0.00  0.00    +0.000 HD
ENDBRANCH   6  13
BRANCH   7  15
ATOM     15  C   UNL     1       2.934   3.610  16.845  0.00  0.00    +0.000 C 
BRANCH  15  16
ATOM     16  N   UNL     1       1.696   4.001  17.507  0.00  0.00    +0.000 N 
ATOM     17  H   UNL     1       0.864   3.672  17.023  0.00  0.00    +0.000 HD
BRANCH  16  18
ATOM     18  C   UNL     1       1.613   3.812  18.894  0.00  0.00    +0.000 A 
ATOM     19  C   UNL     1       1.356   2.568  19.490  0.00  0.00    +0.000 A 
ATOM     20  C   UNL     1       1.339   2.414  20.881  0.00  0.00    +0.000 A 
ATOM     21  C   UNL     1       1.615   3.498  21.706  0.00  0.00    +0.000 A 
ATOM     22  C   UNL     1       1.922   4.730  21.137  0.00  0.00    +0.000 A 
ATOM     23  C   UNL     1       1.937   4.879  19.745  0.00  0.00    +0.000 A 
ENDBRANCH  16  18
ENDBRANCH  15  16
ENDBRANCH   7  15
TORSDOF 5
ENDMDL
MODEL 6
REMARK VINA RESULT:      -7.4      3.378      4.809
REMARK  Name = 
REMARK  6 active torsions:
REMARK  status: ('A' for Active; 'I' for Inactive)
REMARK    1  A    between atoms: C_1  and  O_2
REMARK    2  A    between atoms: O_2  and  C_3
REMARK    3  A    between atoms: C_8  and  O_9
REMARK    4  A    between atoms: C_10  and  C_11
REMARK    5  A    between atoms: C_11  and  N_12
REMARK    6  A    between atoms: N_12  and  C_13
REMARK                            x       y       z     vdW  Elec       q    Type
REMARK                         _______ _______ _______ _____ _____    ______ ____
ROOT
ATOM      1  C   UNL     1       7.499   7.709  17.718  0.00  0.00    +0.000 A 
ATOM      2  C   UNL     1       8.222   6.906  18.594  0.00  0.00    +0.000 A 
ATOM      3  C   UNL     1       7.709   5.664  18.988  0.00  0.00    +0.000 A 
ATOM      4  C   UNL     1       6.495   5.192  18.514  0.00  0.00    +0.000 A 
ATOM      5  N   UNL     1       6.072   3.980  18.902  0.00  0.00    +0.000 NA
ATOM      6  C   UNL     1       4.930   3.527  18.359  0.00  0.00    +0.000 A 
ATOM      7  C   UNL     1       4.148   4.201  17.440  0.00  0.00    +0.000 A 
ATOM      8  C   UNL     1       4.567   5.489  17.097  0.00  0.00    +0.000 A 
ATOM      9  C   UNL     1       5.765   6.002  17.620  0.00  0.00    +0.000 A 
ATOM     10  C   UNL     1       6.262   7.266  17.252  0.00  0.00    +0.000 A 
ENDROOT
BRANCH   1  12
ATOM     11  C   UNL     1       8.592   9.744  18.220  0.00  0.00    +0.000 C 
ATOM     12  O   UNL     1       7.888   8.942  17.275  0.00  0.00    +0.000 OA
ENDBRANCH   1  12
BRANCH   6  13
ATOM     13  O   UNL     1       4.618   2.275  18.777  0.00  0.00    +0.000 OA
ATOM     14  H   UNL     1       3.710   2.207  18.428  0.00  0.00    +0.000 HD
ENDBRANCH   6  13
BRANCH   7  15
ATOM     15  C   UNL     1       2.957   3.558  16.789  0.00  0.00    +0.000 C 
BRANCH  15  16
ATOM     16  N   UNL     1       1.721   3.871  17.492  0.00  0.00    +0.000 N 
ATOM     17  H   UNL     1       0.905   3.423  17.083  0.00  0.00    +0.000 HD
BRANCH  16  18
ATOM     18  C   UNL     1       1.730   3.782  18.893  0.00  0.00    +0.000 A 
ATOM     19  C   UNL     1       1.927   4.887  19.734  0.00  0.00    +0.000 A 
ATOM     20  C   UNL     1       1.871   4.763  21.128  0.00  0.00    +0.000 A 
ATOM     21  C   UNL     1       1.581   3.534  21.706  0.00  0.00    +0.000 A 
ATOM     22  C   UNL     1       1.333   2.434  20.891  0.00  0.00    +0.000 A 
ATOM     23  C   UNL     1       1.391   2.564  19.498  0.00  0.00    +0.000 A 
ENDBRANCH  16  18
ENDBRANCH  15  16
ENDBRANCH   7  15
TORSDOF 5
ENDMDL
MODEL 7
REMARK VINA RESULT:      -7.3      2.232      6.705
REMARK  Name = 
REMARK  6 active torsions:
REMARK  status: ('A' for Active; 'I' for Inactive)
REMARK    1  A    between atoms: C_1  and  O_2
REMARK    2  A    between atoms: O_2  and  C_3
REMARK    3  A    between atoms: C_8  and  O_9
REMARK    4  A    between atoms: C_10  and  C_11
REMARK    5  A    between atoms: C_11  and  N_12
REMARK    6  A    between atoms: N_12  and  C_13
REMARK                            x       y       z     vdW  Elec       q    Type
REMARK                         _______ _______ _______ _____ _____    ______ ____
ROOT
ATOM      1  C   UNL     1       2.026   3.854  19.729  0.00  0.00    +0.000 A 
ATOM      2  C   UNL     1       1.638   5.190  19.685  0.00  0.00    +0.000 A 
ATOM      3  C   UNL     1       2.495   6.148  19.131  0.00  0.00    +0.000 A 
ATOM      4  C   UNL     1       3.728   5.805  18.600  0.00  0.00    +0.000 A 
ATOM      5  N   UNL     1       4.491   6.764  18.054  0.00  0.00    +0.000 NA
ATOM      6  C   UNL     1       5.643   6.377  17.481  0.00  0.00    +0.000 A 
ATOM      7  C   UNL     1       6.116   5.080  17.410  0.00  0.00    +0.000 A 
ATOM      8  C   UNL     1       5.343   4.103  18.042  0.00  0.00    +0.000 A 
ATOM      9  C   UNL     1       4.120   4.451  18.638  0.00  0.00    +0.000 A 
ATOM     10  C   UNL     1       3.275   3.492  19.227  0.00  0.00    +0.000 A 
ENDROOT
BRANCH   1  12
ATOM     11  C   UNL     1       1.465   2.597  21.650  0.00  0.00    +0.000 C 
ATOM     12  O   UNL     1       1.284   2.835  20.257  0.00  0.00    +0.000 OA
ENDBRANCH   1  12
BRANCH   6  13
ATOM     13  O   UNL     1       6.313   7.411  16.914  0.00  0.00    +0.000 OA
ATOM     14  H   UNL     1       7.205   7.245  17.271  0.00  0.00    +0.000 HD
ENDBRANCH   6  13
BRANCH   7  15
ATOM     15  C   UNL     1       7.352   4.729  16.632  0.00  0.00    +0.000 C 
BRANCH  15  16
ATOM     16  N   UNL     1       7.456   5.505  15.403  0.00  0.00    +0.000 N 
ATOM     17  H   UNL     1       8.355   5.970  15.300  0.00  0.00    +0.000 HD
BRANCH  16  18
ATOM     18  C   UNL     1       7.033   4.896  14.212  0.00  0.00    +0.000 A 
ATOM     19  C   UNL     1       7.732   5.002  13.001  0.00  0.00    +0.000 A 
ATOM     20  C   UNL     1       7.305   4.331  11.849  0.00  0.00    +0.000 A 
ATOM     21  C   UNL     1       6.185   3.510  11.897  0.00  0.00    +0.000 A 
ATOM     22  C   UNL     1       5.503   3.350  13.099  0.00  0.00    +0.000 A 
ATOM     23  C   UNL     1       5.935   4.024  14.248  0.00  0.00    +0.000 A 
ENDBRANCH  16  18
ENDBRANCH  15  16
ENDBRANCH   7  15
TORSDOF 5
ENDMDL
MODEL 8
REMARK VINA RESULT:      -7.2      3.962      7.171
REMARK  Name = 
REMARK  6 active torsions:
REMARK  status: ('A' for Active; 'I' for Inactive)
REMARK    1  A    between atoms: C_1  and  O_2
REMARK    2  A    between atoms: O_2  and  C_3
REMARK    3  A    between atoms: C_8  and  O_9
REMARK    4  A    between atoms: C_10  and  C_11
REMARK    5  A    between atoms: C_11  and  N_12
REMARK    6  A    between atoms: N_12  and  C_13
REMARK                            x       y       z     vdW  Elec       q    Type
REMARK                         _______ _______ _______ _____ _____    ______ ____
ROOT
ATOM      1  C   UNL     1       1.562   9.162  18.939  0.00  0.00    +0.000 A 
ATOM      2  C   UNL     1       1.187   8.941  20.260  0.00  0.00    +0.000 A 
ATOM      3  C   UNL     1       1.373   7.680  20.838  0.00  0.00    +0.000 A 
ATOM      4  C   UNL     1       1.944   6.632  20.135  0.00  0.00    +0.000 A 
ATOM      5  N   UNL     1       2.127   5.456  20.754  0.00  0.00    +0.000 NA
ATOM      6  C   UNL     1       2.754   4.490  20.061  0.00  0.00    +0.000 A 
ATOM      7  C   UNL     1       3.224   4.599  18.765  0.00  0.00    +0.000 A 
ATOM      8  C   UNL     1       2.967   5.807  18.113  0.00  0.00    +0.000 A 
ATOM      9  C   UNL     1       2.332   6.856  18.797  0.00  0.00    +0.000 A 
ATOM     10  C   UNL     1       2.112   8.112  18.204  0.00  0.00    +0.000 A 
ENDROOT
BRANCH   1  12
ATOM     11  C   UNL     1       0.605  11.323  18.903  0.00  0.00    +0.000 C 
ATOM     12  O   UNL     1       1.416  10.341  18.264  0.00  0.00    +0.000 OA
ENDBRANCH   1  12
BRANCH   6  13
ATOM     13  O   UNL     1       2.935   3.362  20.791  0.00  0.00    +0.000 OA
ATOM     14  H   UNL     1       2.417   2.734  20.256  0.00  0.00    +0.000 HD
ENDBRANCH   6  13
BRANCH   7  15
ATOM     15  C   UNL     1       4.032   3.509  18.122  0.00  0.00    +0.000 C 
BRANCH  15  16
ATOM     16  N   UNL     1       5.413   3.515  18.583  0.00  0.00    +0.000 N 
ATOM     17  H   UNL     1       5.882   2.622  18.453  0.00  0.00    +0.000 HD
BRANCH  16  18
ATOM     18  C   UNL     1       6.220   4.599  18.204  0.00  0.00    +0.000 A 
ATOM     19  C   UNL     1       6.269   5.104  16.896  0.00  0.00    +0.000 A 
ATOM     20  C   UNL     1       7.044   6.224  16.574  0.00  0.00    +0.000 A 
ATOM     21  C   UNL     1       7.761   6.883  17.565  0.00  0.00    +0.000 A 
ATOM     22  C   UNL     1       7.689   6.431  18.879  0.00  0.00    +0.000 A 
ATOM     23  C   UNL     1       6.912   5.310  19.195  0.00  0.00    +0.000 A 
ENDBRANCH  16  18
ENDBRANCH  15  16
ENDBRANCH   7  15
TORSDOF 5
ENDMDL
MODEL 9
REMARK VINA RESULT:      -7.2      3.943      7.220
REMARK  Name = 
REMARK  6 active torsions:
REMARK  status: ('A' for Active; 'I' for Inactive)
REMARK    1  A    between atoms: C_1  and  O_2
REMARK    2  A    between atoms: O_2  and  C_3
REMARK    3  A    between atoms: C_8  and  O_9
REMARK    4  A    between atoms: C_10  and  C_11
REMARK    5  A    between atoms: C_11  and  N_12
REMARK    6  A    between atoms: N_12  and  C_13
REMARK                            x       y       z     vdW  Elec       q    Type
REMARK                         _______ _______ _______ _____ _____    ______ ____
ROOT
ATOM      1  C   UNL     1       1.581   9.129  18.922  0.00  0.00    +0.000 A 
ATOM      2  C   UNL     1       1.210   8.913  20.245  0.00  0.00    +0.000 A 
ATOM      3  C   UNL     1       1.397   7.652  20.825  0.00  0.00    +0.000 A 
ATOM      4  C   UNL     1       1.964   6.602  20.122  0.00  0.00    +0.000 A 
ATOM      5  N   UNL     1       2.147   5.427  20.744  0.00  0.00    +0.000 NA
ATOM      6  C   UNL     1       2.772   4.459  20.051  0.00  0.00    +0.000 A 
ATOM      7  C   UNL     1       3.237   4.564  18.754  0.00  0.00    +0.000 A 
ATOM      8  C   UNL     1       2.979   5.771  18.099  0.00  0.00    +0.000 A 
ATOM      9  C   UNL     1       2.348   6.822  18.783  0.00  0.00    +0.000 A 
ATOM     10  C   UNL     1       2.127   8.077  18.187  0.00  0.00    +0.000 A 
ENDROOT
BRANCH   1  12
ATOM     11  C   UNL     1       0.566  11.262  18.847  0.00  0.00    +0.000 C 
ATOM     12  O   UNL     1       1.434  10.308  18.245  0.00  0.00    +0.000 OA
ENDBRANCH   1  12
BRANCH   6  13
ATOM     13  O   UNL     1       2.953   3.333  20.784  0.00  0.00    +0.000 OA
ATOM     14  H   UNL     1       3.230   3.729  21.630  0.00  0.00    +0.000 HD
ENDBRANCH   6  13
BRANCH   7  15
ATOM     15  C   UNL     1       4.042   3.471  18.110  0.00  0.00    +0.000 C 
BRANCH  15  16
ATOM     16  N   UNL     1       5.433   3.499  18.540  0.00  0.00    +0.000 N 
ATOM     17  H   UNL     1       5.939   2.648  18.307  0.00  0.00    +0.000 HD
BRANCH  16  18
ATOM     18  C   UNL     1       6.177   4.655  18.260  0.00  0.00    +0.000 A 
ATOM     19  C   UNL     1       6.959   5.320  19.217  0.00  0.00    +0.000 A 
ATOM     20  C   UNL     1       7.732   6.437  18.880  0.00  0.00    +0.000 A 
ATOM     21  C   UNL     1       7.764   6.892  17.568  0.00  0.00    +0.000 A 
ATOM     22  C   UNL     1       7.036   6.219  16.591  0.00  0.00    +0.000 A 
ATOM     23  C   UNL     1       6.265   5.102  16.934  0.00  0.00    +0.000 A 
ENDBRANCH  16  18
ENDBRANCH  15  16
ENDBRANCH   7  15
TORSDOF 5
ENDMDL
