MODEL 1
REMARK VINA RESULT:      -6.9      0.000      0.000
REMARK  Name = 
REMARK  5 active torsions:
REMARK  status: ('A' for Active; 'I' for Inactive)
REMARK    1  A    between atoms: C_2  and  O_11
REMARK    2  A    between atoms: N_3  and  C_4
REMARK    3  A    between atoms: C_4  and  C_5
REMARK    4  A    between atoms: O_11  and  C_12
REMARK    5  A    between atoms: C_12  and  C_13
REMARK                            x       y       z     vdW  Elec       q    Type
REMARK                         _______ _______ _______ _____ _____    ______ ____
ROOT
ATOM      1  O   UNL     1       7.942   4.759  18.819  0.00  0.00    +0.000 OA
ATOM      2  C   UNL     1       7.317   4.510  17.798  0.00  0.00    +0.000 C 
ATOM      3  N   UNL     1       6.002   4.146  17.755  0.00  0.00    +0.000 N 
ATOM      4  H   UNL     1       5.598   4.075  16.831  0.00  0.00    +0.000 HD
ENDROOT
BRANCH   3   5
ATOM      5  C   UNL     1       5.162   4.087  18.932  0.00  0.00    +0.000 C 
BRANCH   5   6
ATOM      6  C   UNL     1       4.106   2.974  18.832  0.00  0.00    +0.000 C 
ATOM      7  C   UNL     1       3.190   3.186  17.613  0.00  0.00    +0.000 C 
ATOM      8  C   UNL     1       2.125   4.260  17.850  0.00  0.00    +0.000 C 
ATOM      9  N   UNL     1       1.335   3.975  19.047  0.00  0.00    +0.000 NA
ATOM     10  C   UNL     1       2.191   3.928  20.233  0.00  0.00    +0.000 C 
ATOM     11  C   UNL     1       3.258   2.841  20.110  0.00  0.00    +0.000 C 
ATOM     12  H   UNL     1       0.869   3.075  18.936  0.00  0.00    +0.000 HD
ENDBRANCH   5   6
ENDBRANCH   3   5
BRANCH   2  13
ATOM     13  O   UNL     1       7.800   4.598  16.537  0.00  0.00    +0.000 OA
BRANCH  13  14
ATOM     14  C   UNL     1       7.087   5.482  15.662  0.00  0.00    +0.000 C 
BRANCH  14  15
ATOM     15  C   UNL     1       6.798   4.833  14.332  0.00  0.00    +0.000 A 
ATOM     16  C   UNL     1       7.651   5.035  13.236  0.00  0.00    +0.000 A 
ATOM     17  C   UNL     1       7.397   4.409  12.013  0.00  0.00    +0.000 A 
ATOM     18  C   UNL     1       6.286   3.579  11.870  0.00  0.00    +0.000 A 
ATOM     19  C   UNL     1       5.427   3.377  12.949  0.00  0.00    +0.000 A 
ATOM     20  C   UNL     1       5.678   4.003  14.172  0.00  0.00    +0.000 A 
ENDBRANCH  14  15
ENDBRANCH  13  14
ENDBRANCH   2  13
TORSDOF 5
ENDMDL
MODEL 2
REMARK VINA RESULT:      -6.8      1.247      1.902
REMARK  Name = 
REMARK  5 active torsions:
REMARK  status: ('A' for Active; 'I' for Inactive)
REMARK    1  A    between atoms: C_2  and  O_11
REMARK    2  A    between atoms: N_3  and  C_4
REMARK    3  A    between atoms: C_4  and  C_5
REMARK    4  A    between atoms: O_11  and  C_12
REMARK    5  A    between atoms: C_12  and  C_13
REMARK                            x       y       z     vdW  Elec       q    Type
REMARK                         _______ _______ _______ _____ _____    ______ ____
ROOT
ATOM      1  O   UNL     1       5.968   4.373  19.010  0.00  0.00    +0.000 OA
ATOM      2  C   UNL     1       5.731   4.064  17.850  0.00  0.00    +0.000 C 
ATOM      3  N   UNL     1       4.699   3.265  17.450  0.00  0.00    +0.000 N 
ATOM      4  H   UNL     1       4.570   3.185  16.451  0.00  0.00    +0.000 HD
ENDROOT
BRANCH   3   5
ATOM      5  C   UNL     1       3.702   2.748  18.364  0.00  0.00    +0.000 C 
BRANCH   5   6
ATOM      6  C   UNL     1       2.299   3.300  18.061  0.00  0.00    +0.000 C 
ATOM      7  C   UNL     1       2.211   4.801  18.395  0.00  0.00    +0.000 C 
ATOM      8  C   UNL     1       2.060   5.069  19.894  0.00  0.00    +0.000 C 
ATOM      9  N   UNL     1       0.918   4.346  20.455  0.00  0.00    +0.000 NA
ATOM     10  C   UNL     1       1.081   2.902  20.274  0.00  0.00    +0.000 C 
ATOM     11  C   UNL     1       1.185   2.533  18.795  0.00  0.00    +0.000 C 
ATOM     12  H   UNL     1       0.065   4.647  19.984  0.00  0.00    +0.000 HD
ENDBRANCH   5   6
ENDBRANCH   3   5
BRANCH   2  13
ATOM     13  O   UNL     1       6.414   4.492  16.764  0.00  0.00    +0.000 OA
BRANCH  13  14
ATOM     14  C   UNL     1       5.615   5.045  15.710  0.00  0.00    +0.000 C 
BRANCH  14  15
ATOM     15  C   UNL     1       6.134   4.647  14.352  0.00  0.00    +0.000 A 
ATOM     16  C   UNL     1       5.439   3.719  13.563  0.00  0.00    +0.000 A 
ATOM     17  C   UNL     1       5.908   3.374  12.293  0.00  0.00    +0.000 A 
ATOM     18  C   UNL     1       7.078   3.948  11.800  0.00  0.00    +0.000 A 
ATOM     19  C   UNL     1       7.781   4.866  12.577  0.00  0.00    +0.000 A 
ATOM     20  C   UNL     1       7.316   5.211  13.848  0.00  0.00    +0.000 A 
ENDBRANCH  14  15
ENDBRANCH  13  14
ENDBRANCH   2  13
TORSDOF 5
ENDMDL
MODEL 3
REMARK VINA RESULT:      -6.7      0.856      1.516
REMARK  Name = 
REMARK  5 active torsions:
REMARK  status: ('A' for Active; 'I' for Inactive)
REMARK    1  A    between atoms: C_2  and  O_11
REMARK    2  A    between atoms: N_3  and  C_4
REMARK    3  A    between atoms: C_4  and  C_5
REMARK    4  A    between atoms: O_11  and  C_12
REMARK    5  A    between atoms: C_12  and  C_13
REMARK                            x       y       z     vdW  Elec       q    Type
REMARK                         _______ _______ _______ _____ _____    ______ ____
ROOT
ATOM      1  O   UNL     1       7.095   5.806  18.615  0.00  0.00    +0.000 OA
ATOM      2  C   UNL     1       6.898   4.852  17.875  0.00  0.00    +0.000 C 
ATOM      3  N   UNL     1       5.956   3.886  18.079  0.00  0.00    +0.000 N 
ATOM      4  H   UNL     1       5.843   3.220  17.327  0.00  0.00    +0.000 HD
ENDROOT
BRANCH   3   5
ATOM      5  C   UNL     1       5.012   3.925  19.175  0.00  0.00    +0.000 C 
BRANCH   5   6
ATOM      6  C   UNL     1       3.589   4.260  18.700  0.00  0.00    +0.000 C 
ATOM      7  C   UNL     1       2.555   3.978  19.805  0.00  0.00    +0.000 C 
ATOM      8  C   UNL     1       2.225   2.489  19.944  0.00  0.00    +0.000 C 
ATOM      9  N   UNL     1       1.790   1.917  18.670  0.00  0.00    +0.000 NA
ATOM     10  C   UNL     1       2.840   2.047  17.659  0.00  0.00    +0.000 C 
ATOM     11  C   UNL     1       3.199   3.512  17.412  0.00  0.00    +0.000 C 
ATOM     12  H   UNL     1       0.954   2.406  18.349  0.00  0.00    +0.000 HD
ENDBRANCH   5   6
ENDBRANCH   3   5
BRANCH   2  13
ATOM     13  O   UNL     1       7.541   4.614  16.708  0.00  0.00    +0.000 OA
BRANCH  13  14
ATOM     14  C   UNL     1       7.265   5.541  15.650  0.00  0.00    +0.000 C 
BRANCH  14  15
ATOM     15  C   UNL     1       6.798   4.836  14.402  0.00  0.00    +0.000 A 
ATOM     16  C   UNL     1       7.585   4.840  13.240  0.00  0.00    +0.000 A 
ATOM     17  C   UNL     1       7.163   4.161  12.094  0.00  0.00    +0.000 A 
ATOM     18  C   UNL     1       5.949   3.477  12.095  0.00  0.00    +0.000 A 
ATOM     19  C   UNL     1       5.155   3.472  13.240  0.00  0.00    +0.000 A 
ATOM     20  C   UNL     1       5.574   4.151  14.387  0.00  0.00    +0.000 A 
ENDBRANCH  14  15
ENDBRANCH  13  14
ENDBRANCH   2  13
TORSDOF 5
ENDMDL
MODEL 4
REMARK VINA RESULT:      -6.7      1.351      2.078
REMARK  Name = 
REMARK  5 active torsions:
REMARK  status: ('A' for Active; 'I' for Inactive)
REMARK    1  A    between atoms: C_2  and  O_11
REMARK    2  A    between atoms: N_3  and  C_4
REMARK    3  A    between atoms: C_4  and  C_5
REMARK    4  A    between atoms: O_11  and  C_12
REMARK    5  A    between atoms: C_12  and  C_13
REMARK                            x       y       z     vdW  Elec       q    Type
REMARK                         _______ _______ _______ _____ _____    ______ ____
ROOT
ATOM      1  O   UNL     1       6.223   4.033  18.988  0.00  0.00    +0.000 OA
ATOM      2  C   UNL     1       5.635   4.579  18.064  0.00  0.00    +0.000 C 
ATOM      3  N   UNL     1       4.403   5.159  18.155  0.00  0.00    +0.000 N 
ATOM      4  H   UNL     1       4.094   5.660  17.334  0.00  0.00    +0.000 HD
ENDROOT
BRANCH   3   5
ATOM      5  C   UNL     1       3.673   5.266  19.400  0.00  0.00    +0.000 C 
BRANCH   5   6
ATOM      6  C   UNL     1       2.151   5.270  19.179  0.00  0.00    +0.000 C 
ATOM      7  C   UNL     1       1.406   4.799  20.441  0.00  0.00    +0.000 C 
ATOM      8  C   UNL     1       1.438   3.279  20.617  0.00  0.00    +0.000 C 
ATOM      9  N   UNL     1       0.931   2.592  19.430  0.00  0.00    +0.000 NA
ATOM     10  C   UNL     1       1.740   2.921  18.256  0.00  0.00    +0.000 C 
ATOM     11  C   UNL     1       1.723   4.421  17.968  0.00  0.00    +0.000 C 
ATOM     12  H   UNL     1      -0.034   2.878  19.262  0.00  0.00    +0.000 HD
ENDBRANCH   5   6
ENDBRANCH   3   5
BRANCH   2  13
ATOM     13  O   UNL     1       6.118   4.744  16.810  0.00  0.00    +0.000 OA
BRANCH  13  14
ATOM     14  C   UNL     1       5.234   4.349  15.752  0.00  0.00    +0.000 C 
BRANCH  14  15
ATOM     15  C   UNL     1       5.940   4.325  14.420  0.00  0.00    +0.000 A 
ATOM     16  C   UNL     1       7.097   5.090  14.208  0.00  0.00    +0.000 A 
ATOM     17  C   UNL     1       7.765   5.043  12.982  0.00  0.00    +0.000 A 
ATOM     18  C   UNL     1       7.282   4.236  11.954  0.00  0.00    +0.000 A 
ATOM     19  C   UNL     1       6.130   3.477  12.149  0.00  0.00    +0.000 A 
ATOM     20  C   UNL     1       5.459   3.524  13.373  0.00  0.00    +0.000 A 
ENDBRANCH  14  15
ENDBRANCH  13  14
ENDBRANCH   2  13
TORSDOF 5
ENDMDL
MODEL 5
REMARK VINA RESULT:      -6.7      1.360      2.301
REMARK  Name = 
REMARK  5 active torsions:
REMARK  status: ('A' for Active; 'I' for Inactive)
REMARK    1  A    between atoms: C_2  and  O_11
REMARK    2  A    between atoms: N_3  and  C_4
REMARK    3  A    between atoms: C_4  and  C_5
REMARK    4  A    between atoms: O_11  and  C_12
REMARK    5  A    between atoms: C_12  and  C_13
REMARK                            x       y       z     vdW  Elec       q    Type
REMARK                         _______ _______ _______ _____ _____    ______ ____
ROOT
ATOM      1  O   UNL     1       6.179   4.539  19.226  0.00  0.00    +0.000 OA
ATOM      2  C   UNL     1       5.567   4.858  18.215  0.00  0.00    +0.000 C 
ATOM      3  N   UNL     1       4.234   5.146  18.167  0.00  0.00    +0.000 N 
ATOM      4  H   UNL     1       3.894   5.494  17.281  0.00  0.00    +0.000 HD
ENDROOT
BRANCH   3   5
ATOM      5  C   UNL     1       3.393   5.185  19.345  0.00  0.00    +0.000 C 
BRANCH   5   6
ATOM      6  C   UNL     1       1.948   4.761  19.036  0.00  0.00    +0.000 C 
ATOM      7  C   UNL     1       1.304   4.063  20.249  0.00  0.00    +0.000 C 
ATOM      8  C   UNL     1       1.761   2.611  20.410  0.00  0.00    +0.000 C 
ATOM      9  N   UNL     1       1.533   1.840  19.188  0.00  0.00    +0.000 NA
ATOM     10  C   UNL     1       2.275   2.418  18.066  0.00  0.00    +0.000 C 
ATOM     11  C   UNL     1       1.843   3.858  17.794  0.00  0.00    +0.000 C 
ATOM     12  H   UNL     1       0.538   1.844  18.968  0.00  0.00    +0.000 HD
ENDBRANCH   5   6
ENDBRANCH   3   5
BRANCH   2  13
ATOM     13  O   UNL     1       6.108   5.025  16.986  0.00  0.00    +0.000 OA
BRANCH  13  14
ATOM     14  C   UNL     1       5.182   4.973  15.893  0.00  0.00    +0.000 C 
BRANCH  14  15
ATOM     15  C   UNL     1       5.878   4.667  14.590  0.00  0.00    +0.000 A 
ATOM     16  C   UNL     1       5.312   3.772  13.669  0.00  0.00    +0.000 A 
ATOM     17  C   UNL     1       5.945   3.513  12.451  0.00  0.00    +0.000 A 
ATOM     18  C   UNL     1       7.151   4.140  12.142  0.00  0.00    +0.000 A 
ATOM     19  C   UNL     1       7.726   5.025  13.052  0.00  0.00    +0.000 A 
ATOM     20  C   UNL     1       7.097   5.284  14.272  0.00  0.00    +0.000 A 
ENDBRANCH  14  15
ENDBRANCH  13  14
ENDBRANCH   2  13
TORSDOF 5
ENDMDL
MODEL 6
REMARK VINA RESULT:      -6.7      1.690      2.171
REMARK  Name = 
REMARK  5 active torsions:
REMARK  status: ('A' for Active; 'I' for Inactive)
REMARK    1  A    between atoms: C_2  and  O_11
REMARK    2  A    between atoms: N_3  and  C_4
REMARK    3  A    between atoms: C_4  and  C_5
REMARK    4  A    between atoms: O_11  and  C_12
REMARK    5  A    between atoms: C_12  and  C_13
REMARK                            x       y       z     vdW  Elec       q    Type
REMARK                         _______ _______ _______ _____ _____    ______ ____
ROOT
ATOM      1  O   UNL     1       4.241   7.283  16.893  0.00  0.00    +0.000 OA
ATOM      2  C   UNL     1       5.127   6.452  17.035  0.00  0.00    +0.000 C 
ATOM      3  N   UNL     1       5.054   5.364  17.855  0.00  0.00    +0.000 N 
ATOM      4  H   UNL     1       5.823   4.712  17.787  0.00  0.00    +0.000 HD
ENDROOT
BRANCH   3   5
ATOM      5  C   UNL     1       3.864   5.021  18.605  0.00  0.00    +0.000 C 
BRANCH   5   6
ATOM      6  C   UNL     1       2.811   4.322  17.729  0.00  0.00    +0.000 C 
ATOM      7  C   UNL     1       1.513   4.070  18.517  0.00  0.00    +0.000 C 
ATOM      8  C   UNL     1       1.615   2.868  19.460  0.00  0.00    +0.000 C 
ATOM      9  N   UNL     1       2.030   1.661  18.746  0.00  0.00    +0.000 NA
ATOM     10  C   UNL     1       3.342   1.852  18.125  0.00  0.00    +0.000 C 
ATOM     11  C   UNL     1       3.321   3.004  17.120  0.00  0.00    +0.000 C 
ATOM     12  H   UNL     1       1.345   1.447  18.021  0.00  0.00    +0.000 HD
ENDBRANCH   5   6
ENDBRANCH   3   5
BRANCH   2  13
ATOM     13  O   UNL     1       6.308   6.438  16.375  0.00  0.00    +0.000 OA
BRANCH  13  14
ATOM     14  C   UNL     1       6.870   5.140  16.142  0.00  0.00    +0.000 C 
BRANCH  14  15
ATOM     15  C   UNL     1       6.835   4.774  14.679  0.00  0.00    +0.000 A 
ATOM     16  C   UNL     1       7.731   5.359  13.773  0.00  0.00    +0.000 A 
ATOM     17  C   UNL     1       7.715   4.997  12.424  0.00  0.00    +0.000 A 
ATOM     18  C   UNL     1       6.800   4.051  11.965  0.00  0.00    +0.000 A 
ATOM     19  C   UNL     1       5.900   3.468  12.854  0.00  0.00    +0.000 A 
ATOM     20  C   UNL     1       5.912   3.830  14.203  0.00  0.00    +0.000 A 
ENDBRANCH  14  15
ENDBRANCH  13  14
ENDBRANCH   2  13
TORSDOF 5
ENDMDL
MODEL 7
REMARK VINA RESULT:      -6.7      1.088      1.652
REMARK  Name = 
REMARK  5 active torsions:
REMARK  status: ('A' for Active; 'I' for Inactive)
REMARK    1  A    between atoms: C_2  and  O_11
REMARK    2  A    between atoms: N_3  and  C_4
REMARK    3  A    between atoms: C_4  and  C_5
REMARK    4  A    between atoms: O_11  and  C_12
REMARK    5  A    between atoms: C_12  and  C_13
REMARK                            x       y       z     vdW  Elec       q    Type
REMARK                         _______ _______ _______ _____ _____    ______ ____
ROOT
ATOM      1  O   UNL     1       6.234   5.771  18.687  0.00  0.00    +0.000 OA
ATOM      2  C   UNL     1       6.079   4.703  18.112  0.00  0.00    +0.000 C 
ATOM      3  N   UNL     1       5.151   3.761  18.448  0.00  0.00    +0.000 N 
ATOM      4  H   UNL     1       5.074   2.977  17.815  0.00  0.00    +0.000 HD
ENDROOT
BRANCH   3   5
ATOM      5  C   UNL     1       4.172   3.959  19.497  0.00  0.00    +0.000 C 
BRANCH   5   6
ATOM      6  C   UNL     1       2.878   4.596  18.966  0.00  0.00    +0.000 C 
ATOM      7  C   UNL     1       1.907   4.919  20.116  0.00  0.00    +0.000 C 
ATOM      8  C   UNL     1       1.161   3.683  20.629  0.00  0.00    +0.000 C 
ATOM      9  N   UNL     1       0.467   2.989  19.545  0.00  0.00    +0.000 NA
ATOM     10  C   UNL     1       1.417   2.544  18.524  0.00  0.00    +0.000 C 
ATOM     11  C   UNL     1       2.172   3.723  17.912  0.00  0.00    +0.000 C 
ATOM     12  H   UNL     1      -0.209   3.622  19.119  0.00  0.00    +0.000 HD
ENDBRANCH   5   6
ENDBRANCH   3   5
BRANCH   2  13
ATOM     13  O   UNL     1       6.763   4.289  17.019  0.00  0.00    +0.000 OA
BRANCH  13  14
ATOM     14  C   UNL     1       7.069   5.310  16.060  0.00  0.00    +0.000 C 
BRANCH  14  15
ATOM     15  C   UNL     1       6.880   4.818  14.647  0.00  0.00    +0.000 A 
ATOM     16  C   UNL     1       7.688   5.301  13.606  0.00  0.00    +0.000 A 
ATOM     17  C   UNL     1       7.529   4.822  12.304  0.00  0.00    +0.000 A 
ATOM     18  C   UNL     1       6.559   3.861  12.026  0.00  0.00    +0.000 A 
ATOM     19  C   UNL     1       5.745   3.379  13.049  0.00  0.00    +0.000 A 
ATOM     20  C   UNL     1       5.900   3.858  14.352  0.00  0.00    +0.000 A 
ENDBRANCH  14  15
ENDBRANCH  13  14
ENDBRANCH   2  13
TORSDOF 5
ENDMDL
MODEL 8
REMARK VINA RESULT:      -6.6      1.218      1.685
REMARK  Name = 
REMARK  5 active torsions:
REMARK  status: ('A' for Active; 'I' for Inactive)
REMARK    1  A    between atoms: C_2  and  O_11
REMARK    2  A    between atoms: N_3  and  C_4
REMARK    3  A    between atoms: C_4  and  C_5
REMARK    4  A    between atoms: O_11  and  C_12
REMARK    5  A    between atoms: C_12  and  C_13
REMARK                            x       y       z     vdW  Elec       q    Type
REMARK                         _______ _______ _______ _____ _____    ______ ____
ROOT
ATOM      1  O   UNL     1       5.962   5.725  18.411  0.00  0.00    +0.000 OA
ATOM      2  C   UNL     1       5.840   4.610  17.922  0.00  0.00    +0.000 C 
ATOM      3  N   UNL     1       5.038   3.623  18.418  0.00  0.00    +0.000 N 
ATOM      4  H   UNL     1       4.962   2.793  17.846  0.00  0.00    +0.000 HD
ENDROOT
BRANCH   3   5
ATOM      5  C   UNL     1       4.166   3.814  19.557  0.00  0.00    +0.000 C 
BRANCH   5   6
ATOM      6  C   UNL     1       3.409   2.528  19.927  0.00  0.00    +0.000 C 
ATOM      7  C   UNL     1       2.500   2.068  18.773  0.00  0.00    +0.000 C 
ATOM      8  C   UNL     1       1.203   2.876  18.680  0.00  0.00    +0.000 C 
ATOM      9  N   UNL     1       0.475   2.867  19.948  0.00  0.00    +0.000 NA
ATOM     10  C   UNL     1       1.288   3.451  21.016  0.00  0.00    +0.000 C 
ATOM     11  C   UNL     1       2.586   2.671  21.219  0.00  0.00    +0.000 C 
ATOM     12  H   UNL     1       0.241   1.905  20.194  0.00  0.00    +0.000 HD
ENDBRANCH   5   6
ENDBRANCH   3   5
BRANCH   2  13
ATOM     13  O   UNL     1       6.435   4.178  16.786  0.00  0.00    +0.000 OA
BRANCH  13  14
ATOM     14  C   UNL     1       6.931   5.206  15.919  0.00  0.00    +0.000 C 
BRANCH  14  15
ATOM     15  C   UNL     1       6.904   4.775  14.474  0.00  0.00    +0.000 A 
ATOM     16  C   UNL     1       6.015   3.780  14.040  0.00  0.00    +0.000 A 
ATOM     17  C   UNL     1       5.973   3.403  12.695  0.00  0.00    +0.000 A 
ATOM     18  C   UNL     1       6.822   4.011  11.772  0.00  0.00    +0.000 A 
ATOM     19  C   UNL     1       7.715   4.995  12.193  0.00  0.00    +0.000 A 
ATOM     20  C   UNL     1       7.761   5.372  13.537  0.00  0.00    +0.000 A 
ENDBRANCH  14  15
ENDBRANCH  13  14
ENDBRANCH   2  13
TORSDOF 5
ENDMDL
MODEL 9
REMARK VINA RESULT:      -6.5      0.857      1.258
REMARK  Name = 
REMARK  5 active torsions:
REMARK  status: ('A' for Active; 'I' for Inactive)
REMARK    1  A    between atoms: C_2  and  O_11
REMARK    2  A    between atoms: N_3  and  C_4
REMARK    3  A    between atoms: C_4  and  C_5
REMARK    4  A    between atoms: O_11  and  C_12
REMARK    5  A    between atoms: C_12  and  C_13
REMARK                            x       y       z     vdW  Elec       q    Type
REMARK                         _______ _______ _______ _____ _____    ______ ____
ROOT
ATOM      1  O   UNL     1       7.216   4.615  18.954  0.00  0.00    +0.000 OA
ATOM      2  C   UNL     1       6.758   4.448  17.833  0.00  0.00    +0.000 C 
ATOM      3  N   UNL     1       5.485   4.037  17.562  0.00  0.00    +0.000 N 
ATOM      4  H   UNL     1       5.221   4.046  16.586  0.00  0.00    +0.000 HD
ENDROOT
BRANCH   3   5
ATOM      5  C   UNL     1       4.489   3.826  18.592  0.00  0.00    +0.000 C 
BRANCH   5   6
ATOM      6  C   UNL     1       3.090   4.277  18.143  0.00  0.00    +0.000 C 
ATOM      7  C   UNL     1       2.665   5.568  18.866  0.00  0.00    +0.000 C 
ATOM      8  C   UNL     1       2.192   5.317  20.300  0.00  0.00    +0.000 C 
ATOM      9  N   UNL     1       1.120   4.323  20.344  0.00  0.00    +0.000 NA
ATOM     10  C   UNL     1       1.577   3.045  19.796  0.00  0.00    +0.000 C 
ATOM     11  C   UNL     1       2.020   3.188  18.341  0.00  0.00    +0.000 C 
ATOM     12  H   UNL     1       0.328   4.658  19.795  0.00  0.00    +0.000 HD
ENDBRANCH   5   6
ENDBRANCH   3   5
BRANCH   2  13
ATOM     13  O   UNL     1       7.411   4.683  16.671  0.00  0.00    +0.000 OA
BRANCH  13  14
ATOM     14  C   UNL     1       6.717   5.513  15.730  0.00  0.00    +0.000 C 
BRANCH  14  15
ATOM     15  C   UNL     1       6.687   4.890  14.357  0.00  0.00    +0.000 A 
ATOM     16  C   UNL     1       7.663   5.214  13.402  0.00  0.00    +0.000 A 
ATOM     17  C   UNL     1       7.649   4.614  12.141  0.00  0.00    +0.000 A 
ATOM     18  C   UNL     1       6.658   3.688  11.818  0.00  0.00    +0.000 A 
ATOM     19  C   UNL     1       5.679   3.364  12.755  0.00  0.00    +0.000 A 
ATOM     20  C   UNL     1       5.689   3.965  14.016  0.00  0.00    +0.000 A 
ENDBRANCH  14  15
ENDBRANCH  13  14
ENDBRANCH   2  13
TORSDOF 5
ENDMDL
