MODEL 1
REMARK VINA RESULT:      -8.7      0.000      0.000
REMARK  Name = 
REMARK  10 active torsions:
REMARK  status: ('A' for Active; 'I' for Inactive)
REMARK    1  A    between atoms: C_1  and  C_2
REMARK    2  A    between atoms: C_5  and  C_6
REMARK    3  A    between atoms: N_7  and  C_8
REMARK    4  A    between atoms: C_10  and  C_11
REMARK    5  A    between atoms: C_14  and  C_15
REMARK    6  A    between atoms: C_19  and  C_20
REMARK    7  A    between atoms: N_22  and  S_23
REMARK    8  A    between atoms: S_23  and  C_24
REMARK    9  A    between atoms: C_31  and  C_32
REMARK   10  A    between atoms: C_32  and  O_34
REMARK                            x       y       z     vdW  Elec       q    Type
REMARK                         _______ _______ _______ _____ _____    ______ ____
ROOT
ATOM      1  C   UNL     1       2.089   7.782  19.205  0.00  0.00    +0.000 A 
ATOM      2  N   UNL     1       2.103   8.766  18.328  0.00  0.00    +0.000 NA
ATOM      3  N   UNL     1       1.368   9.799  18.879  0.00  0.00    +0.000 NA
ATOM      4  C   UNL     1       0.953   9.376  20.056  0.00  0.00    +0.000 A 
ATOM      5  O   UNL     1       1.375   8.100  20.332  0.00  0.00    +0.000 OA
ENDROOT
BRANCH   1   8
ATOM      6  C   UNL     1       4.399   4.844  18.432  0.00  0.00    +0.000 A 
ATOM      7  C   UNL     1       3.765   6.109  18.387  0.00  0.00    +0.000 A 
ATOM      8  C   UNL     1       2.591   6.414  19.102  0.00  0.00    +0.000 A 
ATOM      9  C   UNL     1       1.941   5.378  19.763  0.00  0.00    +0.000 A 
ATOM     10  C   UNL     1       2.511   4.105  19.787  0.00  0.00    +0.000 A 
ATOM     11  C   UNL     1       3.762   3.835  19.182  0.00  0.00    +0.000 A 
BRANCH   6  18
ATOM     12  C   UNL     1       7.317   5.407  19.558  0.00  0.00    +0.000 C 
ATOM     13  C   UNL     1       6.929   4.974  18.177  0.00  0.00    +0.000 A 
ATOM     14  C   UNL     1       7.844   4.722  17.173  0.00  0.00    +0.000 A 
ATOM     15  C   UNL     1       7.145   4.245  16.065  0.00  0.00    +0.000 A 
ATOM     16  C   UNL     1       5.796   4.263  16.365  0.00  0.00    +0.000 A 
ATOM     17  C   UNL     1       4.727   3.994  15.356  0.00  0.00    +0.000 C 
ATOM     18  N   UNL     1       5.632   4.689  17.693  0.00  0.00    +0.000 N 
ENDBRANCH   6  18
BRANCH  11  19
ATOM     19  C   UNL     1       4.281   2.490  19.548  0.00  0.00    +0.000 C 
ATOM     20  O   UNL     1       4.860   2.281  20.601  0.00  0.00    +0.000 OA
BRANCH  19  21
ATOM     21  O   UNL     1       4.174   1.561  18.577  0.00  0.00    +0.000 OA
ATOM     22  H   UNL     1       3.301   1.142  18.467  0.00  0.00    +0.000 HD
ENDBRANCH  19  21
ENDBRANCH  11  19
ENDBRANCH   1   8
BRANCH   4  23
ATOM     23  C   UNL     1       0.117  10.036  21.054  0.00  0.00    +0.000 A 
ATOM     24  C   UNL     1       0.073   9.581  22.381  0.00  0.00    +0.000 A 
ATOM     25  C   UNL     1      -0.730  10.216  23.326  0.00  0.00    +0.000 A 
ATOM     26  C   UNL     1      -1.507  11.310  22.952  0.00  0.00    +0.000 A 
ATOM     27  C   UNL     1      -1.495  11.782  21.630  0.00  0.00    +0.000 A 
ATOM     28  C   UNL     1      -0.673  11.145  20.687  0.00  0.00    +0.000 A 
BRANCH  27  29
ATOM     29  C   UNL     1      -2.410  12.927  21.319  0.00  0.00    +0.000 C 
ATOM     30  O   UNL     1      -2.015  13.865  20.641  0.00  0.00    +0.000 OA
ATOM     31  N   UNL     1      -3.683  12.910  21.896  0.00  0.00    +0.000 N 
ATOM     32  H   UNL     1      -4.027  12.172  22.501  0.00  0.00    +0.000 HD
BRANCH  31  33
ATOM     33  S   UNL     1      -4.826  14.098  21.658  0.00  0.00    +0.000 S 
ATOM     34  C   UNL     1      -6.216  13.502  22.606  0.00  0.00    +0.000 C 
ATOM     35  O   UNL     1      -4.344  15.341  22.211  0.00  0.00    +0.000 OA
ATOM     36  O   UNL     1      -5.171  13.991  20.256  0.00  0.00    +0.000 OA
ENDBRANCH  31  33
ENDBRANCH  27  29
ENDBRANCH   4  23
TORSDOF 7
ENDMDL
MODEL 2
REMARK VINA RESULT:      -8.6      0.949      1.131
REMARK  Name = 
REMARK  10 active torsions:
REMARK  status: ('A' for Active; 'I' for Inactive)
REMARK    1  A    between atoms: C_1  and  C_2
REMARK    2  A    between atoms: C_5  and  C_6
REMARK    3  A    between atoms: N_7  and  C_8
REMARK    4  A    between atoms: C_10  and  C_11
REMARK    5  A    between atoms: C_14  and  C_15
REMARK    6  A    between atoms: C_19  and  C_20
REMARK    7  A    between atoms: N_22  and  S_23
REMARK    8  A    between atoms: S_23  and  C_24
REMARK    9  A    between atoms: C_31  and  C_32
REMARK   10  A    between atoms: C_32  and  O_34
REMARK                            x       y       z     vdW  Elec       q    Type
REMARK                         _______ _______ _______ _____ _____    ______ ____
ROOT
ATOM      1  C   UNL     1       2.047   7.853  18.908  0.00  0.00    +0.000 A 
ATOM      2  N   UNL     1       2.051   8.885  18.087  0.00  0.00    +0.000 NA
ATOM      3  N   UNL     1       1.371   9.904  18.728  0.00  0.00    +0.000 NA
ATOM      4  C   UNL     1       0.995   9.425  19.897  0.00  0.00    +0.000 A 
ATOM      5  O   UNL     1       1.391   8.125  20.082  0.00  0.00    +0.000 OA
ENDROOT
BRANCH   1   8
ATOM      6  C   UNL     1       4.317   4.901  18.074  0.00  0.00    +0.000 A 
ATOM      7  C   UNL     1       3.742   6.195  18.102  0.00  0.00    +0.000 A 
ATOM      8  C   UNL     1       2.504   6.481  18.706  0.00  0.00    +0.000 A 
ATOM      9  C   UNL     1       1.738   5.413  19.162  0.00  0.00    +0.000 A 
ATOM     10  C   UNL     1       2.251   4.117  19.105  0.00  0.00    +0.000 A 
ATOM     11  C   UNL     1       3.554   3.851  18.623  0.00  0.00    +0.000 A 
BRANCH   6  18
ATOM     12  C   UNL     1       7.094   5.402  19.536  0.00  0.00    +0.000 C 
ATOM     13  C   UNL     1       6.860   5.023  18.106  0.00  0.00    +0.000 A 
ATOM     14  C   UNL     1       7.880   4.800  17.201  0.00  0.00    +0.000 A 
ATOM     15  C   UNL     1       7.307   4.369  16.005  0.00  0.00    +0.000 A 
ATOM     16  C   UNL     1       5.932   4.385  16.155  0.00  0.00    +0.000 A 
ATOM     17  C   UNL     1       4.981   4.161  15.024  0.00  0.00    +0.000 C 
ATOM     18  N   UNL     1       5.624   4.764  17.471  0.00  0.00    +0.000 N 
ENDBRANCH   6  18
BRANCH  11  19
ATOM     19  C   UNL     1       3.972   2.448  18.888  0.00  0.00    +0.000 C 
ATOM     20  O   UNL     1       3.369   1.493  18.430  0.00  0.00    +0.000 OA
BRANCH  19  21
ATOM     21  O   UNL     1       4.983   2.319  19.770  0.00  0.00    +0.000 OA
ATOM     22  H   UNL     1       5.526   3.111  19.933  0.00  0.00    +0.000 HD
ENDBRANCH  19  21
ENDBRANCH  11  19
ENDBRANCH   1   8
BRANCH   4  23
ATOM     23  C   UNL     1       0.223  10.050  20.967  0.00  0.00    +0.000 A 
ATOM     24  C   UNL     1       0.084   9.430  22.219  0.00  0.00    +0.000 A 
ATOM     25  C   UNL     1      -0.658  10.033  23.233  0.00  0.00    +0.000 A 
ATOM     26  C   UNL     1      -1.278  11.259  23.004  0.00  0.00    +0.000 A 
ATOM     27  C   UNL     1      -1.169  11.898  21.759  0.00  0.00    +0.000 A 
ATOM     28  C   UNL     1      -0.409  11.291  20.746  0.00  0.00    +0.000 A 
BRANCH  27  29
ATOM     29  C   UNL     1      -1.921  13.183  21.597  0.00  0.00    +0.000 C 
ATOM     30  O   UNL     1      -1.987  13.725  20.503  0.00  0.00    +0.000 OA
ATOM     31  N   UNL     1      -2.461  13.763  22.748  0.00  0.00    +0.000 N 
ATOM     32  H   UNL     1      -2.385  13.366  23.678  0.00  0.00    +0.000 HD
BRANCH  31  33
ATOM     33  S   UNL     1      -3.326  15.187  22.753  0.00  0.00    +0.000 S 
ATOM     34  C   UNL     1      -3.745  15.387  24.476  0.00  0.00    +0.000 C 
ATOM     35  O   UNL     1      -2.469  16.266  22.322  0.00  0.00    +0.000 OA
ATOM     36  O   UNL     1      -4.544  14.873  22.036  0.00  0.00    +0.000 OA
ENDBRANCH  31  33
ENDBRANCH  27  29
ENDBRANCH   4  23
TORSDOF 7
ENDMDL
MODEL 3
REMARK VINA RESULT:      -8.5      2.444      3.084
REMARK  Name = 
REMARK  10 active torsions:
REMARK  status: ('A' for Active; 'I' for Inactive)
REMARK    1  A    between atoms: C_1  and  C_2
REMARK    2  A    between atoms: C_5  and  C_6
REMARK    3  A    between atoms: N_7  and  C_8
REMARK    4  A    between atoms: C_10  and  C_11
REMARK    5  A    between atoms: C_14  and  C_15
REMARK    6  A    between atoms: C_19  and  C_20
REMARK    7  A    between atoms: N_22  and  S_23
REMARK    8  A    between atoms: S_23  and  C_24
REMARK    9  A    between atoms: C_31  and  C_32
REMARK   10  A    between atoms: C_32  and  O_34
REMARK                            x       y       z     vdW  Elec       q    Type
REMARK                         _______ _______ _______ _____ _____    ______ ____
ROOT
ATOM      1  C   UNL     1       1.780   7.393  20.385  0.00  0.00    +0.000 A 
ATOM      2  N   UNL     1       1.850   7.964  21.571  0.00  0.00    +0.000 NA
ATOM      3  N   UNL     1       1.310   9.230  21.433  0.00  0.00    +0.000 NA
ATOM      4  C   UNL     1       0.949   9.348  20.171  0.00  0.00    +0.000 A 
ATOM      5  O   UNL     1       1.217   8.217  19.443  0.00  0.00    +0.000 OA
ENDROOT
BRANCH   1   8
ATOM      6  C   UNL     1       4.121   4.838  18.785  0.00  0.00    +0.000 A 
ATOM      7  C   UNL     1       3.450   6.047  19.091  0.00  0.00    +0.000 A 
ATOM      8  C   UNL     1       2.313   6.116  19.916  0.00  0.00    +0.000 A 
ATOM      9  C   UNL     1       1.731   4.922  20.327  0.00  0.00    +0.000 A 
ATOM     10  C   UNL     1       2.336   3.708  20.003  0.00  0.00    +0.000 A 
ATOM     11  C   UNL     1       3.556   3.649  19.288  0.00  0.00    +0.000 A 
BRANCH   6  18
ATOM     12  C   UNL     1       4.295   4.166  15.684  0.00  0.00    +0.000 C 
ATOM     13  C   UNL     1       5.402   4.589  16.599  0.00  0.00    +0.000 A 
ATOM     14  C   UNL     1       6.705   4.780  16.180  0.00  0.00    +0.000 A 
ATOM     15  C   UNL     1       7.437   5.267  17.262  0.00  0.00    +0.000 A 
ATOM     16  C   UNL     1       6.601   5.316  18.362  0.00  0.00    +0.000 A 
ATOM     17  C   UNL     1       7.082   5.614  19.746  0.00  0.00    +0.000 C 
ATOM     18  N   UNL     1       5.312   4.923  17.970  0.00  0.00    +0.000 N 
ENDBRANCH   6  18
BRANCH  11  19
ATOM     19  C   UNL     1       4.133   2.277  19.278  0.00  0.00    +0.000 C 
ATOM     20  O   UNL     1       3.647   1.374  18.620  0.00  0.00    +0.000 OA
BRANCH  19  21
ATOM     21  O   UNL     1       5.147   2.087  20.145  0.00  0.00    +0.000 OA
ATOM     22  H   UNL     1       4.961   2.274  21.083  0.00  0.00    +0.000 HD
ENDBRANCH  19  21
ENDBRANCH  11  19
ENDBRANCH   1   8
BRANCH   4  23
ATOM     23  C   UNL     1       0.355  10.477  19.462  0.00  0.00    +0.000 A 
ATOM     24  C   UNL     1       1.058  11.680  19.295  0.00  0.00    +0.000 A 
ATOM     25  C   UNL     1       0.481  12.754  18.618  0.00  0.00    +0.000 A 
ATOM     26  C   UNL     1      -0.811  12.639  18.110  0.00  0.00    +0.000 A 
ATOM     27  C   UNL     1      -1.545  11.454  18.273  0.00  0.00    +0.000 A 
ATOM     28  C   UNL     1      -0.952  10.372  18.943  0.00  0.00    +0.000 A 
BRANCH  27  29
ATOM     29  C   UNL     1      -2.945  11.454  17.739  0.00  0.00    +0.000 C 
ATOM     30  O   UNL     1      -3.172  11.065  16.603  0.00  0.00    +0.000 OA
ATOM     31  N   UNL     1      -3.946  11.986  18.558  0.00  0.00    +0.000 N 
ATOM     32  H   UNL     1      -3.786  12.360  19.487  0.00  0.00    +0.000 HD
BRANCH  31  33
ATOM     33  S   UNL     1      -5.553  12.064  18.128  0.00  0.00    +0.000 S 
ATOM     34  C   UNL     1      -6.260  13.063  19.426  0.00  0.00    +0.000 C 
ATOM     35  O   UNL     1      -5.674  12.741  16.858  0.00  0.00    +0.000 OA
ATOM     36  O   UNL     1      -6.039  10.711  18.298  0.00  0.00    +0.000 OA
ENDBRANCH  31  33
ENDBRANCH  27  29
ENDBRANCH   4  23
TORSDOF 7
ENDMDL
MODEL 4
REMARK VINA RESULT:      -8.4      1.774      2.219
REMARK  Name = 
REMARK  10 active torsions:
REMARK  status: ('A' for Active; 'I' for Inactive)
REMARK    1  A    between atoms: C_1  and  C_2
REMARK    2  A    between atoms: C_5  and  C_6
REMARK    3  A    between atoms: N_7  and  C_8
REMARK    4  A    between atoms: C_10  and  C_11
REMARK    5  A    between atoms: C_14  and  C_15
REMARK    6  A    between atoms: C_19  and  C_20
REMARK    7  A    between atoms: N_22  and  S_23
REMARK    8  A    between atoms: S_23  and  C_24
REMARK    9  A    between atoms: C_31  and  C_32
REMARK   10  A    between atoms: C_32  and  O_34
REMARK                            x       y       z     vdW  Elec       q    Type
REMARK                         _______ _______ _______ _____ _____    ______ ____
ROOT
ATOM      1  C   UNL     1       2.036   7.966  18.545  0.00  0.00    +0.000 A 
ATOM      2  N   UNL     1       1.961   8.955  17.678  0.00  0.00    +0.000 NA
ATOM      3  N   UNL     1       1.335  10.004  18.326  0.00  0.00    +0.000 NA
ATOM      4  C   UNL     1       1.068   9.584  19.546  0.00  0.00    +0.000 A 
ATOM      5  O   UNL     1       1.487   8.295  19.759  0.00  0.00    +0.000 OA
ENDROOT
BRANCH   1   8
ATOM      6  C   UNL     1       4.300   4.975  17.844  0.00  0.00    +0.000 A 
ATOM      7  C   UNL     1       3.746   6.278  17.838  0.00  0.00    +0.000 A 
ATOM      8  C   UNL     1       2.481   6.586  18.371  0.00  0.00    +0.000 A 
ATOM      9  C   UNL     1       1.674   5.532  18.785  0.00  0.00    +0.000 A 
ATOM     10  C   UNL     1       2.167   4.227  18.758  0.00  0.00    +0.000 A 
ATOM     11  C   UNL     1       3.491   3.939  18.350  0.00  0.00    +0.000 A 
BRANCH   6  18
ATOM     12  C   UNL     1       6.999   5.359  19.478  0.00  0.00    +0.000 C 
ATOM     13  C   UNL     1       6.840   5.022  18.027  0.00  0.00    +0.000 A 
ATOM     14  C   UNL     1       7.905   4.793  17.178  0.00  0.00    +0.000 A 
ATOM     15  C   UNL     1       7.392   4.408  15.940  0.00  0.00    +0.000 A 
ATOM     16  C   UNL     1       6.012   4.460  16.009  0.00  0.00    +0.000 A 
ATOM     17  C   UNL     1       5.123   4.291  14.820  0.00  0.00    +0.000 C 
ATOM     18  N   UNL     1       5.636   4.815  17.314  0.00  0.00    +0.000 N 
ENDBRANCH   6  18
BRANCH  11  19
ATOM     19  C   UNL     1       3.870   2.529  18.641  0.00  0.00    +0.000 C 
ATOM     20  O   UNL     1       3.286   1.583  18.141  0.00  0.00    +0.000 OA
BRANCH  19  21
ATOM     21  O   UNL     1       4.817   2.385  19.589  0.00  0.00    +0.000 OA
ATOM     22  H   UNL     1       5.695   2.758  19.391  0.00  0.00    +0.000 HD
ENDBRANCH  19  21
ENDBRANCH  11  19
ENDBRANCH   1   8
BRANCH   4  23
ATOM     23  C   UNL     1       0.392  10.259  20.649  0.00  0.00    +0.000 A 
ATOM     24  C   UNL     1      -0.015   9.554  21.792  0.00  0.00    +0.000 A 
ATOM     25  C   UNL     1      -0.663  10.208  22.840  0.00  0.00    +0.000 A 
ATOM     26  C   UNL     1      -0.920  11.574  22.750  0.00  0.00    +0.000 A 
ATOM     27  C   UNL     1      -0.538  12.305  21.615  0.00  0.00    +0.000 A 
ATOM     28  C   UNL     1       0.127  11.642  20.570  0.00  0.00    +0.000 A 
BRANCH  27  29
ATOM     29  C   UNL     1      -0.912  13.756  21.593  0.00  0.00    +0.000 C 
ATOM     30  O   UNL     1      -1.533  14.246  22.525  0.00  0.00    +0.000 OA
ATOM     31  N   UNL     1      -0.594  14.486  20.444  0.00  0.00    +0.000 N 
ATOM     32  H   UNL     1      -0.121  14.100  19.634  0.00  0.00    +0.000 HD
BRANCH  31  33
ATOM     33  S   UNL     1      -0.934  16.105  20.250  0.00  0.00    +0.000 S 
ATOM     34  C   UNL     1      -0.378  16.427  18.585  0.00  0.00    +0.000 C 
ATOM     35  O   UNL     1      -2.360  16.307  20.345  0.00  0.00    +0.000 OA
ATOM     36  O   UNL     1      -0.025  16.776  21.155  0.00  0.00    +0.000 OA
ENDBRANCH  31  33
ENDBRANCH  27  29
ENDBRANCH   4  23
TORSDOF 7
ENDMDL
MODEL 5
REMARK VINA RESULT:      -8.4      2.262      2.501
REMARK  Name = 
REMARK  10 active torsions:
REMARK  status: ('A' for Active; 'I' for Inactive)
REMARK    1  A    between atoms: C_1  and  C_2
REMARK    2  A    between atoms: C_5  and  C_6
REMARK    3  A    between atoms: N_7  and  C_8
REMARK    4  A    between atoms: C_10  and  C_11
REMARK    5  A    between atoms: C_14  and  C_15
REMARK    6  A    between atoms: C_19  and  C_20
REMARK    7  A    between atoms: N_22  and  S_23
REMARK    8  A    between atoms: S_23  and  C_24
REMARK    9  A    between atoms: C_31  and  C_32
REMARK   10  A    between atoms: C_32  and  O_34
REMARK                            x       y       z     vdW  Elec       q    Type
REMARK                         _______ _______ _______ _____ _____    ______ ____
ROOT
ATOM      1  C   UNL     1       2.204   8.391  18.130  0.00  0.00    +0.000 A 
ATOM      2  N   UNL     1       2.746   9.395  17.470  0.00  0.00    +0.000 NA
ATOM      3  N   UNL     1       1.932  10.493  17.681  0.00  0.00    +0.000 NA
ATOM      4  C   UNL     1       0.947  10.084  18.454  0.00  0.00    +0.000 A 
ATOM      5  O   UNL     1       1.054   8.757  18.782  0.00  0.00    +0.000 OA
ENDROOT
BRANCH   1   8
ATOM      6  C   UNL     1       4.266   5.192  17.842  0.00  0.00    +0.000 A 
ATOM      7  C   UNL     1       3.788   6.511  17.648  0.00  0.00    +0.000 A 
ATOM      8  C   UNL     1       2.562   6.975  18.160  0.00  0.00    +0.000 A 
ATOM      9  C   UNL     1       1.711   6.049  18.753  0.00  0.00    +0.000 A 
ATOM     10  C   UNL     1       2.127   4.728  18.916  0.00  0.00    +0.000 A 
ATOM     11  C   UNL     1       3.416   4.298  18.523  0.00  0.00    +0.000 A 
BRANCH   6  18
ATOM     12  C   UNL     1       7.002   5.292  19.455  0.00  0.00    +0.000 C 
ATOM     13  C   UNL     1       6.795   4.949  18.012  0.00  0.00    +0.000 A 
ATOM     14  C   UNL     1       7.821   4.583  17.162  0.00  0.00    +0.000 A 
ATOM     15  C   UNL     1       7.258   4.238  15.934  0.00  0.00    +0.000 A 
ATOM     16  C   UNL     1       5.894   4.450  16.008  0.00  0.00    +0.000 A 
ATOM     17  C   UNL     1       4.983   4.363  14.827  0.00  0.00    +0.000 C 
ATOM     18  N   UNL     1       5.571   4.870  17.309  0.00  0.00    +0.000 N 
ENDBRANCH   6  18
BRANCH  11  19
ATOM     19  C   UNL     1       3.724   2.929  19.019  0.00  0.00    +0.000 C 
ATOM     20  O   UNL     1       3.851   2.681  20.206  0.00  0.00    +0.000 OA
BRANCH  19  21
ATOM     21  O   UNL     1       3.974   2.023  18.052  0.00  0.00    +0.000 OA
ATOM     22  H   UNL     1       3.611   2.214  17.169  0.00  0.00    +0.000 HD
ENDBRANCH  19  21
ENDBRANCH  11  19
ENDBRANCH   1   8
BRANCH   4  23
ATOM     23  C   UNL     1      -0.212  10.809  18.967  0.00  0.00    +0.000 A 
ATOM     24  C   UNL     1      -0.158  11.490  20.193  0.00  0.00    +0.000 A 
ATOM     25  C   UNL     1      -1.270  12.178  20.676  0.00  0.00    +0.000 A 
ATOM     26  C   UNL     1      -2.454  12.184  19.941  0.00  0.00    +0.000 A 
ATOM     27  C   UNL     1      -2.544  11.502  18.718  0.00  0.00    +0.000 A 
ATOM     28  C   UNL     1      -1.415  10.823  18.232  0.00  0.00    +0.000 A 
BRANCH  27  29
ATOM     29  C   UNL     1      -3.877  11.522  18.035  0.00  0.00    +0.000 C 
ATOM     30  O   UNL     1      -3.977  11.179  16.867  0.00  0.00    +0.000 OA
ATOM     31  N   UNL     1      -4.964  12.021  18.760  0.00  0.00    +0.000 N 
ATOM     32  H   UNL     1      -4.908  12.358  19.715  0.00  0.00    +0.000 HD
BRANCH  31  33
ATOM     33  S   UNL     1      -6.515  12.116  18.160  0.00  0.00    +0.000 S 
ATOM     34  C   UNL     1      -7.377  13.018  19.436  0.00  0.00    +0.000 C 
ATOM     35  O   UNL     1      -6.506  12.878  16.933  0.00  0.00    +0.000 OA
ATOM     36  O   UNL     1      -6.996  10.751  18.184  0.00  0.00    +0.000 OA
ENDBRANCH  31  33
ENDBRANCH  27  29
ENDBRANCH   4  23
TORSDOF 7
ENDMDL
MODEL 6
REMARK VINA RESULT:      -8.4      2.219      2.805
REMARK  Name = 
REMARK  10 active torsions:
REMARK  status: ('A' for Active; 'I' for Inactive)
REMARK    1  A    between atoms: C_1  and  C_2
REMARK    2  A    between atoms: C_5  and  C_6
REMARK    3  A    between atoms: N_7  and  C_8
REMARK    4  A    between atoms: C_10  and  C_11
REMARK    5  A    between atoms: C_14  and  C_15
REMARK    6  A    between atoms: C_19  and  C_20
REMARK    7  A    between atoms: N_22  and  S_23
REMARK    8  A    between atoms: S_23  and  C_24
REMARK    9  A    between atoms: C_31  and  C_32
REMARK   10  A    between atoms: C_32  and  O_34
REMARK                            x       y       z     vdW  Elec       q    Type
REMARK                         _______ _______ _______ _____ _____    ______ ____
ROOT
ATOM      1  C   UNL     1       2.231   8.425  18.167  0.00  0.00    +0.000 A 
ATOM      2  N   UNL     1       2.745   9.419  17.470  0.00  0.00    +0.000 NA
ATOM      3  N   UNL     1       1.929  10.515  17.684  0.00  0.00    +0.000 NA
ATOM      4  C   UNL     1       0.971  10.116  18.496  0.00  0.00    +0.000 A 
ATOM      5  O   UNL     1       1.099   8.796  18.847  0.00  0.00    +0.000 OA
ENDROOT
BRANCH   1   8
ATOM      6  C   UNL     1       4.327   5.243  17.950  0.00  0.00    +0.000 A 
ATOM      7  C   UNL     1       3.843   6.556  17.736  0.00  0.00    +0.000 A 
ATOM      8  C   UNL     1       2.601   7.013  18.215  0.00  0.00    +0.000 A 
ATOM      9  C   UNL     1       1.743   6.083  18.794  0.00  0.00    +0.000 A 
ATOM     10  C   UNL     1       2.166   4.767  18.976  0.00  0.00    +0.000 A 
ATOM     11  C   UNL     1       3.469   4.346  18.617  0.00  0.00    +0.000 A 
BRANCH   6  18
ATOM     12  C   UNL     1       4.992   4.123  15.051  0.00  0.00    +0.000 C 
ATOM     13  C   UNL     1       5.944   4.394  16.175  0.00  0.00    +0.000 A 
ATOM     14  C   UNL     1       7.310   4.211  16.076  0.00  0.00    +0.000 A 
ATOM     15  C   UNL     1       7.889   4.656  17.264  0.00  0.00    +0.000 A 
ATOM     16  C   UNL     1       6.876   5.055  18.116  0.00  0.00    +0.000 A 
ATOM     17  C   UNL     1       7.103   5.420  19.548  0.00  0.00    +0.000 C 
ATOM     18  N   UNL     1       5.647   4.928  17.450  0.00  0.00    +0.000 N 
ENDBRANCH   6  18
BRANCH  11  19
ATOM     19  C   UNL     1       3.776   2.982  19.128  0.00  0.00    +0.000 C 
ATOM     20  O   UNL     1       4.753   2.754  19.821  0.00  0.00    +0.000 OA
BRANCH  19  21
ATOM     21  O   UNL     1       2.967   2.010  18.662  0.00  0.00    +0.000 OA
ATOM     22  H   UNL     1       3.247   1.092  18.827  0.00  0.00    +0.000 HD
ENDBRANCH  19  21
ENDBRANCH  11  19
ENDBRANCH   1   8
BRANCH   4  23
ATOM     23  C   UNL     1      -0.176  10.844  19.029  0.00  0.00    +0.000 A 
ATOM     24  C   UNL     1      -0.104  11.511  20.261  0.00  0.00    +0.000 A 
ATOM     25  C   UNL     1      -1.206  12.201  20.763  0.00  0.00    +0.000 A 
ATOM     26  C   UNL     1      -2.398  12.223  20.042  0.00  0.00    +0.000 A 
ATOM     27  C   UNL     1      -2.506  11.554  18.813  0.00  0.00    +0.000 A 
ATOM     28  C   UNL     1      -1.387  10.873  18.307  0.00  0.00    +0.000 A 
BRANCH  27  29
ATOM     29  C   UNL     1      -3.847  11.591  18.145  0.00  0.00    +0.000 C 
ATOM     30  O   UNL     1      -4.056  10.923  17.143  0.00  0.00    +0.000 OA
ATOM     31  N   UNL     1      -4.801  12.472  18.664  0.00  0.00    +0.000 N 
ATOM     32  H   UNL     1      -4.646  13.075  19.464  0.00  0.00    +0.000 HD
BRANCH  31  33
ATOM     33  S   UNL     1      -6.339  12.642  18.049  0.00  0.00    +0.000 S 
ATOM     34  C   UNL     1      -7.157  13.620  19.298  0.00  0.00    +0.000 C 
ATOM     35  O   UNL     1      -6.278  13.373  16.806  0.00  0.00    +0.000 OA
ATOM     36  O   UNL     1      -6.898  11.307  18.099  0.00  0.00    +0.000 OA
ENDBRANCH  31  33
ENDBRANCH  27  29
ENDBRANCH   4  23
TORSDOF 7
ENDMDL
MODEL 7
REMARK VINA RESULT:      -8.4      2.446      2.745
REMARK  Name = 
REMARK  10 active torsions:
REMARK  status: ('A' for Active; 'I' for Inactive)
REMARK    1  A    between atoms: C_1  and  C_2
REMARK    2  A    between atoms: C_5  and  C_6
REMARK    3  A    between atoms: N_7  and  C_8
REMARK    4  A    between atoms: C_10  and  C_11
REMARK    5  A    between atoms: C_14  and  C_15
REMARK    6  A    between atoms: C_19  and  C_20
REMARK    7  A    between atoms: N_22  and  S_23
REMARK    8  A    between atoms: S_23  and  C_24
REMARK    9  A    between atoms: C_31  and  C_32
REMARK   10  A    between atoms: C_32  and  O_34
REMARK                            x       y       z     vdW  Elec       q    Type
REMARK                         _______ _______ _______ _____ _____    ______ ____
ROOT
ATOM      1  C   UNL     1       1.810   7.355  20.354  0.00  0.00    +0.000 A 
ATOM      2  N   UNL     1       1.896   7.929  21.537  0.00  0.00    +0.000 NA
ATOM      3  N   UNL     1       1.357   9.196  21.403  0.00  0.00    +0.000 NA
ATOM      4  C   UNL     1       0.980   9.310  20.146  0.00  0.00    +0.000 A 
ATOM      5  O   UNL     1       1.235   8.177  19.417  0.00  0.00    +0.000 OA
ENDROOT
BRANCH   1   8
ATOM      6  C   UNL     1       4.133   4.786  18.751  0.00  0.00    +0.000 A 
ATOM      7  C   UNL     1       3.471   6.000  19.059  0.00  0.00    +0.000 A 
ATOM      8  C   UNL     1       2.333   6.075  19.883  0.00  0.00    +0.000 A 
ATOM      9  C   UNL     1       1.741   4.884  20.288  0.00  0.00    +0.000 A 
ATOM     10  C   UNL     1       2.336   3.666  19.961  0.00  0.00    +0.000 A 
ATOM     11  C   UNL     1       3.558   3.600  19.249  0.00  0.00    +0.000 A 
BRANCH   6  18
ATOM     12  C   UNL     1       7.025   5.606  19.783  0.00  0.00    +0.000 C 
ATOM     13  C   UNL     1       6.607   5.265  18.386  0.00  0.00    +0.000 A 
ATOM     14  C   UNL     1       7.482   5.233  17.317  0.00  0.00    +0.000 A 
ATOM     15  C   UNL     1       6.778   4.782  16.201  0.00  0.00    +0.000 A 
ATOM     16  C   UNL     1       5.458   4.596  16.567  0.00  0.00    +0.000 A 
ATOM     17  C   UNL     1       4.369   4.292  15.590  0.00  0.00    +0.000 C 
ATOM     18  N   UNL     1       5.327   4.865  17.939  0.00  0.00    +0.000 N 
ENDBRANCH   6  18
BRANCH  11  19
ATOM     19  C   UNL     1       4.123   2.224  19.235  0.00  0.00    +0.000 C 
ATOM     20  O   UNL     1       3.630   1.326  18.575  0.00  0.00    +0.000 OA
BRANCH  19  21
ATOM     21  O   UNL     1       5.135   2.022  20.102  0.00  0.00    +0.000 OA
ATOM     22  H   UNL     1       5.949   1.628  19.741  0.00  0.00    +0.000 HD
ENDBRANCH  19  21
ENDBRANCH  11  19
ENDBRANCH   1   8
BRANCH   4  23
ATOM     23  C   UNL     1       0.379  10.439  19.441  0.00  0.00    +0.000 A 
ATOM     24  C   UNL     1       1.080  11.642  19.267  0.00  0.00    +0.000 A 
ATOM     25  C   UNL     1       0.497  12.715  18.595  0.00  0.00    +0.000 A 
ATOM     26  C   UNL     1      -0.799  12.600  18.098  0.00  0.00    +0.000 A 
ATOM     27  C   UNL     1      -1.531  11.414  18.268  0.00  0.00    +0.000 A 
ATOM     28  C   UNL     1      -0.932  10.333  18.933  0.00  0.00    +0.000 A 
BRANCH  27  29
ATOM     29  C   UNL     1      -2.936  11.413  17.747  0.00  0.00    +0.000 C 
ATOM     30  O   UNL     1      -3.177  10.995  16.625  0.00  0.00    +0.000 OA
ATOM     31  N   UNL     1      -3.924  11.979  18.559  0.00  0.00    +0.000 N 
ATOM     32  H   UNL     1      -3.752  12.378  19.475  0.00  0.00    +0.000 HD
BRANCH  31  33
ATOM     33  S   UNL     1      -5.534  12.062  18.140  0.00  0.00    +0.000 S 
ATOM     34  C   UNL     1      -6.233  13.045  19.455  0.00  0.00    +0.000 C 
ATOM     35  O   UNL     1      -5.664  12.753  16.880  0.00  0.00    +0.000 OA
ATOM     36  O   UNL     1      -6.019  10.706  18.298  0.00  0.00    +0.000 OA
ENDBRANCH  31  33
ENDBRANCH  27  29
ENDBRANCH   4  23
TORSDOF 7
ENDMDL
MODEL 8
REMARK VINA RESULT:      -8.4      1.649      2.093
REMARK  Name = 
REMARK  10 active torsions:
REMARK  status: ('A' for Active; 'I' for Inactive)
REMARK    1  A    between atoms: C_1  and  C_2
REMARK    2  A    between atoms: C_5  and  C_6
REMARK    3  A    between atoms: N_7  and  C_8
REMARK    4  A    between atoms: C_10  and  C_11
REMARK    5  A    between atoms: C_14  and  C_15
REMARK    6  A    between atoms: C_19  and  C_20
REMARK    7  A    between atoms: N_22  and  S_23
REMARK    8  A    between atoms: S_23  and  C_24
REMARK    9  A    between atoms: C_31  and  C_32
REMARK   10  A    between atoms: C_32  and  O_34
REMARK                            x       y       z     vdW  Elec       q    Type
REMARK                         _______ _______ _______ _____ _____    ______ ____
ROOT
ATOM      1  C   UNL     1       2.080   7.796  19.116  0.00  0.00    +0.000 A 
ATOM      2  N   UNL     1       1.999   8.745  18.206  0.00  0.00    +0.000 NA
ATOM      3  N   UNL     1       1.313   9.795  18.788  0.00  0.00    +0.000 NA
ATOM      4  C   UNL     1       1.020   9.415  20.015  0.00  0.00    +0.000 A 
ATOM      5  O   UNL     1       1.478   8.153  20.296  0.00  0.00    +0.000 OA
ENDROOT
BRANCH   1   8
ATOM      6  C   UNL     1       4.401   4.857  18.377  0.00  0.00    +0.000 A 
ATOM      7  C   UNL     1       3.770   6.124  18.326  0.00  0.00    +0.000 A 
ATOM      8  C   UNL     1       2.581   6.427  19.015  0.00  0.00    +0.000 A 
ATOM      9  C   UNL     1       1.914   5.388  19.653  0.00  0.00    +0.000 A 
ATOM     10  C   UNL     1       2.480   4.113  19.682  0.00  0.00    +0.000 A 
ATOM     11  C   UNL     1       3.743   3.845  19.104  0.00  0.00    +0.000 A 
BRANCH   6  18
ATOM     12  C   UNL     1       7.291   5.445  19.561  0.00  0.00    +0.000 C 
ATOM     13  C   UNL     1       6.935   5.000  18.175  0.00  0.00    +0.000 A 
ATOM     14  C   UNL     1       7.873   4.747  17.193  0.00  0.00    +0.000 A 
ATOM     15  C   UNL     1       7.200   4.258  16.074  0.00  0.00    +0.000 A 
ATOM     16  C   UNL     1       5.844   4.270  16.344  0.00  0.00    +0.000 A 
ATOM     17  C   UNL     1       4.799   3.988  15.315  0.00  0.00    +0.000 C 
ATOM     18  N   UNL     1       5.650   4.704  17.665  0.00  0.00    +0.000 N 
ENDBRANCH   6  18
BRANCH  11  19
ATOM     19  C   UNL     1       4.251   2.496  19.473  0.00  0.00    +0.000 C 
ATOM     20  O   UNL     1       4.959   2.312  20.449  0.00  0.00    +0.000 OA
BRANCH  19  21
ATOM     21  O   UNL     1       3.974   1.526  18.579  0.00  0.00    +0.000 OA
ATOM     22  H   UNL     1       4.466   1.552  17.738  0.00  0.00    +0.000 HD
ENDBRANCH  19  21
ENDBRANCH  11  19
ENDBRANCH   1   8
BRANCH   4  23
ATOM     23  C   UNL     1       0.281  10.109  21.066  0.00  0.00    +0.000 A 
ATOM     24  C   UNL     1      -0.172   9.428  22.206  0.00  0.00    +0.000 A 
ATOM     25  C   UNL     1      -0.879  10.098  23.203  0.00  0.00    +0.000 A 
ATOM     26  C   UNL     1      -1.150  11.458  23.065  0.00  0.00    +0.000 A 
ATOM     27  C   UNL     1      -0.722  12.165  21.930  0.00  0.00    +0.000 A 
ATOM     28  C   UNL     1       0.002  11.485  20.938  0.00  0.00    +0.000 A 
BRANCH  27  29
ATOM     29  C   UNL     1      -1.114  13.608  21.853  0.00  0.00    +0.000 C 
ATOM     30  O   UNL     1      -2.117  13.943  21.239  0.00  0.00    +0.000 OA
ATOM     31  N   UNL     1      -0.251  14.542  22.433  0.00  0.00    +0.000 N 
ATOM     32  H   UNL     1       0.612  14.304  22.909  0.00  0.00    +0.000 HD
BRANCH  31  33
ATOM     33  S   UNL     1      -0.530  16.185  22.441  0.00  0.00    +0.000 S 
ATOM     34  C   UNL     1       0.855  16.815  23.373  0.00  0.00    +0.000 C 
ATOM     35  O   UNL     1      -0.485  16.682  21.087  0.00  0.00    +0.000 OA
ATOM     36  O   UNL     1      -1.717  16.346  23.254  0.00  0.00    +0.000 OA
ENDBRANCH  31  33
ENDBRANCH  27  29
ENDBRANCH   4  23
TORSDOF 7
ENDMDL
MODEL 9
REMARK VINA RESULT:      -8.3      0.612      1.578
REMARK  Name = 
REMARK  10 active torsions:
REMARK  status: ('A' for Active; 'I' for Inactive)
REMARK    1  A    between atoms: C_1  and  C_2
REMARK    2  A    between atoms: C_5  and  C_6
REMARK    3  A    between atoms: N_7  and  C_8
REMARK    4  A    between atoms: C_10  and  C_11
REMARK    5  A    between atoms: C_14  and  C_15
REMARK    6  A    between atoms: C_19  and  C_20
REMARK    7  A    between atoms: N_22  and  S_23
REMARK    8  A    between atoms: S_23  and  C_24
REMARK    9  A    between atoms: C_31  and  C_32
REMARK   10  A    between atoms: C_32  and  O_34
REMARK                            x       y       z     vdW  Elec       q    Type
REMARK                         _______ _______ _______ _____ _____    ______ ____
ROOT
ATOM      1  C   UNL     1       2.051   7.787  19.160  0.00  0.00    +0.000 A 
ATOM      2  N   UNL     1       2.030   8.771  18.283  0.00  0.00    +0.000 NA
ATOM      3  N   UNL     1       1.298   9.796  18.854  0.00  0.00    +0.000 NA
ATOM      4  C   UNL     1       0.920   9.368  20.042  0.00  0.00    +0.000 A 
ATOM      5  O   UNL     1       1.363   8.097  20.306  0.00  0.00    +0.000 OA
ENDROOT
BRANCH   1   8
ATOM      6  C   UNL     1       4.406   4.882  18.402  0.00  0.00    +0.000 A 
ATOM      7  C   UNL     1       3.765   6.143  18.363  0.00  0.00    +0.000 A 
ATOM      8  C   UNL     1       2.566   6.425  19.043  0.00  0.00    +0.000 A 
ATOM      9  C   UNL     1       1.900   5.370  19.658  0.00  0.00    +0.000 A 
ATOM     10  C   UNL     1       2.478   4.100  19.673  0.00  0.00    +0.000 A 
ATOM     11  C   UNL     1       3.750   3.852  19.106  0.00  0.00    +0.000 A 
BRANCH   6  18
ATOM     12  C   UNL     1       4.768   3.857  15.416  0.00  0.00    +0.000 C 
ATOM     13  C   UNL     1       5.834   4.260  16.388  0.00  0.00    +0.000 A 
ATOM     14  C   UNL     1       7.181   4.266  16.080  0.00  0.00    +0.000 A 
ATOM     15  C   UNL     1       7.869   4.789  17.175  0.00  0.00    +0.000 A 
ATOM     16  C   UNL     1       6.953   5.047  18.178  0.00  0.00    +0.000 A 
ATOM     17  C   UNL     1       7.343   5.443  19.565  0.00  0.00    +0.000 C 
ATOM     18  N   UNL     1       5.665   4.751  17.703  0.00  0.00    +0.000 N 
ENDBRANCH   6  18
BRANCH  11  19
ATOM     19  C   UNL     1       4.266   2.502  19.459  0.00  0.00    +0.000 C 
ATOM     20  O   UNL     1       4.982   2.313  20.428  0.00  0.00    +0.000 OA
BRANCH  19  21
ATOM     21  O   UNL     1       3.985   1.539  18.559  0.00  0.00    +0.000 OA
ATOM     22  H   UNL     1       4.670   0.861  18.415  0.00  0.00    +0.000 HD
ENDBRANCH  19  21
ENDBRANCH  11  19
ENDBRANCH   1   8
BRANCH   4  23
ATOM     23  C   UNL     1       0.104  10.019  21.062  0.00  0.00    +0.000 A 
ATOM     24  C   UNL     1       0.107   9.568  22.391  0.00  0.00    +0.000 A 
ATOM     25  C   UNL     1      -0.678  10.195  23.358  0.00  0.00    +0.000 A 
ATOM     26  C   UNL     1      -1.484  11.275  23.003  0.00  0.00    +0.000 A 
ATOM     27  C   UNL     1      -1.519  11.741  21.679  0.00  0.00    +0.000 A 
ATOM     28  C   UNL     1      -0.715  11.113  20.715  0.00  0.00    +0.000 A 
BRANCH  27  29
ATOM     29  C   UNL     1      -2.461  12.870  21.391  0.00  0.00    +0.000 C 
ATOM     30  O   UNL     1      -2.117  13.789  20.663  0.00  0.00    +0.000 OA
ATOM     31  N   UNL     1      -3.695  12.862  22.048  0.00  0.00    +0.000 N 
ATOM     32  H   UNL     1      -3.994  12.141  22.695  0.00  0.00    +0.000 HD
BRANCH  31  33
ATOM     33  S   UNL     1      -4.862  14.034  21.846  0.00  0.00    +0.000 S 
ATOM     34  C   UNL     1      -5.374  13.792  20.154  0.00  0.00    +0.000 C 
ATOM     35  O   UNL     1      -5.963  13.770  22.741  0.00  0.00    +0.000 OA
ATOM     36  O   UNL     1      -4.133  15.284  21.911  0.00  0.00    +0.000 OA
ENDBRANCH  31  33
ENDBRANCH  27  29
ENDBRANCH   4  23
TORSDOF 7
ENDMDL
