MODEL 1
REMARK VINA RESULT:      -8.5      0.000      0.000
REMARK  Name = 
REMARK  6 active torsions:
REMARK  status: ('A' for Active; 'I' for Inactive)
REMARK    1  A    between atoms: C_4  and  C_5
REMARK    2  A    between atoms: C_8  and  O_9
REMARK    3  A    between atoms: C_15  and  O_16
REMARK    4  A    between atoms: O_16  and  C_17
REMARK    5  A    between atoms: C_17  and  C_18
REMARK    6  A    between atoms: C_26  and  O_27
REMARK                            x       y       z     vdW  Elec       q    Type
REMARK                         _______ _______ _______ _____ _____    ______ ____
ROOT
ATOM      1  O   UNL     1       2.083   1.851  18.532  0.00  0.00    +0.000 OA
ATOM      2  C   UNL     1       2.612   2.935  18.308  0.00  0.00    +0.000 C 
ATOM      3  C   UNL     1       3.582   3.089  17.167  0.00  0.00    +0.000 C 
ATOM      4  C   UNL     1       4.631   4.132  17.513  0.00  0.00    +0.000 C 
ATOM      5  O   UNL     1       4.043   5.383  17.870  0.00  0.00    +0.000 OA
ATOM      6  C   UNL     1       3.040   5.307  18.790  0.00  0.00    +0.000 A 
ATOM      7  C   UNL     1       2.781   6.510  19.438  0.00  0.00    +0.000 A 
ATOM      8  C   UNL     1       1.806   6.582  20.426  0.00  0.00    +0.000 A 
ATOM      9  C   UNL     1       1.022   5.459  20.696  0.00  0.00    +0.000 A 
ATOM     10  C   UNL     1       1.266   4.254  20.023  0.00  0.00    +0.000 A 
ATOM     11  C   UNL     1       2.293   4.166  19.073  0.00  0.00    +0.000 A 
ENDROOT
BRANCH   4  12
ATOM     12  C   UNL     1       5.519   4.393  16.309  0.00  0.00    +0.000 A 
ATOM     13  C   UNL     1       6.694   5.161  16.429  0.00  0.00    +0.000 A 
ATOM     14  C   UNL     1       7.484   5.445  15.316  0.00  0.00    +0.000 A 
ATOM     15  C   UNL     1       7.101   4.962  14.073  0.00  0.00    +0.000 A 
ATOM     16  C   UNL     1       5.948   4.197  13.928  0.00  0.00    +0.000 A 
ATOM     17  C   UNL     1       5.157   3.912  15.043  0.00  0.00    +0.000 A 
BRANCH  15  18
ATOM     18  O   UNL     1       7.835   5.228  12.957  0.00  0.00    +0.000 OA
ATOM     19  H   UNL     1       7.443   5.993  12.505  0.00  0.00    +0.000 HD
ENDBRANCH  15  18
ENDBRANCH   4  12
BRANCH  10  20
ATOM     20  O   UNL     1       0.482   3.173  20.304  0.00  0.00    +0.000 OA
ATOM     21  H   UNL     1      -0.458   3.408  20.253  0.00  0.00    +0.000 HD
ENDBRANCH  10  20
BRANCH   8  22
ATOM     22  O   UNL     1       1.560   7.700  21.177  0.00  0.00    +0.000 OA
BRANCH  22  23
ATOM     23  C   UNL     1       1.232   8.866  20.406  0.00  0.00    +0.000 C 
BRANCH  23  24
ATOM     24  C   UNL     1       0.412   9.841  21.213  0.00  0.00    +0.000 A 
ATOM     25  C   UNL     1      -0.166   9.412  22.421  0.00  0.00    +0.000 A 
ATOM     26  C   UNL     1      -0.919  10.295  23.194  0.00  0.00    +0.000 A 
ATOM     27  C   UNL     1      -1.082  11.605  22.766  0.00  0.00    +0.000 A 
ATOM     28  F   UNL     1      -1.810  12.452  23.507  0.00  0.00    +0.000 F 
ATOM     29  C   UNL     1      -0.500  12.051  21.588  0.00  0.00    +0.000 A 
ATOM     30  C   UNL     1       0.257  11.174  20.812  0.00  0.00    +0.000 A 
ENDBRANCH  23  24
ENDBRANCH  22  23
ENDBRANCH   8  22
TORSDOF 6
ENDMDL
MODEL 2
REMARK VINA RESULT:      -8.4      4.331     10.561
REMARK  Name = 
REMARK  6 active torsions:
REMARK  status: ('A' for Active; 'I' for Inactive)
REMARK    1  A    between atoms: C_4  and  C_5
REMARK    2  A    between atoms: C_8  and  O_9
REMARK    3  A    between atoms: C_15  and  O_16
REMARK    4  A    between atoms: O_16  and  C_17
REMARK    5  A    between atoms: C_17  and  C_18
REMARK    6  A    between atoms: C_26  and  O_27
REMARK                            x       y       z     vdW  Elec       q    Type
REMARK                         _______ _______ _______ _____ _____    ______ ____
ROOT
ATOM      1  O   UNL     1      -0.374  12.722  18.252  0.00  0.00    +0.000 OA
ATOM      2  C   UNL     1      -0.715  12.082  19.241  0.00  0.00    +0.000 C 
ATOM      3  C   UNL     1      -1.907  12.511  20.053  0.00  0.00    +0.000 C 
ATOM      4  C   UNL     1      -1.702  12.145  21.513  0.00  0.00    +0.000 C 
ATOM      5  O   UNL     1      -1.431  10.754  21.681  0.00  0.00    +0.000 OA
ATOM      6  C   UNL     1      -0.463  10.252  20.863  0.00  0.00    +0.000 A 
ATOM      7  C   UNL     1       0.087   9.056  21.312  0.00  0.00    +0.000 A 
ATOM      8  C   UNL     1       1.108   8.439  20.598  0.00  0.00    +0.000 A 
ATOM      9  C   UNL     1       1.511   8.978  19.375  0.00  0.00    +0.000 A 
ATOM     10  C   UNL     1       0.936  10.169  18.910  0.00  0.00    +0.000 A 
ATOM     11  C   UNL     1      -0.047  10.825  19.663  0.00  0.00    +0.000 A 
ENDROOT
BRANCH   4  12
ATOM     12  C   UNL     1      -2.963  12.444  22.305  0.00  0.00    +0.000 A 
ATOM     13  C   UNL     1      -4.071  13.064  21.694  0.00  0.00    +0.000 A 
ATOM     14  C   UNL     1      -5.210  13.385  22.430  0.00  0.00    +0.000 A 
ATOM     15  C   UNL     1      -5.247  13.089  23.785  0.00  0.00    +0.000 A 
ATOM     16  C   UNL     1      -4.169  12.472  24.411  0.00  0.00    +0.000 A 
ATOM     17  C   UNL     1      -3.027  12.150  23.673  0.00  0.00    +0.000 A 
BRANCH  15  18
ATOM     18  O   UNL     1      -6.335  13.399  24.545  0.00  0.00    +0.000 OA
ATOM     19  H   UNL     1      -6.147  14.218  25.033  0.00  0.00    +0.000 HD
ENDBRANCH  15  18
ENDBRANCH   4  12
BRANCH  10  20
ATOM     20  O   UNL     1       1.346  10.672  17.709  0.00  0.00    +0.000 OA
ATOM     21  H   UNL     1       1.977  11.397  17.839  0.00  0.00    +0.000 HD
ENDBRANCH  10  20
BRANCH   8  22
ATOM     22  O   UNL     1       1.768   7.317  21.024  0.00  0.00    +0.000 OA
BRANCH  22  23
ATOM     23  C   UNL     1       2.577   6.693  20.016  0.00  0.00    +0.000 C 
BRANCH  23  24
ATOM     24  C   UNL     1       2.004   5.359  19.606  0.00  0.00    +0.000 A 
ATOM     25  C   UNL     1       1.363   4.563  20.573  0.00  0.00    +0.000 A 
ATOM     26  C   UNL     1       0.814   3.332  20.221  0.00  0.00    +0.000 A 
ATOM     27  C   UNL     1       0.895   2.903  18.903  0.00  0.00    +0.000 A 
ATOM     28  F   UNL     1       0.372   1.716  18.565  0.00  0.00    +0.000 F 
ATOM     29  C   UNL     1       1.504   3.685  17.932  0.00  0.00    +0.000 A 
ATOM     30  C   UNL     1       2.053   4.919  18.278  0.00  0.00    +0.000 A 
ENDBRANCH  23  24
ENDBRANCH  22  23
ENDBRANCH   8  22
TORSDOF 6
ENDMDL
MODEL 3
REMARK VINA RESULT:      -8.4      0.286      1.311
REMARK  Name = 
REMARK  6 active torsions:
REMARK  status: ('A' for Active; 'I' for Inactive)
REMARK    1  A    between atoms: C_4  and  C_5
REMARK    2  A    between atoms: C_8  and  O_9
REMARK    3  A    between atoms: C_15  and  O_16
REMARK    4  A    between atoms: O_16  and  C_17
REMARK    5  A    between atoms: C_17  and  C_18
REMARK    6  A    between atoms: C_26  and  O_27
REMARK                            x       y       z     vdW  Elec       q    Type
REMARK                         _______ _______ _______ _____ _____    ______ ____
ROOT
ATOM      1  O   UNL     1       2.350   1.837  18.851  0.00  0.00    +0.000 OA
ATOM      2  C   UNL     1       2.791   2.931  18.517  0.00  0.00    +0.000 C 
ATOM      3  C   UNL     1       3.672   3.061  17.304  0.00  0.00    +0.000 C 
ATOM      4  C   UNL     1       4.670   4.187  17.504  0.00  0.00    +0.000 C 
ATOM      5  O   UNL     1       4.026   5.423  17.815  0.00  0.00    +0.000 OA
ATOM      6  C   UNL     1       3.093   5.353  18.805  0.00  0.00    +0.000 A 
ATOM      7  C   UNL     1       2.798   6.583  19.386  0.00  0.00    +0.000 A 
ATOM      8  C   UNL     1       1.887   6.666  20.432  0.00  0.00    +0.000 A 
ATOM      9  C   UNL     1       1.198   5.520  20.833  0.00  0.00    +0.000 A 
ATOM     10  C   UNL     1       1.475   4.287  20.228  0.00  0.00    +0.000 A 
ATOM     11  C   UNL     1       2.442   4.193  19.217  0.00  0.00    +0.000 A 
ENDROOT
BRANCH   4  12
ATOM     12  C   UNL     1       5.459   4.414  16.226  0.00  0.00    +0.000 A 
ATOM     13  C   UNL     1       5.020   3.876  15.000  0.00  0.00    +0.000 A 
ATOM     14  C   UNL     1       5.767   4.040  13.835  0.00  0.00    +0.000 A 
ATOM     15  C   UNL     1       6.962   4.744  13.890  0.00  0.00    +0.000 A 
ATOM     16  C   UNL     1       7.415   5.290  15.086  0.00  0.00    +0.000 A 
ATOM     17  C   UNL     1       6.666   5.126  16.254  0.00  0.00    +0.000 A 
BRANCH  15  18
ATOM     18  O   UNL     1       7.732   4.915  12.778  0.00  0.00    +0.000 OA
ATOM     19  H   UNL     1       7.478   4.246  12.122  0.00  0.00    +0.000 HD
ENDBRANCH  15  18
ENDBRANCH   4  12
BRANCH  10  20
ATOM     20  O   UNL     1       0.784   3.184  20.636  0.00  0.00    +0.000 OA
ATOM     21  H   UNL     1       0.229   2.841  19.918  0.00  0.00    +0.000 HD
ENDBRANCH  10  20
BRANCH   8  22
ATOM     22  O   UNL     1       1.618   7.819  21.121  0.00  0.00    +0.000 OA
BRANCH  22  23
ATOM     23  C   UNL     1       1.036   8.860  20.321  0.00  0.00    +0.000 C 
BRANCH  23  24
ATOM     24  C   UNL     1       0.200   9.792  21.162  0.00  0.00    +0.000 A 
ATOM     25  C   UNL     1      -0.275  10.986  20.592  0.00  0.00    +0.000 A 
ATOM     26  C   UNL     1      -1.060  11.861  21.341  0.00  0.00    +0.000 A 
ATOM     27  C   UNL     1      -1.378  11.535  22.652  0.00  0.00    +0.000 A 
ATOM     28  F   UNL     1      -2.129  12.379  23.374  0.00  0.00    +0.000 F 
ATOM     29  C   UNL     1      -0.936  10.351  23.224  0.00  0.00    +0.000 A 
ATOM     30  C   UNL     1      -0.153   9.471  22.478  0.00  0.00    +0.000 A 
ENDBRANCH  23  24
ENDBRANCH  22  23
ENDBRANCH   8  22
TORSDOF 6
ENDMDL
MODEL 4
REMARK VINA RESULT:      -8.3      1.099      1.454
REMARK  Name = 
REMARK  6 active torsions:
REMARK  status: ('A' for Active; 'I' for Inactive)
REMARK    1  A    between atoms: C_4  and  C_5
REMARK    2  A    between atoms: C_8  and  O_9
REMARK    3  A    between atoms: C_15  and  O_16
REMARK    4  A    between atoms: O_16  and  C_17
REMARK    5  A    between atoms: C_17  and  C_18
REMARK    6  A    between atoms: C_26  and  O_27
REMARK                            x       y       z     vdW  Elec       q    Type
REMARK                         _______ _______ _______ _____ _____    ______ ____
ROOT
ATOM      1  O   UNL     1       3.982   2.336  19.596  0.00  0.00    +0.000 OA
ATOM      2  C   UNL     1       4.004   3.315  18.858  0.00  0.00    +0.000 C 
ATOM      3  C   UNL     1       4.659   3.236  17.505  0.00  0.00    +0.000 C 
ATOM      4  C   UNL     1       5.251   4.584  17.134  0.00  0.00    +0.000 C 
ATOM      5  O   UNL     1       4.277   5.626  17.180  0.00  0.00    +0.000 OA
ATOM      6  C   UNL     1       3.529   5.666  18.319  0.00  0.00    +0.000 A 
ATOM      7  C   UNL     1       2.914   6.893  18.544  0.00  0.00    +0.000 A 
ATOM      8  C   UNL     1       2.143   7.096  19.683  0.00  0.00    +0.000 A 
ATOM      9  C   UNL     1       1.912   6.028  20.551  0.00  0.00    +0.000 A 
ATOM     10  C   UNL     1       2.510   4.784  20.309  0.00  0.00    +0.000 A 
ATOM     11  C   UNL     1       3.340   4.599  19.195  0.00  0.00    +0.000 A 
ENDROOT
BRANCH   4  12
ATOM     12  C   UNL     1       5.781   4.544  15.711  0.00  0.00    +0.000 A 
ATOM     13  C   UNL     1       5.086   3.851  14.700  0.00  0.00    +0.000 A 
ATOM     14  C   UNL     1       5.595   3.770  13.405  0.00  0.00    +0.000 A 
ATOM     15  C   UNL     1       6.807   4.381  13.113  0.00  0.00    +0.000 A 
ATOM     16  C   UNL     1       7.510   5.076  14.092  0.00  0.00    +0.000 A 
ATOM     17  C   UNL     1       7.000   5.157  15.390  0.00  0.00    +0.000 A 
BRANCH  15  18
ATOM     18  O   UNL     1       7.348   4.314  11.865  0.00  0.00    +0.000 OA
ATOM     19  H   UNL     1       7.624   5.207  11.601  0.00  0.00    +0.000 HD
ENDBRANCH  15  18
ENDBRANCH   4  12
BRANCH  10  20
ATOM     20  O   UNL     1       2.263   3.756  21.173  0.00  0.00    +0.000 OA
ATOM     21  H   UNL     1       2.879   3.023  21.018  0.00  0.00    +0.000 HD
ENDBRANCH  10  20
BRANCH   8  22
ATOM     22  O   UNL     1       1.588   8.300  20.026  0.00  0.00    +0.000 OA
BRANCH  22  23
ATOM     23  C   UNL     1       1.116   8.366  21.380  0.00  0.00    +0.000 C 
BRANCH  23  24
ATOM     24  C   UNL     1       0.204   9.550  21.583  0.00  0.00    +0.000 A 
ATOM     25  C   UNL     1      -0.318   9.799  22.864  0.00  0.00    +0.000 A 
ATOM     26  C   UNL     1      -1.154  10.893  23.084  0.00  0.00    +0.000 A 
ATOM     27  C   UNL     1      -1.455  11.741  22.028  0.00  0.00    +0.000 A 
ATOM     28  F   UNL     1      -2.262  12.791  22.239  0.00  0.00    +0.000 F 
ATOM     29  C   UNL     1      -0.930  11.524  20.762  0.00  0.00    +0.000 A 
ATOM     30  C   UNL     1      -0.092  10.433  20.537  0.00  0.00    +0.000 A 
ENDBRANCH  23  24
ENDBRANCH  22  23
ENDBRANCH   8  22
TORSDOF 6
ENDMDL
MODEL 5
REMARK VINA RESULT:      -8.3      2.483      3.054
REMARK  Name = 
REMARK  6 active torsions:
REMARK  status: ('A' for Active; 'I' for Inactive)
REMARK    1  A    between atoms: C_4  and  C_5
REMARK    2  A    between atoms: C_8  and  O_9
REMARK    3  A    between atoms: C_15  and  O_16
REMARK    4  A    between atoms: O_16  and  C_17
REMARK    5  A    between atoms: C_17  and  C_18
REMARK    6  A    between atoms: C_26  and  O_27
REMARK                            x       y       z     vdW  Elec       q    Type
REMARK                         _______ _______ _______ _____ _____    ______ ____
ROOT
ATOM      1  O   UNL     1       3.841   3.668  19.803  0.00  0.00    +0.000 OA
ATOM      2  C   UNL     1       3.891   4.463  18.870  0.00  0.00    +0.000 C 
ATOM      3  C   UNL     1       4.537   4.071  17.569  0.00  0.00    +0.000 C 
ATOM      4  C   UNL     1       5.171   5.287  16.916  0.00  0.00    +0.000 C 
ATOM      5  O   UNL     1       4.230   6.345  16.732  0.00  0.00    +0.000 OA
ATOM      6  C   UNL     1       3.488   6.654  17.833  0.00  0.00    +0.000 A 
ATOM      7  C   UNL     1       2.913   7.920  17.785  0.00  0.00    +0.000 A 
ATOM      8  C   UNL     1       2.154   8.389  18.851  0.00  0.00    +0.000 A 
ATOM      9  C   UNL     1       1.893   7.543  19.930  0.00  0.00    +0.000 A 
ATOM     10  C   UNL     1       2.450   6.258  19.964  0.00  0.00    +0.000 A 
ATOM     11  C   UNL     1       3.269   5.810  18.919  0.00  0.00    +0.000 A 
ENDROOT
BRANCH   4  12
ATOM     12  C   UNL     1       5.693   4.922  15.537  0.00  0.00    +0.000 A 
ATOM     13  C   UNL     1       4.912   4.159  14.647  0.00  0.00    +0.000 A 
ATOM     14  C   UNL     1       5.408   3.780  13.400  0.00  0.00    +0.000 A 
ATOM     15  C   UNL     1       6.692   4.161  13.037  0.00  0.00    +0.000 A 
ATOM     16  C   UNL     1       7.480   4.920  13.896  0.00  0.00    +0.000 A 
ATOM     17  C   UNL     1       6.984   5.300  15.144  0.00  0.00    +0.000 A 
BRANCH  15  18
ATOM     18  O   UNL     1       7.221   3.800  11.835  0.00  0.00    +0.000 OA
ATOM     19  H   UNL     1       7.456   4.607  11.347  0.00  0.00    +0.000 HD
ENDBRANCH  15  18
ENDBRANCH   4  12
BRANCH  10  20
ATOM     20  O   UNL     1       2.175   5.450  21.030  0.00  0.00    +0.000 OA
ATOM     21  H   UNL     1       2.271   5.937  21.863  0.00  0.00    +0.000 HD
ENDBRANCH  10  20
BRANCH   8  22
ATOM     22  O   UNL     1       1.639   9.656  18.923  0.00  0.00    +0.000 OA
BRANCH  22  23
ATOM     23  C   UNL     1       0.478   9.772  19.759  0.00  0.00    +0.000 C 
BRANCH  23  24
ATOM     24  C   UNL     1      -0.704  10.297  18.983  0.00  0.00    +0.000 A 
ATOM     25  C   UNL     1      -1.494  11.315  19.545  0.00  0.00    +0.000 A 
ATOM     26  C   UNL     1      -2.585  11.827  18.846  0.00  0.00    +0.000 A 
ATOM     27  C   UNL     1      -2.877  11.332  17.582  0.00  0.00    +0.000 A 
ATOM     28  F   UNL     1      -3.929  11.821  16.912  0.00  0.00    +0.000 F 
ATOM     29  C   UNL     1      -2.094  10.343  17.003  0.00  0.00    +0.000 A 
ATOM     30  C   UNL     1      -1.000   9.828  17.697  0.00  0.00    +0.000 A 
ENDBRANCH  23  24
ENDBRANCH  22  23
ENDBRANCH   8  22
TORSDOF 6
ENDMDL
MODEL 6
REMARK VINA RESULT:      -8.3      2.194      2.683
REMARK  Name = 
REMARK  6 active torsions:
REMARK  status: ('A' for Active; 'I' for Inactive)
REMARK    1  A    between atoms: C_4  and  C_5
REMARK    2  A    between atoms: C_8  and  O_9
REMARK    3  A    between atoms: C_15  and  O_16
REMARK    4  A    between atoms: O_16  and  C_17
REMARK    5  A    between atoms: C_17  and  C_18
REMARK    6  A    between atoms: C_26  and  O_27
REMARK                            x       y       z     vdW  Elec       q    Type
REMARK                         _______ _______ _______ _____ _____    ______ ____
ROOT
ATOM      1  O   UNL     1       3.903   2.980  19.809  0.00  0.00    +0.000 OA
ATOM      2  C   UNL     1       3.921   3.873  18.968  0.00  0.00    +0.000 C 
ATOM      3  C   UNL     1       4.580   3.650  17.634  0.00  0.00    +0.000 C 
ATOM      4  C   UNL     1       5.165   4.953  17.118  0.00  0.00    +0.000 C 
ATOM      5  O   UNL     1       4.184   5.988  17.048  0.00  0.00    +0.000 OA
ATOM      6  C   UNL     1       3.433   6.147  18.174  0.00  0.00    +0.000 A 
ATOM      7  C   UNL     1       2.809   7.388  18.262  0.00  0.00    +0.000 A 
ATOM      8  C   UNL     1       2.034   7.709  19.371  0.00  0.00    +0.000 A 
ATOM      9  C   UNL     1       1.807   6.740  20.351  0.00  0.00    +0.000 A 
ATOM     10  C   UNL     1       2.414   5.481  20.247  0.00  0.00    +0.000 A 
ATOM     11  C   UNL     1       3.248   5.181  19.162  0.00  0.00    +0.000 A 
ENDROOT
BRANCH   4  12
ATOM     12  C   UNL     1       5.699   4.761  15.709  0.00  0.00    +0.000 A 
ATOM     13  C   UNL     1       4.947   4.068  14.739  0.00  0.00    +0.000 A 
ATOM     14  C   UNL     1       5.455   3.846  13.460  0.00  0.00    +0.000 A 
ATOM     15  C   UNL     1       6.723   4.315  13.144  0.00  0.00    +0.000 A 
ATOM     16  C   UNL     1       7.482   5.007  14.082  0.00  0.00    +0.000 A 
ATOM     17  C   UNL     1       6.973   5.230  15.363  0.00  0.00    +0.000 A 
BRANCH  15  18
ATOM     18  O   UNL     1       7.264   4.108  11.911  0.00  0.00    +0.000 OA
ATOM     19  H   UNL     1       8.206   4.342  11.945  0.00  0.00    +0.000 HD
ENDBRANCH  15  18
ENDBRANCH   4  12
BRANCH  10  20
ATOM     20  O   UNL     1       2.172   4.553  21.217  0.00  0.00    +0.000 OA
ATOM     21  H   UNL     1       1.338   4.088  21.047  0.00  0.00    +0.000 HD
ENDBRANCH  10  20
BRANCH   8  22
ATOM     22  O   UNL     1       1.471   8.939  19.579  0.00  0.00    +0.000 OA
BRANCH  22  23
ATOM     23  C   UNL     1       1.227   9.685  18.376  0.00  0.00    +0.000 C 
BRANCH  23  24
ATOM     24  C   UNL     1      -0.150  10.301  18.387  0.00  0.00    +0.000 A 
ATOM     25  C   UNL     1      -1.139   9.779  17.533  0.00  0.00    +0.000 A 
ATOM     26  C   UNL     1      -2.423  10.320  17.530  0.00  0.00    +0.000 A 
ATOM     27  C   UNL     1      -2.721  11.370  18.387  0.00  0.00    +0.000 A 
ATOM     28  F   UNL     1      -3.955  11.894  18.380  0.00  0.00    +0.000 F 
ATOM     29  C   UNL     1      -1.764  11.883  19.251  0.00  0.00    +0.000 A 
ATOM     30  C   UNL     1      -0.479  11.344  19.261  0.00  0.00    +0.000 A 
ENDBRANCH  23  24
ENDBRANCH  22  23
ENDBRANCH   8  22
TORSDOF 6
ENDMDL
MODEL 7
REMARK VINA RESULT:      -8.3      0.935      1.308
REMARK  Name = 
REMARK  6 active torsions:
REMARK  status: ('A' for Active; 'I' for Inactive)
REMARK    1  A    between atoms: C_4  and  C_5
REMARK    2  A    between atoms: C_8  and  O_9
REMARK    3  A    between atoms: C_15  and  O_16
REMARK    4  A    between atoms: O_16  and  C_17
REMARK    5  A    between atoms: C_17  and  C_18
REMARK    6  A    between atoms: C_26  and  O_27
REMARK                            x       y       z     vdW  Elec       q    Type
REMARK                         _______ _______ _______ _____ _____    ______ ____
ROOT
ATOM      1  O   UNL     1       3.604   2.136  19.438  0.00  0.00    +0.000 OA
ATOM      2  C   UNL     1       3.748   3.152  18.765  0.00  0.00    +0.000 C 
ATOM      3  C   UNL     1       4.474   3.097  17.448  0.00  0.00    +0.000 C 
ATOM      4  C   UNL     1       5.193   4.410  17.195  0.00  0.00    +0.000 C 
ATOM      5  O   UNL     1       4.303   5.525  17.254  0.00  0.00    +0.000 OA
ATOM      6  C   UNL     1       3.495   5.561  18.350  0.00  0.00    +0.000 A 
ATOM      7  C   UNL     1       2.967   6.820  18.618  0.00  0.00    +0.000 A 
ATOM      8  C   UNL     1       2.148   7.019  19.723  0.00  0.00    +0.000 A 
ATOM      9  C   UNL     1       1.781   5.925  20.509  0.00  0.00    +0.000 A 
ATOM     10  C   UNL     1       2.292   4.652  20.222  0.00  0.00    +0.000 A 
ATOM     11  C   UNL     1       3.169   4.464  19.146  0.00  0.00    +0.000 A 
ENDROOT
BRANCH   4  12
ATOM     12  C   UNL     1       5.801   4.409  15.803  0.00  0.00    +0.000 A 
ATOM     13  C   UNL     1       7.001   5.098  15.538  0.00  0.00    +0.000 A 
ATOM     14  C   UNL     1       7.535   5.140  14.251  0.00  0.00    +0.000 A 
ATOM     15  C   UNL     1       6.869   4.493  13.219  0.00  0.00    +0.000 A 
ATOM     16  C   UNL     1       5.687   3.801  13.456  0.00  0.00    +0.000 A 
ATOM     17  C   UNL     1       5.151   3.758  14.746  0.00  0.00    +0.000 A 
BRANCH  15  18
ATOM     18  O   UNL     1       7.348   4.521  11.944  0.00  0.00    +0.000 OA
ATOM     19  H   UNL     1       8.205   4.064  11.926  0.00  0.00    +0.000 HD
ENDBRANCH  15  18
ENDBRANCH   4  12
BRANCH  10  20
ATOM     20  O   UNL     1       1.914   3.600  21.005  0.00  0.00    +0.000 OA
ATOM     21  H   UNL     1       2.547   3.464  21.727  0.00  0.00    +0.000 HD
ENDBRANCH  10  20
BRANCH   8  22
ATOM     22  O   UNL     1       1.672   8.243  20.110  0.00  0.00    +0.000 OA
BRANCH  22  23
ATOM     23  C   UNL     1       1.358   8.337  21.508  0.00  0.00    +0.000 C 
BRANCH  23  24
ATOM     24  C   UNL     1       0.478   9.529  21.791  0.00  0.00    +0.000 A 
ATOM     25  C   UNL     1       0.402  10.563  20.841  0.00  0.00    +0.000 A 
ATOM     26  C   UNL     1      -0.413  11.671  21.070  0.00  0.00    +0.000 A 
ATOM     27  C   UNL     1      -1.157  11.738  22.239  0.00  0.00    +0.000 A 
ATOM     28  F   UNL     1      -1.937  12.806  22.461  0.00  0.00    +0.000 F 
ATOM     29  C   UNL     1      -1.111  10.716  23.177  0.00  0.00    +0.000 A 
ATOM     30  C   UNL     1      -0.301   9.605  22.952  0.00  0.00    +0.000 A 
ENDBRANCH  23  24
ENDBRANCH  22  23
ENDBRANCH   8  22
TORSDOF 6
ENDMDL
MODEL 8
REMARK VINA RESULT:      -8.2      3.141      5.151
REMARK  Name = 
REMARK  6 active torsions:
REMARK  status: ('A' for Active; 'I' for Inactive)
REMARK    1  A    between atoms: C_4  and  C_5
REMARK    2  A    between atoms: C_8  and  O_9
REMARK    3  A    between atoms: C_15  and  O_16
REMARK    4  A    between atoms: O_16  and  C_17
REMARK    5  A    between atoms: C_17  and  C_18
REMARK    6  A    between atoms: C_26  and  O_27
REMARK                            x       y       z     vdW  Elec       q    Type
REMARK                         _______ _______ _______ _____ _____    ______ ____
ROOT
ATOM      1  O   UNL     1       1.968   9.212  17.095  0.00  0.00    +0.000 OA
ATOM      2  C   UNL     1       2.036   8.628  18.171  0.00  0.00    +0.000 C 
ATOM      3  C   UNL     1       2.751   7.308  18.278  0.00  0.00    +0.000 C 
ATOM      4  C   UNL     1       2.099   6.448  19.346  0.00  0.00    +0.000 C 
ATOM      5  O   UNL     1       2.042   7.114  20.608  0.00  0.00    +0.000 OA
ATOM      6  C   UNL     1       1.548   8.384  20.568  0.00  0.00    +0.000 A 
ATOM      7  C   UNL     1       1.099   8.850  21.799  0.00  0.00    +0.000 A 
ATOM      8  C   UNL     1       0.539  10.118  21.910  0.00  0.00    +0.000 A 
ATOM      9  C   UNL     1       0.518  10.956  20.794  0.00  0.00    +0.000 A 
ATOM     10  C   UNL     1       0.996  10.495  19.560  0.00  0.00    +0.000 A 
ATOM     11  C   UNL     1       1.501   9.193  19.435  0.00  0.00    +0.000 A 
ENDROOT
BRANCH   4  12
ATOM     12  C   UNL     1       2.908   5.180  19.557  0.00  0.00    +0.000 A 
ATOM     13  C   UNL     1       4.175   5.024  18.962  0.00  0.00    +0.000 A 
ATOM     14  C   UNL     1       4.899   3.841  19.112  0.00  0.00    +0.000 A 
ATOM     15  C   UNL     1       4.355   2.805  19.859  0.00  0.00    +0.000 A 
ATOM     16  C   UNL     1       3.109   2.937  20.461  0.00  0.00    +0.000 A 
ATOM     17  C   UNL     1       2.384   4.121  20.311  0.00  0.00    +0.000 A 
BRANCH  15  18
ATOM     18  O   UNL     1       5.021   1.627  20.019  0.00  0.00    +0.000 OA
ATOM     19  H   UNL     1       4.992   1.382  20.959  0.00  0.00    +0.000 HD
ENDBRANCH  15  18
ENDBRANCH   4  12
BRANCH  10  20
ATOM     20  O   UNL     1       0.967  11.337  18.487  0.00  0.00    +0.000 OA
ATOM     21  H   UNL     1       0.671  12.222  18.753  0.00  0.00    +0.000 HD
ENDBRANCH  10  20
BRANCH   8  22
ATOM     22  O   UNL     1      -0.015  10.610  23.061  0.00  0.00    +0.000 OA
BRANCH  22  23
ATOM     23  C   UNL     1      -1.449  10.677  23.041  0.00  0.00    +0.000 C 
BRANCH  23  24
ATOM     24  C   UNL     1      -1.933  12.086  23.282  0.00  0.00    +0.000 A 
ATOM     25  C   UNL     1      -3.261  12.292  23.695  0.00  0.00    +0.000 A 
ATOM     26  C   UNL     1      -3.732  13.581  23.937  0.00  0.00    +0.000 A 
ATOM     27  C   UNL     1      -2.873  14.659  23.779  0.00  0.00    +0.000 A 
ATOM     28  F   UNL     1      -3.327  15.900  24.007  0.00  0.00    +0.000 F 
ATOM     29  C   UNL     1      -1.552  14.473  23.394  0.00  0.00    +0.000 A 
ATOM     30  C   UNL     1      -1.075  13.185  23.153  0.00  0.00    +0.000 A 
ENDBRANCH  23  24
ENDBRANCH  22  23
ENDBRANCH   8  22
TORSDOF 6
ENDMDL
MODEL 9
REMARK VINA RESULT:      -8.2      4.338     10.703
REMARK  Name = 
REMARK  6 active torsions:
REMARK  status: ('A' for Active; 'I' for Inactive)
REMARK    1  A    between atoms: C_4  and  C_5
REMARK    2  A    between atoms: C_8  and  O_9
REMARK    3  A    between atoms: C_15  and  O_16
REMARK    4  A    between atoms: O_16  and  C_17
REMARK    5  A    between atoms: C_17  and  C_18
REMARK    6  A    between atoms: C_26  and  O_27
REMARK                            x       y       z     vdW  Elec       q    Type
REMARK                         _______ _______ _______ _____ _____    ______ ____
ROOT
ATOM      1  O   UNL     1       0.140  13.234  18.410  0.00  0.00    +0.000 OA
ATOM      2  C   UNL     1      -0.304  12.581  19.349  0.00  0.00    +0.000 C 
ATOM      3  C   UNL     1      -1.463  13.099  20.157  0.00  0.00    +0.000 C 
ATOM      4  C   UNL     1      -1.347  12.626  21.596  0.00  0.00    +0.000 C 
ATOM      5  O   UNL     1      -1.245  11.204  21.683  0.00  0.00    +0.000 OA
ATOM      6  C   UNL     1      -0.318  10.641  20.858  0.00  0.00    +0.000 A 
ATOM      7  C   UNL     1       0.075   9.364  21.245  0.00  0.00    +0.000 A 
ATOM      8  C   UNL     1       1.039   8.674  20.518  0.00  0.00    +0.000 A 
ATOM      9  C   UNL     1       1.539   9.233  19.341  0.00  0.00    +0.000 A 
ATOM     10  C   UNL     1       1.122  10.509  18.938  0.00  0.00    +0.000 A 
ATOM     11  C   UNL     1       0.199  11.231  19.706  0.00  0.00    +0.000 A 
ENDROOT
BRANCH   4  12
ATOM     12  C   UNL     1      -2.589  13.024  22.374  0.00  0.00    +0.000 A 
ATOM     13  C   UNL     1      -3.003  12.286  23.501  0.00  0.00    +0.000 A 
ATOM     14  C   UNL     1      -4.170  12.619  24.188  0.00  0.00    +0.000 A 
ATOM     15  C   UNL     1      -4.931  13.693  23.749  0.00  0.00    +0.000 A 
ATOM     16  C   UNL     1      -4.541  14.441  22.643  0.00  0.00    +0.000 A 
ATOM     17  C   UNL     1      -3.372  14.108  21.955  0.00  0.00    +0.000 A 
BRANCH  15  18
ATOM     18  O   UNL     1      -6.086  14.044  24.381  0.00  0.00    +0.000 OA
ATOM     19  H   UNL     1      -5.864  14.369  25.269  0.00  0.00    +0.000 HD
ENDBRANCH  15  18
ENDBRANCH   4  12
BRANCH  10  20
ATOM     20  O   UNL     1       1.625  11.030  17.781  0.00  0.00    +0.000 OA
ATOM     21  H   UNL     1       1.091  10.755  17.020  0.00  0.00    +0.000 HD
ENDBRANCH  10  20
BRANCH   8  22
ATOM     22  O   UNL     1       1.550   7.458  20.888  0.00  0.00    +0.000 OA
BRANCH  22  23
ATOM     23  C   UNL     1       2.392   6.849  19.899  0.00  0.00    +0.000 C 
BRANCH  23  24
ATOM     24  C   UNL     1       1.912   5.461  19.553  0.00  0.00    +0.000 A 
ATOM     25  C   UNL     1       2.070   4.991  18.238  0.00  0.00    +0.000 A 
ATOM     26  C   UNL     1       1.646   3.708  17.893  0.00  0.00    +0.000 A 
ATOM     27  C   UNL     1       1.079   2.895  18.864  0.00  0.00    +0.000 A 
ATOM     28  F   UNL     1       0.667   1.664  18.530  0.00  0.00    +0.000 F 
ATOM     29  C   UNL     1       0.936   3.335  20.172  0.00  0.00    +0.000 A 
ATOM     30  C   UNL     1       1.359   4.616  20.523  0.00  0.00    +0.000 A 
ENDBRANCH  23  24
ENDBRANCH  22  23
ENDBRANCH   8  22
TORSDOF 6
ENDMDL
