MODEL 1
REMARK VINA RESULT:      -7.7      0.000      0.000
REMARK  Name = 
REMARK  13 active torsions:
REMARK  status: ('A' for Active; 'I' for Inactive)
REMARK    1  A    between atoms: C_1  and  C_2
REMARK    2  A    between atoms: C_2  and  C_3
REMARK    3  A    between atoms: C_3  and  C_4
REMARK    4  A    between atoms: C_4  and  C_5
REMARK    5  A    between atoms: C_5  and  C_6
REMARK    6  A    between atoms: C_6  and  C_7
REMARK    7  A    between atoms: C_10  and  C_11
REMARK    8  A    between atoms: C_12  and  C_13
REMARK    9  A    between atoms: C_12  and  C_19
REMARK   10  A    between atoms: C_13  and  C_14
REMARK   11  A    between atoms: C_19  and  O_21
REMARK   12  A    between atoms: N_22  and  C_23
REMARK   13  A    between atoms: C_23  and  C_24
REMARK                            x       y       z     vdW  Elec       q    Type
REMARK                         _______ _______ _______ _____ _____    ______ ____
ROOT
ATOM      1  C   UNL     1       3.916   7.137  17.551  0.00  0.00    +0.000 A 
ATOM      2  N   UNL     1       3.110   7.960  16.905  0.00  0.00    +0.000 NA
ATOM      3  C   UNL     1       2.129   8.302  17.786  0.00  0.00    +0.000 A 
ATOM      4  C   UNL     1       2.349   7.722  19.017  0.00  0.00    +0.000 A 
ATOM      5  N   UNL     1       3.393   6.837  18.804  0.00  0.00    +0.000 N 
ENDROOT
BRANCH   4   6
ATOM      6  C   UNL     1       1.653   7.851  20.243  0.00  0.00    +0.000 C 
ATOM      7  C   UNL     1       1.018   8.984  20.613  0.00  0.00    +0.000 C 
BRANCH   7   8
ATOM      8  C   UNL     1       0.239   8.848  21.882  0.00  0.00    +0.000 C 
ATOM      9  O   UNL     1      -0.767   8.157  21.979  0.00  0.00    +0.000 OA
BRANCH   8  10
ATOM     10  O   UNL     1       0.727   9.503  22.952  0.00  0.00    +0.000 OA
ATOM     11  H   UNL     1       1.669   9.750  22.934  0.00  0.00    +0.000 HD
ENDBRANCH   8  10
ENDBRANCH   7   8
BRANCH   7  12
ATOM     12  C   UNL     1       1.026  10.299  19.861  0.00  0.00    +0.000 C 
BRANCH  12  13
ATOM     13  C   UNL     1      -0.334  10.861  19.526  0.00  0.00    +0.000 A 
ATOM     14  C   UNL     1      -1.052  11.828  20.204  0.00  0.00    +0.000 A 
ATOM     15  C   UNL     1      -2.254  12.185  19.526  0.00  0.00    +0.000 A 
ATOM     16  C   UNL     1      -2.437  11.451  18.375  0.00  0.00    +0.000 A 
ATOM     17  S   UNL     1      -1.186  10.311  18.140  0.00  0.00    +0.000 S 
ENDBRANCH  12  13
ENDBRANCH   7  12
ENDBRANCH   4   6
BRANCH   1  18
ATOM     18  C   UNL     1       5.242   6.704  17.003  0.00  0.00    +0.000 C 
BRANCH  18  19
ATOM     19  C   UNL     1       5.272   6.355  15.519  0.00  0.00    +0.000 C 
BRANCH  19  20
ATOM     20  C   UNL     1       6.250   5.231  15.170  0.00  0.00    +0.000 C 
BRANCH  20  21
ATOM     21  C   UNL     1       5.585   4.167  14.289  0.00  0.00    +0.000 C 
BRANCH  21  23
ATOM     22  C   UNL     1       5.642   3.131  11.989  0.00  0.00    +0.000 C 
ATOM     23  C   UNL     1       6.421   3.906  13.037  0.00  0.00    +0.000 C 
ENDBRANCH  21  23
ENDBRANCH  20  21
ENDBRANCH  19  20
ENDBRANCH  18  19
ENDBRANCH   1  18
BRANCH   5  24
ATOM     24  C   UNL     1       3.721   5.668  19.621  0.00  0.00    +0.000 C 
BRANCH  24  25
ATOM     25  C   UNL     1       2.687   4.572  19.537  0.00  0.00    +0.000 A 
ATOM     26  C   UNL     1       1.791   4.398  20.606  0.00  0.00    +0.000 A 
ATOM     27  C   UNL     1       0.772   3.448  20.553  0.00  0.00    +0.000 A 
ATOM     28  C   UNL     1       0.638   2.637  19.433  0.00  0.00    +0.000 A 
ATOM     29  C   UNL     1       1.549   2.755  18.383  0.00  0.00    +0.000 A 
ATOM     30  C   UNL     1       2.579   3.700  18.443  0.00  0.00    +0.000 A 
ATOM     31 CL   UNL     1       3.706   3.706  17.134  0.00  0.00    +0.000 Cl
ENDBRANCH  24  25
ENDBRANCH   5  24
TORSDOF 12
ENDMDL
MODEL 2
REMARK VINA RESULT:      -7.6      0.932      1.336
REMARK  Name = 
REMARK  13 active torsions:
REMARK  status: ('A' for Active; 'I' for Inactive)
REMARK    1  A    between atoms: C_1  and  C_2
REMARK    2  A    between atoms: C_2  and  C_3
REMARK    3  A    between atoms: C_3  and  C_4
REMARK    4  A    between atoms: C_4  and  C_5
REMARK    5  A    between atoms: C_5  and  C_6
REMARK    6  A    between atoms: C_6  and  C_7
REMARK    7  A    between atoms: C_10  and  C_11
REMARK    8  A    between atoms: C_12  and  C_13
REMARK    9  A    between atoms: C_12  and  C_19
REMARK   10  A    between atoms: C_13  and  C_14
REMARK   11  A    between atoms: C_19  and  O_21
REMARK   12  A    between atoms: N_22  and  C_23
REMARK   13  A    between atoms: C_23  and  C_24
REMARK                            x       y       z     vdW  Elec       q    Type
REMARK                         _______ _______ _______ _____ _____    ______ ____
ROOT
ATOM      1  C   UNL     1       3.591   7.150  17.590  0.00  0.00    +0.000 A 
ATOM      2  N   UNL     1       2.780   8.006  16.997  0.00  0.00    +0.000 NA
ATOM      3  C   UNL     1       1.882   8.397  17.943  0.00  0.00    +0.000 A 
ATOM      4  C   UNL     1       2.163   7.814  19.160  0.00  0.00    +0.000 A 
ATOM      5  N   UNL     1       3.148   6.882  18.880  0.00  0.00    +0.000 N 
ENDROOT
BRANCH   4   6
ATOM      6  C   UNL     1       1.564   7.982  20.432  0.00  0.00    +0.000 C 
ATOM      7  C   UNL     1       0.991   9.139  20.828  0.00  0.00    +0.000 C 
BRANCH   7   8
ATOM      8  C   UNL     1       0.305   9.045  22.154  0.00  0.00    +0.000 C 
ATOM      9  O   UNL     1      -0.715   8.392  22.335  0.00  0.00    +0.000 OA
BRANCH   8  10
ATOM     10  O   UNL     1       0.896   9.693  23.176  0.00  0.00    +0.000 OA
ATOM     11  H   UNL     1       1.505   9.182  23.737  0.00  0.00    +0.000 HD
ENDBRANCH   8  10
ENDBRANCH   7   8
BRANCH   7  12
ATOM     12  C   UNL     1       0.980  10.441  20.056  0.00  0.00    +0.000 C 
BRANCH  12  13
ATOM     13  C   UNL     1      -0.369  10.874  19.534  0.00  0.00    +0.000 A 
ATOM     14  C   UNL     1      -1.100  10.328  18.497  0.00  0.00    +0.000 A 
ATOM     15  C   UNL     1      -2.384  10.932  18.362  0.00  0.00    +0.000 A 
ATOM     16  C   UNL     1      -2.576  11.947  19.273  0.00  0.00    +0.000 A 
ATOM     17  S   UNL     1      -1.199  12.193  20.253  0.00  0.00    +0.000 S 
ENDBRANCH  12  13
ENDBRANCH   7  12
ENDBRANCH   4   6
BRANCH   1  18
ATOM     18  C   UNL     1       4.853   6.654  16.952  0.00  0.00    +0.000 C 
BRANCH  18  19
ATOM     19  C   UNL     1       6.152   7.252  17.482  0.00  0.00    +0.000 C 
BRANCH  19  20
ATOM     20  C   UNL     1       7.391   6.411  17.169  0.00  0.00    +0.000 C 
BRANCH  20  21
ATOM     21  C   UNL     1       7.004   5.011  16.675  0.00  0.00    +0.000 C 
BRANCH  21  23
ATOM     22  C   UNL     1       6.213   4.003  14.501  0.00  0.00    +0.000 C 
ATOM     23  C   UNL     1       7.254   4.883  15.173  0.00  0.00    +0.000 C 
ENDBRANCH  21  23
ENDBRANCH  20  21
ENDBRANCH  19  20
ENDBRANCH  18  19
ENDBRANCH   1  18
BRANCH   5  24
ATOM     24  C   UNL     1       3.481   5.703  19.682  0.00  0.00    +0.000 C 
BRANCH  24  25
ATOM     25  C   UNL     1       2.529   4.551  19.473  0.00  0.00    +0.000 A 
ATOM     26  C   UNL     1       1.431   4.409  20.339  0.00  0.00    +0.000 A 
ATOM     27  C   UNL     1       0.481   3.405  20.151  0.00  0.00    +0.000 A 
ATOM     28  C   UNL     1       0.620   2.509  19.100  0.00  0.00    +0.000 A 
ATOM     29  C   UNL     1       1.730   2.596  18.259  0.00  0.00    +0.000 A 
ATOM     30  C   UNL     1       2.689   3.596  18.457  0.00  0.00    +0.000 A 
ATOM     31 CL   UNL     1       4.069   3.566  17.418  0.00  0.00    +0.000 Cl
ENDBRANCH  24  25
ENDBRANCH   5  24
TORSDOF 12
ENDMDL
MODEL 3
REMARK VINA RESULT:      -7.6      0.947      1.149
REMARK  Name = 
REMARK  13 active torsions:
REMARK  status: ('A' for Active; 'I' for Inactive)
REMARK    1  A    between atoms: C_1  and  C_2
REMARK    2  A    between atoms: C_2  and  C_3
REMARK    3  A    between atoms: C_3  and  C_4
REMARK    4  A    between atoms: C_4  and  C_5
REMARK    5  A    between atoms: C_5  and  C_6
REMARK    6  A    between atoms: C_6  and  C_7
REMARK    7  A    between atoms: C_10  and  C_11
REMARK    8  A    between atoms: C_12  and  C_13
REMARK    9  A    between atoms: C_12  and  C_19
REMARK   10  A    between atoms: C_13  and  C_14
REMARK   11  A    between atoms: C_19  and  O_21
REMARK   12  A    between atoms: N_22  and  C_23
REMARK   13  A    between atoms: C_23  and  C_24
REMARK                            x       y       z     vdW  Elec       q    Type
REMARK                         _______ _______ _______ _____ _____    ______ ____
ROOT
ATOM      1  C   UNL     1       3.477   6.931  18.187  0.00  0.00    +0.000 A 
ATOM      2  N   UNL     1       2.748   7.805  17.517  0.00  0.00    +0.000 NA
ATOM      3  C   UNL     1       1.832   8.292  18.399  0.00  0.00    +0.000 A 
ATOM      4  C   UNL     1       2.019   7.750  19.653  0.00  0.00    +0.000 A 
ATOM      5  N   UNL     1       2.958   6.750  19.464  0.00  0.00    +0.000 N 
ENDROOT
BRANCH   4   6
ATOM      6  C   UNL     1       1.372   8.012  20.885  0.00  0.00    +0.000 C 
ATOM      7  C   UNL     1       0.840   9.213  21.196  0.00  0.00    +0.000 C 
BRANCH   7   8
ATOM      8  C   UNL     1       0.090   9.220  22.490  0.00  0.00    +0.000 C 
ATOM      9  O   UNL     1       0.371   9.963  23.422  0.00  0.00    +0.000 OA
BRANCH   8  10
ATOM     10  O   UNL     1      -0.960   8.381  22.573  0.00  0.00    +0.000 OA
ATOM     11  H   UNL     1      -0.812   7.521  23.003  0.00  0.00    +0.000 HD
ENDBRANCH   8  10
ENDBRANCH   7   8
BRANCH   7  12
ATOM     12  C   UNL     1       0.928  10.473  20.360  0.00  0.00    +0.000 C 
BRANCH  12  13
ATOM     13  C   UNL     1      -0.395  11.096  19.985  0.00  0.00    +0.000 A 
ATOM     14  C   UNL     1      -1.020  12.187  20.557  0.00  0.00    +0.000 A 
ATOM     15  C   UNL     1      -2.210  12.555  19.863  0.00  0.00    +0.000 A 
ATOM     16  C   UNL     1      -2.477  11.709  18.809  0.00  0.00    +0.000 A 
ATOM     17  S   UNL     1      -1.321  10.457  18.688  0.00  0.00    +0.000 S 
ENDBRANCH  12  13
ENDBRANCH   7  12
ENDBRANCH   4   6
BRANCH   1  18
ATOM     18  C   UNL     1       4.736   6.333  17.635  0.00  0.00    +0.000 C 
BRANCH  18  19
ATOM     19  C   UNL     1       4.554   5.247  16.580  0.00  0.00    +0.000 C 
BRANCH  19  20
ATOM     20  C   UNL     1       5.378   5.476  15.312  0.00  0.00    +0.000 C 
BRANCH  20  21
ATOM     21  C   UNL     1       6.379   4.336  15.083  0.00  0.00    +0.000 C 
BRANCH  21  23
ATOM     22  C   UNL     1       5.814   3.552  12.752  0.00  0.00    +0.000 C 
ATOM     23  C   UNL     1       6.818   4.292  13.621  0.00  0.00    +0.000 C 
ENDBRANCH  21  23
ENDBRANCH  20  21
ENDBRANCH  19  20
ENDBRANCH  18  19
ENDBRANCH   1  18
BRANCH   5  24
ATOM     24  C   UNL     1       3.180   5.593  20.332  0.00  0.00    +0.000 C 
BRANCH  24  25
ATOM     25  C   UNL     1       2.541   4.327  19.814  0.00  0.00    +0.000 A 
ATOM     26  C   UNL     1       1.139   4.226  19.809  0.00  0.00    +0.000 A 
ATOM     27  C   UNL     1       0.492   3.110  19.278  0.00  0.00    +0.000 A 
ATOM     28  C   UNL     1       1.238   2.060  18.757  0.00  0.00    +0.000 A 
ATOM     29  C   UNL     1       2.631   2.114  18.801  0.00  0.00    +0.000 A 
ATOM     30  C   UNL     1       3.279   3.229  19.345  0.00  0.00    +0.000 A 
ATOM     31 CL   UNL     1       5.002   3.161  19.434  0.00  0.00    +0.000 Cl
ENDBRANCH  24  25
ENDBRANCH   5  24
TORSDOF 12
ENDMDL
MODEL 4
REMARK VINA RESULT:      -7.5      1.213      1.593
REMARK  Name = 
REMARK  13 active torsions:
REMARK  status: ('A' for Active; 'I' for Inactive)
REMARK    1  A    between atoms: C_1  and  C_2
REMARK    2  A    between atoms: C_2  and  C_3
REMARK    3  A    between atoms: C_3  and  C_4
REMARK    4  A    between atoms: C_4  and  C_5
REMARK    5  A    between atoms: C_5  and  C_6
REMARK    6  A    between atoms: C_6  and  C_7
REMARK    7  A    between atoms: C_10  and  C_11
REMARK    8  A    between atoms: C_12  and  C_13
REMARK    9  A    between atoms: C_12  and  C_19
REMARK   10  A    between atoms: C_13  and  C_14
REMARK   11  A    between atoms: C_19  and  O_21
REMARK   12  A    between atoms: N_22  and  C_23
REMARK   13  A    between atoms: C_23  and  C_24
REMARK                            x       y       z     vdW  Elec       q    Type
REMARK                         _______ _______ _______ _____ _____    ______ ____
ROOT
ATOM      1  C   UNL     1       3.896   7.085  17.630  0.00  0.00    +0.000 A 
ATOM      2  N   UNL     1       3.117   7.924  16.973  0.00  0.00    +0.000 NA
ATOM      3  C   UNL     1       2.133   8.289  17.841  0.00  0.00    +0.000 A 
ATOM      4  C   UNL     1       2.325   7.707  19.075  0.00  0.00    +0.000 A 
ATOM      5  N   UNL     1       3.353   6.800  18.877  0.00  0.00    +0.000 N 
ENDROOT
BRANCH   4   6
ATOM      6  C   UNL     1       1.618   7.854  20.293  0.00  0.00    +0.000 C 
ATOM      7  C   UNL     1       0.976   8.991  20.639  0.00  0.00    +0.000 C 
BRANCH   7   8
ATOM      8  C   UNL     1       0.186   8.873  21.903  0.00  0.00    +0.000 C 
ATOM      9  O   UNL     1      -0.829   8.195  21.997  0.00  0.00    +0.000 OA
BRANCH   8  10
ATOM     10  O   UNL     1       0.675   9.529  22.972  0.00  0.00    +0.000 OA
ATOM     11  H   UNL     1       0.708  10.501  22.924  0.00  0.00    +0.000 HD
ENDBRANCH   8  10
ENDBRANCH   7   8
BRANCH   7  12
ATOM     12  C   UNL     1       0.987  10.293  19.866  0.00  0.00    +0.000 C 
BRANCH  12  13
ATOM     13  C   UNL     1      -0.348  10.729  19.312  0.00  0.00    +0.000 A 
ATOM     14  C   UNL     1      -1.013  10.246  18.201  0.00  0.00    +0.000 A 
ATOM     15  C   UNL     1      -2.306  10.825  18.050  0.00  0.00    +0.000 A 
ATOM     16  C   UNL     1      -2.572  11.761  19.025  0.00  0.00    +0.000 A 
ATOM     17  S   UNL     1      -1.250  11.967  20.088  0.00  0.00    +0.000 S 
ENDBRANCH  12  13
ENDBRANCH   7  12
ENDBRANCH   4   6
BRANCH   1  18
ATOM     18  C   UNL     1       5.220   6.623  17.099  0.00  0.00    +0.000 C 
BRANCH  18  19
ATOM     19  C   UNL     1       5.263   6.282  15.613  0.00  0.00    +0.000 C 
BRANCH  19  20
ATOM     20  C   UNL     1       6.403   5.336  15.231  0.00  0.00    +0.000 C 
BRANCH  20  21
ATOM     21  C   UNL     1       5.895   3.905  15.022  0.00  0.00    +0.000 C 
BRANCH  21  23
ATOM     22  C   UNL     1       6.625   3.816  12.608  0.00  0.00    +0.000 C 
ATOM     23  C   UNL     1       5.457   3.697  13.573  0.00  0.00    +0.000 C 
ENDBRANCH  21  23
ENDBRANCH  20  21
ENDBRANCH  19  20
ENDBRANCH  18  19
ENDBRANCH   1  18
BRANCH   5  24
ATOM     24  C   UNL     1       3.646   5.626  19.701  0.00  0.00    +0.000 C 
BRANCH  24  25
ATOM     25  C   UNL     1       2.974   4.368  19.208  0.00  0.00    +0.000 A 
ATOM     26  C   UNL     1       2.967   4.096  17.829  0.00  0.00    +0.000 A 
ATOM     27  C   UNL     1       2.422   2.916  17.324  0.00  0.00    +0.000 A 
ATOM     28  C   UNL     1       1.855   1.989  18.188  0.00  0.00    +0.000 A 
ATOM     29  C   UNL     1       1.802   2.262  19.555  0.00  0.00    +0.000 A 
ATOM     30  C   UNL     1       2.337   3.452  20.060  0.00  0.00    +0.000 A 
ATOM     31 CL   UNL     1       2.143   3.737  21.752  0.00  0.00    +0.000 Cl
ENDBRANCH  24  25
ENDBRANCH   5  24
TORSDOF 12
ENDMDL
MODEL 5
REMARK VINA RESULT:      -7.5      1.499      2.361
REMARK  Name = 
REMARK  13 active torsions:
REMARK  status: ('A' for Active; 'I' for Inactive)
REMARK    1  A    between atoms: C_1  and  C_2
REMARK    2  A    between atoms: C_2  and  C_3
REMARK    3  A    between atoms: C_3  and  C_4
REMARK    4  A    between atoms: C_4  and  C_5
REMARK    5  A    between atoms: C_5  and  C_6
REMARK    6  A    between atoms: C_6  and  C_7
REMARK    7  A    between atoms: C_10  and  C_11
REMARK    8  A    between atoms: C_12  and  C_13
REMARK    9  A    between atoms: C_12  and  C_19
REMARK   10  A    between atoms: C_13  and  C_14
REMARK   11  A    between atoms: C_19  and  O_21
REMARK   12  A    between atoms: N_22  and  C_23
REMARK   13  A    between atoms: C_23  and  C_24
REMARK                            x       y       z     vdW  Elec       q    Type
REMARK                         _______ _______ _______ _____ _____    ______ ____
ROOT
ATOM      1  C   UNL     1       3.776   7.243  17.585  0.00  0.00    +0.000 A 
ATOM      2  N   UNL     1       2.932   8.040  16.956  0.00  0.00    +0.000 NA
ATOM      3  C   UNL     1       1.964   8.358  17.859  0.00  0.00    +0.000 A 
ATOM      4  C   UNL     1       2.231   7.791  19.087  0.00  0.00    +0.000 A 
ATOM      5  N   UNL     1       3.294   6.935  18.852  0.00  0.00    +0.000 N 
ENDROOT
BRANCH   4   6
ATOM      6  C   UNL     1       1.562   7.907  20.330  0.00  0.00    +0.000 C 
ATOM      7  C   UNL     1       0.953   9.042  20.734  0.00  0.00    +0.000 C 
BRANCH   7   8
ATOM      8  C   UNL     1       0.198   8.894  22.016  0.00  0.00    +0.000 C 
ATOM      9  O   UNL     1      -0.816   8.215  22.122  0.00  0.00    +0.000 OA
BRANCH   8  10
ATOM     10  O   UNL     1       0.718   9.523  23.088  0.00  0.00    +0.000 OA
ATOM     11  H   UNL     1       1.562   9.187  23.437  0.00  0.00    +0.000 HD
ENDBRANCH   8  10
ENDBRANCH   7   8
BRANCH   7  12
ATOM     12  C   UNL     1       0.965  10.371  20.007  0.00  0.00    +0.000 C 
BRANCH  12  13
ATOM     13  C   UNL     1      -0.369  10.827  19.468  0.00  0.00    +0.000 A 
ATOM     14  C   UNL     1      -1.090  10.300  18.414  0.00  0.00    +0.000 A 
ATOM     15  C   UNL     1      -2.363  10.924  18.264  0.00  0.00    +0.000 A 
ATOM     16  C   UNL     1      -2.556  11.933  19.180  0.00  0.00    +0.000 A 
ATOM     17  S   UNL     1      -1.192  12.152  20.185  0.00  0.00    +0.000 S 
ENDBRANCH  12  13
ENDBRANCH   7  12
ENDBRANCH   4   6
BRANCH   1  18
ATOM     18  C   UNL     1       5.100   6.845  17.006  0.00  0.00    +0.000 C 
BRANCH  18  19
ATOM     19  C   UNL     1       5.050   5.959  15.766  0.00  0.00    +0.000 C 
BRANCH  19  20
ATOM     20  C   UNL     1       6.250   5.020  15.630  0.00  0.00    +0.000 C 
BRANCH  20  21
ATOM     21  C   UNL     1       7.432   5.499  16.482  0.00  0.00    +0.000 C 
BRANCH  21  23
ATOM     22  C   UNL     1       7.817   5.462  18.976  0.00  0.00    +0.000 C 
ATOM     23  C   UNL     1       7.584   4.627  17.727  0.00  0.00    +0.000 C 
ENDBRANCH  21  23
ENDBRANCH  20  21
ENDBRANCH  19  20
ENDBRANCH  18  19
ENDBRANCH   1  18
BRANCH   5  24
ATOM     24  C   UNL     1       3.676   5.781  19.667  0.00  0.00    +0.000 C 
BRANCH  24  25
ATOM     25  C   UNL     1       3.175   4.469  19.113  0.00  0.00    +0.000 A 
ATOM     26  C   UNL     1       3.968   3.774  18.185  0.00  0.00    +0.000 A 
ATOM     27  C   UNL     1       3.589   2.525  17.693  0.00  0.00    +0.000 A 
ATOM     28  C   UNL     1       2.394   1.952  18.109  0.00  0.00    +0.000 A 
ATOM     29  C   UNL     1       1.564   2.647  18.988  0.00  0.00    +0.000 A 
ATOM     30  C   UNL     1       1.940   3.905  19.470  0.00  0.00    +0.000 A 
ATOM     31 CL   UNL     1       0.803   4.722  20.483  0.00  0.00    +0.000 Cl
ENDBRANCH  24  25
ENDBRANCH   5  24
TORSDOF 12
ENDMDL
MODEL 6
REMARK VINA RESULT:      -7.4      1.844      3.044
REMARK  Name = 
REMARK  13 active torsions:
REMARK  status: ('A' for Active; 'I' for Inactive)
REMARK    1  A    between atoms: C_1  and  C_2
REMARK    2  A    between atoms: C_2  and  C_3
REMARK    3  A    between atoms: C_3  and  C_4
REMARK    4  A    between atoms: C_4  and  C_5
REMARK    5  A    between atoms: C_5  and  C_6
REMARK    6  A    between atoms: C_6  and  C_7
REMARK    7  A    between atoms: C_10  and  C_11
REMARK    8  A    between atoms: C_12  and  C_13
REMARK    9  A    between atoms: C_12  and  C_19
REMARK   10  A    between atoms: C_13  and  C_14
REMARK   11  A    between atoms: C_19  and  O_21
REMARK   12  A    between atoms: N_22  and  C_23
REMARK   13  A    between atoms: C_23  and  C_24
REMARK                            x       y       z     vdW  Elec       q    Type
REMARK                         _______ _______ _______ _____ _____    ______ ____
ROOT
ATOM      1  C   UNL     1       4.160   6.669  17.842  0.00  0.00    +0.000 A 
ATOM      2  N   UNL     1       3.507   7.560  17.118  0.00  0.00    +0.000 NA
ATOM      3  C   UNL     1       2.492   8.017  17.902  0.00  0.00    +0.000 A 
ATOM      4  C   UNL     1       2.538   7.440  19.153  0.00  0.00    +0.000 A 
ATOM      5  N   UNL     1       3.498   6.448  19.045  0.00  0.00    +0.000 N 
ENDROOT
BRANCH   4   6
ATOM      6  C   UNL     1       1.752   7.663  20.310  0.00  0.00    +0.000 C 
ATOM      7  C   UNL     1       1.088   8.817  20.536  0.00  0.00    +0.000 C 
BRANCH   7   8
ATOM      8  C   UNL     1       0.217   8.779  21.751  0.00  0.00    +0.000 C 
ATOM      9  O   UNL     1       0.426   9.461  22.747  0.00  0.00    +0.000 OA
BRANCH   8  10
ATOM     10  O   UNL     1      -0.859   7.971  21.686  0.00  0.00    +0.000 OA
ATOM     11  H   UNL     1      -1.497   8.133  20.968  0.00  0.00    +0.000 HD
ENDBRANCH   8  10
ENDBRANCH   7   8
BRANCH   7  12
ATOM     12  C   UNL     1       1.147  10.065  19.681  0.00  0.00    +0.000 C 
BRANCH  12  13
ATOM     13  C   UNL     1      -0.168  10.508  19.088  0.00  0.00    +0.000 A 
ATOM     14  C   UNL     1      -0.825   9.995  17.985  0.00  0.00    +0.000 A 
ATOM     15  C   UNL     1      -2.102  10.595  17.788  0.00  0.00    +0.000 A 
ATOM     16  C   UNL     1      -2.363  11.575  18.720  0.00  0.00    +0.000 A 
ATOM     17  S   UNL     1      -1.055  11.795  19.797  0.00  0.00    +0.000 S 
ENDBRANCH  12  13
ENDBRANCH   7  12
ENDBRANCH   4   6
BRANCH   1  18
ATOM     18  C   UNL     1       5.477   6.091  17.421  0.00  0.00    +0.000 C 
BRANCH  18  19
ATOM     19  C   UNL     1       6.481   7.074  16.828  0.00  0.00    +0.000 C 
BRANCH  19  20
ATOM     20  C   UNL     1       7.598   7.472  17.795  0.00  0.00    +0.000 C 
BRANCH  20  21
ATOM     21  C   UNL     1       7.924   8.966  17.685  0.00  0.00    +0.000 C 
BRANCH  21  23
ATOM     22  C   UNL     1       9.454  10.770  18.566  0.00  0.00    +0.000 C 
ATOM     23  C   UNL     1       8.849   9.399  18.821  0.00  0.00    +0.000 C 
ENDBRANCH  21  23
ENDBRANCH  20  21
ENDBRANCH  19  20
ENDBRANCH  18  19
ENDBRANCH   1  18
BRANCH   5  24
ATOM     24  C   UNL     1       3.627   5.266  19.899  0.00  0.00    +0.000 C 
BRANCH  24  25
ATOM     25  C   UNL     1       2.636   4.178  19.565  0.00  0.00    +0.000 A 
ATOM     26  C   UNL     1       1.444   4.092  20.305  0.00  0.00    +0.000 A 
ATOM     27  C   UNL     1       0.462   3.152  19.995  0.00  0.00    +0.000 A 
ATOM     28  C   UNL     1       0.660   2.263  18.947  0.00  0.00    +0.000 A 
ATOM     29  C   UNL     1       1.857   2.294  18.232  0.00  0.00    +0.000 A 
ATOM     30  C   UNL     1       2.847   3.230  18.552  0.00  0.00    +0.000 A 
ATOM     31 CL   UNL     1       4.328   3.129  17.667  0.00  0.00    +0.000 Cl
ENDBRANCH  24  25
ENDBRANCH   5  24
TORSDOF 12
ENDMDL
MODEL 7
REMARK VINA RESULT:      -7.4      1.654      2.180
REMARK  Name = 
REMARK  13 active torsions:
REMARK  status: ('A' for Active; 'I' for Inactive)
REMARK    1  A    between atoms: C_1  and  C_2
REMARK    2  A    between atoms: C_2  and  C_3
REMARK    3  A    between atoms: C_3  and  C_4
REMARK    4  A    between atoms: C_4  and  C_5
REMARK    5  A    between atoms: C_5  and  C_6
REMARK    6  A    between atoms: C_6  and  C_7
REMARK    7  A    between atoms: C_10  and  C_11
REMARK    8  A    between atoms: C_12  and  C_13
REMARK    9  A    between atoms: C_12  and  C_19
REMARK   10  A    between atoms: C_13  and  C_14
REMARK   11  A    between atoms: C_19  and  O_21
REMARK   12  A    between atoms: N_22  and  C_23
REMARK   13  A    between atoms: C_23  and  C_24
REMARK                            x       y       z     vdW  Elec       q    Type
REMARK                         _______ _______ _______ _____ _____    ______ ____
ROOT
ATOM      1  C   UNL     1       3.286   6.736  18.364  0.00  0.00    +0.000 A 
ATOM      2  N   UNL     1       2.635   7.665  17.688  0.00  0.00    +0.000 NA
ATOM      3  C   UNL     1       1.762   8.233  18.565  0.00  0.00    +0.000 A 
ATOM      4  C   UNL     1       1.901   7.684  19.822  0.00  0.00    +0.000 A 
ATOM      5  N   UNL     1       2.751   6.606  19.640  0.00  0.00    +0.000 N 
ENDROOT
BRANCH   4   6
ATOM      6  C   UNL     1       1.276   8.006  21.052  0.00  0.00    +0.000 C 
ATOM      7  C   UNL     1       0.751   9.222  21.313  0.00  0.00    +0.000 C 
BRANCH   7   8
ATOM      8  C   UNL     1       0.025   9.294  22.619  0.00  0.00    +0.000 C 
ATOM      9  O   UNL     1       0.321  10.083  23.507  0.00  0.00    +0.000 OA
BRANCH   8  10
ATOM     10  O   UNL     1      -1.022   8.459  22.763  0.00  0.00    +0.000 OA
ATOM     11  H   UNL     1      -1.374   8.334  23.661  0.00  0.00    +0.000 HD
ENDBRANCH   8  10
ENDBRANCH   7   8
BRANCH   7  12
ATOM     12  C   UNL     1       0.826  10.441  20.417  0.00  0.00    +0.000 C 
BRANCH  12  13
ATOM     13  C   UNL     1      -0.503  11.036  20.019  0.00  0.00    +0.000 A 
ATOM     14  C   UNL     1      -1.216  12.036  20.651  0.00  0.00    +0.000 A 
ATOM     15  C   UNL     1      -2.380  12.415  19.922  0.00  0.00    +0.000 A 
ATOM     16  C   UNL     1      -2.542  11.664  18.778  0.00  0.00    +0.000 A 
ATOM     17  S   UNL     1      -1.318  10.484  18.612  0.00  0.00    +0.000 S 
ENDBRANCH  12  13
ENDBRANCH   7  12
ENDBRANCH   4   6
BRANCH   1  18
ATOM     18  C   UNL     1       4.490   6.030  17.817  0.00  0.00    +0.000 C 
BRANCH  18  19
ATOM     19  C   UNL     1       5.259   6.765  16.724  0.00  0.00    +0.000 C 
BRANCH  19  20
ATOM     20  C   UNL     1       6.711   6.308  16.579  0.00  0.00    +0.000 C 
BRANCH  20  21
ATOM     21  C   UNL     1       6.861   4.816  16.902  0.00  0.00    +0.000 C 
BRANCH  21  23
ATOM     22  C   UNL     1       7.913   5.789  18.979  0.00  0.00    +0.000 C 
ATOM     23  C   UNL     1       7.879   4.609  18.022  0.00  0.00    +0.000 C 
ENDBRANCH  21  23
ENDBRANCH  20  21
ENDBRANCH  19  20
ENDBRANCH  18  19
ENDBRANCH   1  18
BRANCH   5  24
ATOM     24  C   UNL     1       2.873   5.439  20.515  0.00  0.00    +0.000 C 
BRANCH  24  25
ATOM     25  C   UNL     1       2.334   4.172  19.896  0.00  0.00    +0.000 A 
ATOM     26  C   UNL     1       0.943   3.993  19.813  0.00  0.00    +0.000 A 
ATOM     27  C   UNL     1       0.389   2.875  19.190  0.00  0.00    +0.000 A 
ATOM     28  C   UNL     1       1.219   1.901  18.651  0.00  0.00    +0.000 A 
ATOM     29  C   UNL     1       2.603   2.030  18.769  0.00  0.00    +0.000 A 
ATOM     30  C   UNL     1       3.157   3.146  19.406  0.00  0.00    +0.000 A 
ATOM     31 CL   UNL     1       4.876   3.169  19.579  0.00  0.00    +0.000 Cl
ENDBRANCH  24  25
ENDBRANCH   5  24
TORSDOF 12
ENDMDL
MODEL 8
REMARK VINA RESULT:      -7.4      1.000      1.324
REMARK  Name = 
REMARK  13 active torsions:
REMARK  status: ('A' for Active; 'I' for Inactive)
REMARK    1  A    between atoms: C_1  and  C_2
REMARK    2  A    between atoms: C_2  and  C_3
REMARK    3  A    between atoms: C_3  and  C_4
REMARK    4  A    between atoms: C_4  and  C_5
REMARK    5  A    between atoms: C_5  and  C_6
REMARK    6  A    between atoms: C_6  and  C_7
REMARK    7  A    between atoms: C_10  and  C_11
REMARK    8  A    between atoms: C_12  and  C_13
REMARK    9  A    between atoms: C_12  and  C_19
REMARK   10  A    between atoms: C_13  and  C_14
REMARK   11  A    between atoms: C_19  and  O_21
REMARK   12  A    between atoms: N_22  and  C_23
REMARK   13  A    between atoms: C_23  and  C_24
REMARK                            x       y       z     vdW  Elec       q    Type
REMARK                         _______ _______ _______ _____ _____    ______ ____
ROOT
ATOM      1  C   UNL     1       3.750   6.659  18.134  0.00  0.00    +0.000 A 
ATOM      2  N   UNL     1       3.128   7.542  17.374  0.00  0.00    +0.000 NA
ATOM      3  C   UNL     1       2.187   8.128  18.165  0.00  0.00    +0.000 A 
ATOM      4  C   UNL     1       2.254   7.641  19.453  0.00  0.00    +0.000 A 
ATOM      5  N   UNL     1       3.135   6.575  19.377  0.00  0.00    +0.000 N 
ENDROOT
BRANCH   4   6
ATOM      6  C   UNL     1       1.543   8.004  20.623  0.00  0.00    +0.000 C 
ATOM      7  C   UNL     1       0.909   9.188  20.760  0.00  0.00    +0.000 C 
BRANCH   7   8
ATOM      8  C   UNL     1       0.113   9.299  22.022  0.00  0.00    +0.000 C 
ATOM      9  O   UNL     1       0.250  10.218  22.820  0.00  0.00    +0.000 OA
BRANCH   8  10
ATOM     10  O   UNL     1      -0.812   8.343  22.227  0.00  0.00    +0.000 OA
ATOM     11  H   UNL     1      -1.664   8.619  22.609  0.00  0.00    +0.000 HD
ENDBRANCH   8  10
ENDBRANCH   7   8
BRANCH   7  12
ATOM     12  C   UNL     1       0.930  10.334  19.770  0.00  0.00    +0.000 C 
BRANCH  12  13
ATOM     13  C   UNL     1      -0.401  10.676  19.145  0.00  0.00    +0.000 A 
ATOM     14  C   UNL     1      -1.010  10.087  18.054  0.00  0.00    +0.000 A 
ATOM     15  C   UNL     1      -2.318  10.603  17.821  0.00  0.00    +0.000 A 
ATOM     16  C   UNL     1      -2.649  11.597  18.714  0.00  0.00    +0.000 A 
ATOM     17  S   UNL     1      -1.372  11.932  19.798  0.00  0.00    +0.000 S 
ENDBRANCH  12  13
ENDBRANCH   7  12
ENDBRANCH   4   6
BRANCH   1  18
ATOM     18  C   UNL     1       5.001   5.956  17.700  0.00  0.00    +0.000 C 
BRANCH  18  19
ATOM     19  C   UNL     1       5.657   6.480  16.427  0.00  0.00    +0.000 C 
BRANCH  19  20
ATOM     20  C   UNL     1       5.271   5.700  15.169  0.00  0.00    +0.000 C 
BRANCH  20  21
ATOM     21  C   UNL     1       6.437   4.842  14.664  0.00  0.00    +0.000 C 
BRANCH  21  23
ATOM     22  C   UNL     1       6.743   3.836  12.370  0.00  0.00    +0.000 C 
ATOM     23  C   UNL     1       5.944   3.799  13.662  0.00  0.00    +0.000 C 
ENDBRANCH  21  23
ENDBRANCH  20  21
ENDBRANCH  19  20
ENDBRANCH  18  19
ENDBRANCH   1  18
BRANCH   5  24
ATOM     24  C   UNL     1       3.221   5.452  20.311  0.00  0.00    +0.000 C 
BRANCH  24  25
ATOM     25  C   UNL     1       2.505   4.215  19.825  0.00  0.00    +0.000 A 
ATOM     26  C   UNL     1       1.103   4.164  19.908  0.00  0.00    +0.000 A 
ATOM     27  C   UNL     1       0.385   3.077  19.410  0.00  0.00    +0.000 A 
ATOM     28  C   UNL     1       1.057   2.007  18.835  0.00  0.00    +0.000 A 
ATOM     29  C   UNL     1       2.451   2.011  18.791  0.00  0.00    +0.000 A 
ATOM     30  C   UNL     1       3.172   3.096  19.302  0.00  0.00    +0.000 A 
ATOM     31 CL   UNL     1       4.894   2.966  19.280  0.00  0.00    +0.000 Cl
ENDBRANCH  24  25
ENDBRANCH   5  24
TORSDOF 12
ENDMDL
MODEL 9
REMARK VINA RESULT:      -7.3      2.327      4.932
REMARK  Name = 
REMARK  13 active torsions:
REMARK  status: ('A' for Active; 'I' for Inactive)
REMARK    1  A    between atoms: C_1  and  C_2
REMARK    2  A    between atoms: C_2  and  C_3
REMARK    3  A    between atoms: C_3  and  C_4
REMARK    4  A    between atoms: C_4  and  C_5
REMARK    5  A    between atoms: C_5  and  C_6
REMARK    6  A    between atoms: C_6  and  C_7
REMARK    7  A    between atoms: C_10  and  C_11
REMARK    8  A    between atoms: C_12  and  C_13
REMARK    9  A    between atoms: C_12  and  C_19
REMARK   10  A    between atoms: C_13  and  C_14
REMARK   11  A    between atoms: C_19  and  O_21
REMARK   12  A    between atoms: N_22  and  C_23
REMARK   13  A    between atoms: C_23  and  C_24
REMARK                            x       y       z     vdW  Elec       q    Type
REMARK                         _______ _______ _______ _____ _____    ______ ____
ROOT
ATOM      1  C   UNL     1       2.793   5.742  18.401  0.00  0.00    +0.000 A 
ATOM      2  N   UNL     1       2.173   5.991  19.540  0.00  0.00    +0.000 NA
ATOM      3  C   UNL     1       2.043   7.344  19.615  0.00  0.00    +0.000 A 
ATOM      4  C   UNL     1       2.546   7.950  18.483  0.00  0.00    +0.000 A 
ATOM      5  N   UNL     1       3.184   6.931  17.796  0.00  0.00    +0.000 N 
ENDROOT
BRANCH   4   6
ATOM      6  C   UNL     1       2.558   9.308  18.082  0.00  0.00    +0.000 C 
ATOM      7  C   UNL     1       1.608  10.193  18.455  0.00  0.00    +0.000 C 
BRANCH   7   8
ATOM      8  C   UNL     1       1.895  11.597  18.027  0.00  0.00    +0.000 C 
ATOM      9  O   UNL     1       1.381  12.576  18.554  0.00  0.00    +0.000 OA
BRANCH   8  10
ATOM     10  O   UNL     1       2.798  11.743  17.039  0.00  0.00    +0.000 OA
ATOM     11  H   UNL     1       2.497  12.173  16.219  0.00  0.00    +0.000 HD
ENDBRANCH   8  10
ENDBRANCH   7   8
BRANCH   7  12
ATOM     12  C   UNL     1       0.357   9.880  19.249  0.00  0.00    +0.000 C 
BRANCH  12  13
ATOM     13  C   UNL     1      -0.943  10.283  18.596  0.00  0.00    +0.000 A 
ATOM     14  C   UNL     1      -1.498   9.801  17.426  0.00  0.00    +0.000 A 
ATOM     15  C   UNL     1      -2.794  10.341  17.179  0.00  0.00    +0.000 A 
ATOM     16  C   UNL     1      -3.169  11.248  18.145  0.00  0.00    +0.000 A 
ATOM     17  S   UNL     1      -1.946  11.475  19.316  0.00  0.00    +0.000 S 
ENDBRANCH  12  13
ENDBRANCH   7  12
ENDBRANCH   4   6
BRANCH   1  18
ATOM     18  C   UNL     1       2.932   4.359  17.839  0.00  0.00    +0.000 C 
BRANCH  18  19
ATOM     19  C   UNL     1       1.653   3.531  17.774  0.00  0.00    +0.000 C 
BRANCH  19  20
ATOM     20  C   UNL     1       1.549   2.470  18.871  0.00  0.00    +0.000 C 
BRANCH  20  21
ATOM     21  C   UNL     1       0.601   2.918  19.991  0.00  0.00    +0.000 C 
BRANCH  21  23
ATOM     22  C   UNL     1       2.803   2.705  21.205  0.00  0.00    +0.000 C 
ATOM     23  C   UNL     1       1.295   2.833  21.349  0.00  0.00    +0.000 C 
ENDBRANCH  21  23
ENDBRANCH  20  21
ENDBRANCH  19  20
ENDBRANCH  18  19
ENDBRANCH   1  18
BRANCH   5  24
ATOM     24  C   UNL     1       4.243   7.086  16.798  0.00  0.00    +0.000 C 
BRANCH  24  25
ATOM     25  C   UNL     1       5.487   6.295  17.120  0.00  0.00    +0.000 A 
ATOM     26  C   UNL     1       6.183   6.573  18.310  0.00  0.00    +0.000 A 
ATOM     27  C   UNL     1       7.297   5.828  18.692  0.00  0.00    +0.000 A 
ATOM     28  C   UNL     1       7.752   4.796  17.882  0.00  0.00    +0.000 A 
ATOM     29  C   UNL     1       7.111   4.536  16.670  0.00  0.00    +0.000 A 
ATOM     30  C   UNL     1       6.001   5.294  16.281  0.00  0.00    +0.000 A 
ATOM     31 CL   UNL     1       5.333   4.952  14.725  0.00  0.00    +0.000 Cl
ENDBRANCH  24  25
ENDBRANCH   5  24
TORSDOF 12
ENDMDL
