MODEL 1
REMARK VINA RESULT:      -7.8      0.000      0.000
REMARK  Name = 
REMARK  5 active torsions:
REMARK  status: ('A' for Active; 'I' for Inactive)
REMARK    1  A    between atoms: C_1  and  C_2
REMARK    2  A    between atoms: N_6  and  C_7
REMARK    3  A    between atoms: C_12  and  O_13
REMARK    4  A    between atoms: O_13  and  C_14
REMARK    5  A    between atoms: C_14  and  C_15
REMARK                            x       y       z     vdW  Elec       q    Type
REMARK                         _______ _______ _______ _____ _____    ______ ____
ROOT
ATOM      1  C   UNL     1       3.939   4.524  17.508  0.00  0.00    +0.000 A 
ATOM      2  C   UNL     1       4.686   3.983  16.432  0.00  0.00    +0.000 A 
ATOM      3  C   UNL     1       5.507   4.756  15.611  0.00  0.00    +0.000 A 
ATOM      4  C   UNL     1       5.619   6.114  15.832  0.00  0.00    +0.000 A 
ATOM      5  C   UNL     1       4.886   6.694  16.868  0.00  0.00    +0.000 A 
ATOM      6  C   UNL     1       4.022   5.933  17.681  0.00  0.00    +0.000 A 
ENDROOT
BRANCH   1  12
ATOM      7  C   UNL     1       2.295   4.734  21.040  0.00  0.00    +0.000 C 
ATOM      8  C   UNL     1       2.679   3.284  20.720  0.00  0.00    +0.000 C 
ATOM      9  C   UNL     1       1.475   2.446  20.265  0.00  0.00    +0.000 C 
ATOM     10  C   UNL     1       0.994   2.838  18.865  0.00  0.00    +0.000 C 
ATOM     11  C   UNL     1       2.142   2.813  17.852  0.00  0.00    +0.000 C 
ATOM     12  N   UNL     1       3.230   3.661  18.346  0.00  0.00    +0.000 N 
ATOM     13  C   UNL     1       3.782   3.245  19.652  0.00  0.00    +0.000 C 
ENDBRANCH   1  12
BRANCH   6  14
ATOM     14  O   UNL     1       3.296   6.562  18.681  0.00  0.00    +0.000 OA
BRANCH  14  15
ATOM     15  C   UNL     1       2.017   7.047  18.265  0.00  0.00    +0.000 C 
BRANCH  15  16
ATOM     16  C   UNL     1       1.855   8.561  18.348  0.00  0.00    +0.000 C 
ATOM     17  O   UNL     1       2.208   9.273  17.403  0.00  0.00    +0.000 OA
ATOM     18  N   UNL     1       1.330   9.098  19.504  0.00  0.00    +0.000 N 
ATOM     19  C   UNL     1       1.021  10.524  19.562  0.00  0.00    +0.000 C 
ATOM     20  C   UNL     1      -0.344  10.720  20.221  0.00  0.00    +0.000 C 
ATOM     21  O   UNL     1      -0.366  10.129  21.532  0.00  0.00    +0.000 OA
ATOM     22  C   UNL     1      -0.120   8.714  21.460  0.00  0.00    +0.000 C 
ATOM     23  C   UNL     1       1.223   8.410  20.793  0.00  0.00    +0.000 C 
ENDBRANCH  15  16
ENDBRANCH  14  15
ENDBRANCH   6  14
TORSDOF 4
ENDMDL
MODEL 2
REMARK VINA RESULT:      -7.8      1.299      3.768
REMARK  Name = 
REMARK  5 active torsions:
REMARK  status: ('A' for Active; 'I' for Inactive)
REMARK    1  A    between atoms: C_1  and  C_2
REMARK    2  A    between atoms: N_6  and  C_7
REMARK    3  A    between atoms: C_12  and  O_13
REMARK    4  A    between atoms: O_13  and  C_14
REMARK    5  A    between atoms: C_14  and  C_15
REMARK                            x       y       z     vdW  Elec       q    Type
REMARK                         _______ _______ _______ _____ _____    ______ ____
ROOT
ATOM      1  C   UNL     1       3.792   3.848  18.038  0.00  0.00    +0.000 A 
ATOM      2  C   UNL     1       3.665   2.482  18.393  0.00  0.00    +0.000 A 
ATOM      3  C   UNL     1       2.438   1.876  18.662  0.00  0.00    +0.000 A 
ATOM      4  C   UNL     1       1.274   2.615  18.586  0.00  0.00    +0.000 A 
ATOM      5  C   UNL     1       1.352   3.968  18.258  0.00  0.00    +0.000 A 
ATOM      6  C   UNL     1       2.588   4.605  18.024  0.00  0.00    +0.000 A 
ENDROOT
BRANCH   1  12
ATOM      7  C   UNL     1       5.170   6.474  15.504  0.00  0.00    +0.000 C 
ATOM      8  C   UNL     1       6.242   5.420  15.810  0.00  0.00    +0.000 C 
ATOM      9  C   UNL     1       7.285   5.921  16.818  0.00  0.00    +0.000 C 
ATOM     10  C   UNL     1       6.712   6.037  18.233  0.00  0.00    +0.000 C 
ATOM     11  C   UNL     1       6.047   4.731  18.677  0.00  0.00    +0.000 C 
ATOM     12  N   UNL     1       5.046   4.344  17.679  0.00  0.00    +0.000 N 
ATOM     13  C   UNL     1       5.590   4.127  16.322  0.00  0.00    +0.000 C 
ENDBRANCH   1  12
BRANCH   6  14
ATOM     14  O   UNL     1       2.613   5.959  17.728  0.00  0.00    +0.000 OA
BRANCH  14  15
ATOM     15  C   UNL     1       2.488   6.813  18.867  0.00  0.00    +0.000 C 
BRANCH  15  16
ATOM     16  C   UNL     1       2.071   8.244  18.544  0.00  0.00    +0.000 C 
ATOM     17  O   UNL     1       2.354   8.739  17.449  0.00  0.00    +0.000 OA
ATOM     18  N   UNL     1       1.399   8.961  19.511  0.00  0.00    +0.000 N 
ATOM     19  C   UNL     1       0.854  10.276  19.187  0.00  0.00    +0.000 C 
ATOM     20  C   UNL     1      -0.560  10.393  19.756  0.00  0.00    +0.000 C 
ATOM     21  O   UNL     1      -0.558  10.166  21.176  0.00  0.00    +0.000 OA
ATOM     22  C   UNL     1      -0.077   8.846  21.483  0.00  0.00    +0.000 C 
ATOM     23  C   UNL     1       1.334   8.622  20.935  0.00  0.00    +0.000 C 
ENDBRANCH  15  16
ENDBRANCH  14  15
ENDBRANCH   6  14
TORSDOF 4
ENDMDL
MODEL 3
REMARK VINA RESULT:      -7.7      0.796      1.538
REMARK  Name = 
REMARK  5 active torsions:
REMARK  status: ('A' for Active; 'I' for Inactive)
REMARK    1  A    between atoms: C_1  and  C_2
REMARK    2  A    between atoms: N_6  and  C_7
REMARK    3  A    between atoms: C_12  and  O_13
REMARK    4  A    between atoms: O_13  and  C_14
REMARK    5  A    between atoms: C_14  and  C_15
REMARK                            x       y       z     vdW  Elec       q    Type
REMARK                         _______ _______ _______ _____ _____    ______ ____
ROOT
ATOM      1  C   UNL     1       3.529   4.954  17.833  0.00  0.00    +0.000 A 
ATOM      2  C   UNL     1       4.102   3.991  16.966  0.00  0.00    +0.000 A 
ATOM      3  C   UNL     1       5.046   4.312  15.990  0.00  0.00    +0.000 A 
ATOM      4  C   UNL     1       5.463   5.619  15.839  0.00  0.00    +0.000 A 
ATOM      5  C   UNL     1       4.911   6.604  16.658  0.00  0.00    +0.000 A 
ATOM      6  C   UNL     1       3.927   6.303  17.621  0.00  0.00    +0.000 A 
ENDROOT
BRANCH   1  12
ATOM      7  C   UNL     1       1.685   1.648  18.778  0.00  0.00    +0.000 C 
ATOM      8  C   UNL     1       0.933   2.856  19.350  0.00  0.00    +0.000 C 
ATOM      9  C   UNL     1       1.213   3.067  20.845  0.00  0.00    +0.000 C 
ATOM     10  C   UNL     1       2.634   3.578  21.099  0.00  0.00    +0.000 C 
ATOM     11  C   UNL     1       2.938   4.826  20.264  0.00  0.00    +0.000 C 
ATOM     12  N   UNL     1       2.676   4.528  18.853  0.00  0.00    +0.000 N 
ATOM     13  C   UNL     1       1.284   4.128  18.562  0.00  0.00    +0.000 C 
ENDBRANCH   1  12
BRANCH   6  14
ATOM     14  O   UNL     1       3.392   7.323  18.393  0.00  0.00    +0.000 OA
BRANCH  14  15
ATOM     15  C   UNL     1       2.097   7.760  17.974  0.00  0.00    +0.000 C 
BRANCH  15  16
ATOM     16  C   UNL     1       1.783   9.216  18.301  0.00  0.00    +0.000 C 
ATOM     17  O   UNL     1       2.042  10.103  17.482  0.00  0.00    +0.000 OA
ATOM     18  N   UNL     1       1.230   9.504  19.531  0.00  0.00    +0.000 N 
ATOM     19  C   UNL     1       0.779  10.863  19.819  0.00  0.00    +0.000 C 
ATOM     20  C   UNL     1      -0.585  10.807  20.507  0.00  0.00    +0.000 C 
ATOM     21  O   UNL     1      -0.519  10.016  21.706  0.00  0.00    +0.000 OA
ATOM     22  C   UNL     1      -0.132   8.663  21.405  0.00  0.00    +0.000 C 
ATOM     23  C   UNL     1       1.221   8.612  20.692  0.00  0.00    +0.000 C 
ENDBRANCH  15  16
ENDBRANCH  14  15
ENDBRANCH   6  14
TORSDOF 4
ENDMDL
MODEL 4
REMARK VINA RESULT:      -7.5      1.783      3.828
REMARK  Name = 
REMARK  5 active torsions:
REMARK  status: ('A' for Active; 'I' for Inactive)
REMARK    1  A    between atoms: C_1  and  C_2
REMARK    2  A    between atoms: N_6  and  C_7
REMARK    3  A    between atoms: C_12  and  O_13
REMARK    4  A    between atoms: O_13  and  C_14
REMARK    5  A    between atoms: C_14  and  C_15
REMARK                            x       y       z     vdW  Elec       q    Type
REMARK                         _______ _______ _______ _____ _____    ______ ____
ROOT
ATOM      1  C   UNL     1       3.821   4.895  18.398  0.00  0.00    +0.000 A 
ATOM      2  C   UNL     1       3.664   3.792  17.522  0.00  0.00    +0.000 A 
ATOM      3  C   UNL     1       2.521   2.993  17.502  0.00  0.00    +0.000 A 
ATOM      4  C   UNL     1       1.475   3.265  18.362  0.00  0.00    +0.000 A 
ATOM      5  C   UNL     1       1.594   4.330  19.255  0.00  0.00    +0.000 A 
ATOM      6  C   UNL     1       2.759   5.121  19.316  0.00  0.00    +0.000 A 
ENDROOT
BRANCH   1  12
ATOM      7  C   UNL     1       7.580   4.383  17.488  0.00  0.00    +0.000 C 
ATOM      8  C   UNL     1       7.414   5.626  18.370  0.00  0.00    +0.000 C 
ATOM      9  C   UNL     1       7.447   6.929  17.558  0.00  0.00    +0.000 C 
ATOM     10  C   UNL     1       6.184   7.115  16.712  0.00  0.00    +0.000 C 
ATOM     11  C   UNL     1       4.917   6.986  17.562  0.00  0.00    +0.000 C 
ATOM     12  N   UNL     1       4.951   5.706  18.274  0.00  0.00    +0.000 N 
ATOM     13  C   UNL     1       6.109   5.540  19.176  0.00  0.00    +0.000 C 
ENDBRANCH   1  12
BRANCH   6  14
ATOM     14  O   UNL     1       2.837   6.152  20.240  0.00  0.00    +0.000 OA
BRANCH  14  15
ATOM     15  C   UNL     1       1.586   6.780  20.529  0.00  0.00    +0.000 C 
BRANCH  15  16
ATOM     16  C   UNL     1       1.500   8.244  20.110  0.00  0.00    +0.000 C 
ATOM     17  O   UNL     1       1.754   8.570  18.947  0.00  0.00    +0.000 OA
ATOM     18  N   UNL     1       1.156   9.176  21.066  0.00  0.00    +0.000 N 
ATOM     19  C   UNL     1       0.917  10.562  20.670  0.00  0.00    +0.000 C 
ATOM     20  C   UNL     1      -0.339  11.079  21.371  0.00  0.00    +0.000 C 
ATOM     21  O   UNL     1      -0.211  10.960  22.798  0.00  0.00    +0.000 OA
ATOM     22  C   UNL     1      -0.037   9.586  23.184  0.00  0.00    +0.000 C 
ATOM     23  C   UNL     1       1.192   8.966  22.515  0.00  0.00    +0.000 C 
ENDBRANCH  15  16
ENDBRANCH  14  15
ENDBRANCH   6  14
TORSDOF 4
ENDMDL
MODEL 5
REMARK VINA RESULT:      -7.5      1.244      3.863
REMARK  Name = 
REMARK  5 active torsions:
REMARK  status: ('A' for Active; 'I' for Inactive)
REMARK    1  A    between atoms: C_1  and  C_2
REMARK    2  A    between atoms: N_6  and  C_7
REMARK    3  A    between atoms: C_12  and  O_13
REMARK    4  A    between atoms: O_13  and  C_14
REMARK    5  A    between atoms: C_14  and  C_15
REMARK                            x       y       z     vdW  Elec       q    Type
REMARK                         _______ _______ _______ _____ _____    ______ ____
ROOT
ATOM      1  C   UNL     1       4.126   4.513  19.329  0.00  0.00    +0.000 A 
ATOM      2  C   UNL     1       3.941   3.209  19.851  0.00  0.00    +0.000 A 
ATOM      3  C   UNL     1       2.797   2.824  20.549  0.00  0.00    +0.000 A 
ATOM      4  C   UNL     1       1.779   3.733  20.758  0.00  0.00    +0.000 A 
ATOM      5  C   UNL     1       1.926   5.034  20.278  0.00  0.00    +0.000 A 
ATOM      6  C   UNL     1       3.093   5.450  19.606  0.00  0.00    +0.000 A 
ENDROOT
BRANCH   1  12
ATOM      7  C   UNL     1       4.895   6.520  16.074  0.00  0.00    +0.000 C 
ATOM      8  C   UNL     1       5.919   5.394  16.255  0.00  0.00    +0.000 C 
ATOM      9  C   UNL     1       7.253   5.900  16.821  0.00  0.00    +0.000 C 
ATOM     10  C   UNL     1       7.139   6.304  18.294  0.00  0.00    +0.000 C 
ATOM     11  C   UNL     1       6.533   5.178  19.137  0.00  0.00    +0.000 C 
ATOM     12  N   UNL     1       5.252   4.779  18.548  0.00  0.00    +0.000 N 
ATOM     13  C   UNL     1       5.347   4.290  17.157  0.00  0.00    +0.000 C 
ENDBRANCH   1  12
BRANCH   6  14
ATOM     14  O   UNL     1       3.201   6.763  19.172  0.00  0.00    +0.000 OA
BRANCH  14  15
ATOM     15  C   UNL     1       2.107   7.209  18.368  0.00  0.00    +0.000 C 
BRANCH  15  16
ATOM     16  C   UNL     1       1.851   8.711  18.421  0.00  0.00    +0.000 C 
ATOM     17  O   UNL     1       2.180   9.428  17.470  0.00  0.00    +0.000 OA
ATOM     18  N   UNL     1       1.272   9.234  19.558  0.00  0.00    +0.000 N 
ATOM     19  C   UNL     1       0.877  10.640  19.585  0.00  0.00    +0.000 C 
ATOM     20  C   UNL     1      -0.511  10.762  20.215  0.00  0.00    +0.000 C 
ATOM     21  O   UNL     1      -0.523  10.193  21.536  0.00  0.00    +0.000 OA
ATOM     22  C   UNL     1      -0.190   8.794  21.493  0.00  0.00    +0.000 C 
ATOM     23  C   UNL     1       1.182   8.562  20.856  0.00  0.00    +0.000 C 
ENDBRANCH  15  16
ENDBRANCH  14  15
ENDBRANCH   6  14
TORSDOF 4
ENDMDL
MODEL 6
REMARK VINA RESULT:      -7.5      1.342      3.741
REMARK  Name = 
REMARK  5 active torsions:
REMARK  status: ('A' for Active; 'I' for Inactive)
REMARK    1  A    between atoms: C_1  and  C_2
REMARK    2  A    between atoms: N_6  and  C_7
REMARK    3  A    between atoms: C_12  and  O_13
REMARK    4  A    between atoms: O_13  and  C_14
REMARK    5  A    between atoms: C_14  and  C_15
REMARK                            x       y       z     vdW  Elec       q    Type
REMARK                         _______ _______ _______ _____ _____    ______ ____
ROOT
ATOM      1  C   UNL     1       3.954   4.342  18.629  0.00  0.00    +0.000 A 
ATOM      2  C   UNL     1       4.274   3.176  19.367  0.00  0.00    +0.000 A 
ATOM      3  C   UNL     1       3.449   2.656  20.364  0.00  0.00    +0.000 A 
ATOM      4  C   UNL     1       2.256   3.283  20.668  0.00  0.00    +0.000 A 
ATOM      5  C   UNL     1       1.909   4.445  19.980  0.00  0.00    +0.000 A 
ATOM      6  C   UNL     1       2.751   5.006  18.999  0.00  0.00    +0.000 A 
ENDROOT
BRANCH   1  12
ATOM      7  C   UNL     1       7.793   4.718  18.047  0.00  0.00    +0.000 C 
ATOM      8  C   UNL     1       7.021   5.654  17.109  0.00  0.00    +0.000 C 
ATOM      9  C   UNL     1       6.912   5.094  15.684  0.00  0.00    +0.000 C 
ATOM     10  C   UNL     1       5.956   3.900  15.604  0.00  0.00    +0.000 C 
ATOM     11  C   UNL     1       4.590   4.236  16.209  0.00  0.00    +0.000 C 
ATOM     12  N   UNL     1       4.783   4.730  17.575  0.00  0.00    +0.000 N 
ATOM     13  C   UNL     1       5.621   5.942  17.673  0.00  0.00    +0.000 C 
ENDBRANCH   1  12
BRANCH   6  14
ATOM     14  O   UNL     1       2.372   6.178  18.362  0.00  0.00    +0.000 OA
BRANCH  14  15
ATOM     15  C   UNL     1       2.402   7.338  19.197  0.00  0.00    +0.000 C 
BRANCH  15  16
ATOM     16  C   UNL     1       1.893   8.612  18.532  0.00  0.00    +0.000 C 
ATOM     17  O   UNL     1       2.165   8.844  17.350  0.00  0.00    +0.000 OA
ATOM     18  N   UNL     1       1.150   9.492  19.291  0.00  0.00    +0.000 N 
ATOM     19  C   UNL     1       0.521  10.644  18.652  0.00  0.00    +0.000 C 
ATOM     20  C   UNL     1      -0.910  10.791  19.168  0.00  0.00    +0.000 C 
ATOM     21  O   UNL     1      -0.924  10.919  20.601  0.00  0.00    +0.000 OA
ATOM     22  C   UNL     1      -0.357   9.753  21.224  0.00  0.00    +0.000 C 
ATOM     23  C   UNL     1       1.078   9.506  20.754  0.00  0.00    +0.000 C 
ENDBRANCH  15  16
ENDBRANCH  14  15
ENDBRANCH   6  14
TORSDOF 4
ENDMDL
MODEL 7
REMARK VINA RESULT:      -7.4      1.291      3.743
REMARK  Name = 
REMARK  5 active torsions:
REMARK  status: ('A' for Active; 'I' for Inactive)
REMARK    1  A    between atoms: C_1  and  C_2
REMARK    2  A    between atoms: N_6  and  C_7
REMARK    3  A    between atoms: C_12  and  O_13
REMARK    4  A    between atoms: O_13  and  C_14
REMARK    5  A    between atoms: C_14  and  C_15
REMARK                            x       y       z     vdW  Elec       q    Type
REMARK                         _______ _______ _______ _____ _____    ______ ____
ROOT
ATOM      1  C   UNL     1       3.767   3.912  17.509  0.00  0.00    +0.000 A 
ATOM      2  C   UNL     1       3.900   2.552  17.883  0.00  0.00    +0.000 A 
ATOM      3  C   UNL     1       2.925   1.863  18.605  0.00  0.00    +0.000 A 
ATOM      4  C   UNL     1       1.765   2.509  18.986  0.00  0.00    +0.000 A 
ATOM      5  C   UNL     1       1.600   3.854  18.655  0.00  0.00    +0.000 A 
ATOM      6  C   UNL     1       2.593   4.575  17.961  0.00  0.00    +0.000 A 
ENDROOT
BRANCH   1  12
ATOM      7  C   UNL     1       7.612   4.542  17.711  0.00  0.00    +0.000 C 
ATOM      8  C   UNL     1       6.954   5.574  16.786  0.00  0.00    +0.000 C 
ATOM      9  C   UNL     1       7.140   5.231  15.301  0.00  0.00    +0.000 C 
ATOM     10  C   UNL     1       6.302   4.022  14.878  0.00  0.00    +0.000 C 
ATOM     11  C   UNL     1       4.829   4.201  15.259  0.00  0.00    +0.000 C 
ATOM     12  N   UNL     1       4.741   4.490  16.692  0.00  0.00    +0.000 N 
ATOM     13  C   UNL     1       5.459   5.711  17.113  0.00  0.00    +0.000 C 
ENDBRANCH   1  12
BRANCH   6  14
ATOM     14  O   UNL     1       2.391   5.917  17.680  0.00  0.00    +0.000 OA
BRANCH  14  15
ATOM     15  C   UNL     1       2.457   6.775  18.821  0.00  0.00    +0.000 C 
BRANCH  15  16
ATOM     16  C   UNL     1       2.049   8.219  18.555  0.00  0.00    +0.000 C 
ATOM     17  O   UNL     1       2.320   8.749  17.473  0.00  0.00    +0.000 OA
ATOM     18  N   UNL     1       1.397   8.908  19.556  0.00  0.00    +0.000 N 
ATOM     19  C   UNL     1       0.860  10.239  19.285  0.00  0.00    +0.000 C 
ATOM     20  C   UNL     1      -0.545  10.347  19.879  0.00  0.00    +0.000 C 
ATOM     21  O   UNL     1      -0.524  10.072  21.290  0.00  0.00    +0.000 OA
ATOM     22  C   UNL     1      -0.050   8.738  21.544  0.00  0.00    +0.000 C 
ATOM     23  C   UNL     1       1.351   8.520  20.968  0.00  0.00    +0.000 C 
ENDBRANCH  15  16
ENDBRANCH  14  15
ENDBRANCH   6  14
TORSDOF 4
ENDMDL
MODEL 8
REMARK VINA RESULT:      -7.4      1.147      1.664
REMARK  Name = 
REMARK  5 active torsions:
REMARK  status: ('A' for Active; 'I' for Inactive)
REMARK    1  A    between atoms: C_1  and  C_2
REMARK    2  A    between atoms: N_6  and  C_7
REMARK    3  A    between atoms: C_12  and  O_13
REMARK    4  A    between atoms: O_13  and  C_14
REMARK    5  A    between atoms: C_14  and  C_15
REMARK                            x       y       z     vdW  Elec       q    Type
REMARK                         _______ _______ _______ _____ _____    ______ ____
ROOT
ATOM      1  C   UNL     1       3.741   4.659  17.648  0.00  0.00    +0.000 A 
ATOM      2  C   UNL     1       4.730   4.315  16.694  0.00  0.00    +0.000 A 
ATOM      3  C   UNL     1       5.463   5.265  15.982  0.00  0.00    +0.000 A 
ATOM      4  C   UNL     1       5.239   6.611  16.197  0.00  0.00    +0.000 A 
ATOM      5  C   UNL     1       4.261   6.995  17.115  0.00  0.00    +0.000 A 
ATOM      6  C   UNL     1       3.484   6.048  17.812  0.00  0.00    +0.000 A 
ENDROOT
BRANCH   1  12
ATOM      7  C   UNL     1       2.166   4.322  21.202  0.00  0.00    +0.000 C 
ATOM      8  C   UNL     1       2.673   2.959  20.716  0.00  0.00    +0.000 C 
ATOM      9  C   UNL     1       1.542   2.067  20.186  0.00  0.00    +0.000 C 
ATOM     10  C   UNL     1       0.995   2.565  18.845  0.00  0.00    +0.000 C 
ATOM     11  C   UNL     1       2.117   2.760  17.821  0.00  0.00    +0.000 C 
ATOM     12  N   UNL     1       3.134   3.646  18.393  0.00  0.00    +0.000 N 
ATOM     13  C   UNL     1       3.751   3.142  19.637  0.00  0.00    +0.000 C 
ENDBRANCH   1  12
BRANCH   6  14
ATOM     14  O   UNL     1       2.506   6.483  18.693  0.00  0.00    +0.000 OA
BRANCH  14  15
ATOM     15  C   UNL     1       2.362   7.903  18.759  0.00  0.00    +0.000 C 
BRANCH  15  16
ATOM     16  C   UNL     1       1.542   8.403  19.944  0.00  0.00    +0.000 C 
ATOM     17  O   UNL     1       1.453   7.719  20.968  0.00  0.00    +0.000 OA
ATOM     18  N   UNL     1       0.897   9.616  19.825  0.00  0.00    +0.000 N 
ATOM     19  C   UNL     1       0.228  10.196  20.987  0.00  0.00    +0.000 C 
ATOM     20  C   UNL     1       0.559  11.686  21.068  0.00  0.00    +0.000 C 
ATOM     21  O   UNL     1       0.175  12.360  19.858  0.00  0.00    +0.000 OA
ATOM     22  C   UNL     1       0.882  11.823  18.727  0.00  0.00    +0.000 C 
ATOM     23  C   UNL     1       0.632  10.322  18.568  0.00  0.00    +0.000 C 
ENDBRANCH  15  16
ENDBRANCH  14  15
ENDBRANCH   6  14
TORSDOF 4
ENDMDL
MODEL 9
REMARK VINA RESULT:      -7.4      1.406      3.837
REMARK  Name = 
REMARK  5 active torsions:
REMARK  status: ('A' for Active; 'I' for Inactive)
REMARK    1  A    between atoms: C_1  and  C_2
REMARK    2  A    between atoms: N_6  and  C_7
REMARK    3  A    between atoms: C_12  and  O_13
REMARK    4  A    between atoms: O_13  and  C_14
REMARK    5  A    between atoms: C_14  and  C_15
REMARK                            x       y       z     vdW  Elec       q    Type
REMARK                         _______ _______ _______ _____ _____    ______ ____
ROOT
ATOM      1  C   UNL     1       3.272   4.360  18.383  0.00  0.00    +0.000 A 
ATOM      2  C   UNL     1       2.873   3.118  17.830  0.00  0.00    +0.000 A 
ATOM      3  C   UNL     1       1.735   2.429  18.249  0.00  0.00    +0.000 A 
ATOM      4  C   UNL     1       0.939   2.956  19.246  0.00  0.00    +0.000 A 
ATOM      5  C   UNL     1       1.304   4.168  19.833  0.00  0.00    +0.000 A 
ATOM      6  C   UNL     1       2.472   4.857  19.449  0.00  0.00    +0.000 A 
ENDROOT
BRANCH   1  12
ATOM      7  C   UNL     1       5.976   3.606  15.673  0.00  0.00    +0.000 C 
ATOM      8  C   UNL     1       6.508   4.632  16.681  0.00  0.00    +0.000 C 
ATOM      9  C   UNL     1       6.444   6.069  16.144  0.00  0.00    +0.000 C 
ATOM     10  C   UNL     1       5.007   6.593  16.067  0.00  0.00    +0.000 C 
ATOM     11  C   UNL     1       4.281   6.434  17.406  0.00  0.00    +0.000 C 
ATOM     12  N   UNL     1       4.362   5.033  17.828  0.00  0.00    +0.000 N 
ATOM     13  C   UNL     1       5.739   4.529  18.007  0.00  0.00    +0.000 C 
ENDBRANCH   1  12
BRANCH   6  14
ATOM     14  O   UNL     1       2.804   6.045  20.082  0.00  0.00    +0.000 OA
BRANCH  14  15
ATOM     15  C   UNL     1       1.688   6.760  20.616  0.00  0.00    +0.000 C 
BRANCH  15  16
ATOM     16  C   UNL     1       1.555   8.194  20.117  0.00  0.00    +0.000 C 
ATOM     17  O   UNL     1       1.809   8.466  18.939  0.00  0.00    +0.000 OA
ATOM     18  N   UNL     1       1.169   9.165  21.017  0.00  0.00    +0.000 N 
ATOM     19  C   UNL     1       0.887  10.517  20.545  0.00  0.00    +0.000 C 
ATOM     20  C   UNL     1      -0.393  11.028  21.206  0.00  0.00    +0.000 C 
ATOM     21  O   UNL     1      -0.276  10.991  22.639  0.00  0.00    +0.000 OA
ATOM     22  C   UNL     1      -0.058   9.647  23.100  0.00  0.00    +0.000 C 
ATOM     23  C   UNL     1       1.198   9.035  22.476  0.00  0.00    +0.000 C 
ENDBRANCH  15  16
ENDBRANCH  14  15
ENDBRANCH   6  14
TORSDOF 4
ENDMDL
