MODEL 1
REMARK VINA RESULT:      -8.9      0.000      0.000
REMARK  Name = 
REMARK  8 active torsions:
REMARK  status: ('A' for Active; 'I' for Inactive)
REMARK    1  A    between atoms: C_1  and  C_2
REMARK    2  A    between atoms: C_3  and  C_4
REMARK    3  A    between atoms: C_4  and  C_5
REMARK    4  A    between atoms: C_5  and  O_7
REMARK    5  A    between atoms: C_15  and  C_16
REMARK    6  A    between atoms: C_19  and  C_20
REMARK    7  A    between atoms: C_20  and  C_21
REMARK    8  A    between atoms: C_20  and  C_22
REMARK                            x       y       z     vdW  Elec       q    Type
REMARK                         _______ _______ _______ _____ _____    ______ ____
ROOT
ATOM      1  C   UNL     1       5.249   7.043  15.828  0.00  0.00    +0.000 C 
ATOM      2  C   UNL     1       4.539   6.063  16.703  0.00  0.00    +0.000 C 
ATOM      3  C   UNL     1       4.697   4.718  16.761  0.00  0.00    +0.000 C 
ATOM      4  C   UNL     1       3.698   4.190  17.709  0.00  0.00    +0.000 A 
ATOM      5  C   UNL     1       3.457   2.876  18.098  0.00  0.00    +0.000 A 
ATOM      6  C   UNL     1       2.408   2.618  18.984  0.00  0.00    +0.000 A 
ATOM      7  C   UNL     1       1.602   3.658  19.455  0.00  0.00    +0.000 A 
ATOM      8  C   UNL     1       1.852   4.977  19.067  0.00  0.00    +0.000 A 
ATOM      9  C   UNL     1       2.912   5.241  18.213  0.00  0.00    +0.000 A 
ATOM     10  C   UNL     1       3.465   6.476  17.623  0.00  0.00    +0.000 C 
ATOM     11  C   UNL     1       3.114   7.755  17.866  0.00  0.00    +0.000 C 
ENDROOT
BRANCH  11  12
ATOM     12  C   UNL     1       2.075   8.168  18.811  0.00  0.00    +0.000 A 
ATOM     13  C   UNL     1       1.160   9.161  18.452  0.00  0.00    +0.000 A 
ATOM     14  C   UNL     1       0.318   9.720  19.415  0.00  0.00    +0.000 A 
ATOM     15  C   UNL     1       0.376   9.293  20.751  0.00  0.00    +0.000 A 
ATOM     16  C   UNL     1       1.237   8.234  21.081  0.00  0.00    +0.000 A 
ATOM     17  C   UNL     1       2.078   7.671  20.117  0.00  0.00    +0.000 A 
BRANCH  15  18
ATOM     18  C   UNL     1      -0.426  10.027  21.812  0.00  0.00    +0.000 C 
ATOM     19  C   UNL     1      -0.122   9.517  23.220  0.00  0.00    +0.000 C 
ATOM     20  C   UNL     1      -0.204  11.541  21.717  0.00  0.00    +0.000 C 
ENDBRANCH  15  18
ENDBRANCH  11  12
BRANCH   3  21
ATOM     21  C   UNL     1       5.617   3.826  15.987  0.00  0.00    +0.000 C 
BRANCH  21  22
ATOM     22  C   UNL     1       7.066   4.279  15.915  0.00  0.00    +0.000 C 
ATOM     23  O   UNL     1       7.538   4.824  14.928  0.00  0.00    +0.000 OA
BRANCH  22  24
ATOM     24  O   UNL     1       7.791   4.108  17.041  0.00  0.00    +0.000 OA
ATOM     25  H   UNL     1       8.698   4.462  16.979  0.00  0.00    +0.000 HD
ENDBRANCH  22  24
ENDBRANCH  21  22
ENDBRANCH   3  21
TORSDOF 5
ENDMDL
MODEL 2
REMARK VINA RESULT:      -8.5      0.973      1.161
REMARK  Name = 
REMARK  8 active torsions:
REMARK  status: ('A' for Active; 'I' for Inactive)
REMARK    1  A    between atoms: C_1  and  C_2
REMARK    2  A    between atoms: C_3  and  C_4
REMARK    3  A    between atoms: C_4  and  C_5
REMARK    4  A    between atoms: C_5  and  O_7
REMARK    5  A    between atoms: C_15  and  C_16
REMARK    6  A    between atoms: C_19  and  C_20
REMARK    7  A    between atoms: C_20  and  C_21
REMARK    8  A    between atoms: C_20  and  C_22
REMARK                            x       y       z     vdW  Elec       q    Type
REMARK                         _______ _______ _______ _____ _____    ______ ____
ROOT
ATOM      1  C   UNL     1       6.241   7.115  16.515  0.00  0.00    +0.000 C 
ATOM      2  C   UNL     1       5.206   6.129  16.943  0.00  0.00    +0.000 C 
ATOM      3  C   UNL     1       5.216   4.781  16.799  0.00  0.00    +0.000 C 
ATOM      4  C   UNL     1       3.924   4.267  17.292  0.00  0.00    +0.000 A 
ATOM      5  C   UNL     1       3.456   2.959  17.345  0.00  0.00    +0.000 A 
ATOM      6  C   UNL     1       2.161   2.726  17.815  0.00  0.00    +0.000 A 
ATOM      7  C   UNL     1       1.344   3.790  18.206  0.00  0.00    +0.000 A 
ATOM      8  C   UNL     1       1.821   5.101  18.158  0.00  0.00    +0.000 A 
ATOM      9  C   UNL     1       3.117   5.334  17.722  0.00  0.00    +0.000 A 
ATOM     10  C   UNL     1       3.936   6.552  17.561  0.00  0.00    +0.000 C 
ATOM     11  C   UNL     1       3.642   7.818  17.919  0.00  0.00    +0.000 C 
ENDROOT
BRANCH  11  12
ATOM     12  C   UNL     1       2.398   8.232  18.569  0.00  0.00    +0.000 A 
ATOM     13  C   UNL     1       1.531   9.114  17.919  0.00  0.00    +0.000 A 
ATOM     14  C   UNL     1       0.466   9.690  18.616  0.00  0.00    +0.000 A 
ATOM     15  C   UNL     1       0.251   9.391  19.970  0.00  0.00    +0.000 A 
ATOM     16  C   UNL     1       1.076   8.436  20.586  0.00  0.00    +0.000 A 
ATOM     17  C   UNL     1       2.141   7.856  19.890  0.00  0.00    +0.000 A 
BRANCH  15  18
ATOM     18  C   UNL     1      -0.806  10.153  20.751  0.00  0.00    +0.000 C 
ATOM     19  C   UNL     1      -0.437  10.301  22.227  0.00  0.00    +0.000 C 
ATOM     20  C   UNL     1      -1.080  11.519  20.113  0.00  0.00    +0.000 C 
ENDBRANCH  15  18
ENDBRANCH  11  12
BRANCH   3  21
ATOM     21  C   UNL     1       6.252   3.890  16.185  0.00  0.00    +0.000 C 
BRANCH  21  22
ATOM     22  C   UNL     1       6.664   4.244  14.766  0.00  0.00    +0.000 C 
ATOM     23  O   UNL     1       7.481   5.117  14.515  0.00  0.00    +0.000 OA
BRANCH  22  24
ATOM     24  O   UNL     1       6.123   3.483  13.790  0.00  0.00    +0.000 OA
ATOM     25  H   UNL     1       6.784   3.083  13.195  0.00  0.00    +0.000 HD
ENDBRANCH  22  24
ENDBRANCH  21  22
ENDBRANCH   3  21
TORSDOF 5
ENDMDL
MODEL 3
REMARK VINA RESULT:      -8.5      1.270      1.603
REMARK  Name = 
REMARK  8 active torsions:
REMARK  status: ('A' for Active; 'I' for Inactive)
REMARK    1  A    between atoms: C_1  and  C_2
REMARK    2  A    between atoms: C_3  and  C_4
REMARK    3  A    between atoms: C_4  and  C_5
REMARK    4  A    between atoms: C_5  and  O_7
REMARK    5  A    between atoms: C_15  and  C_16
REMARK    6  A    between atoms: C_19  and  C_20
REMARK    7  A    between atoms: C_20  and  C_21
REMARK    8  A    between atoms: C_20  and  C_22
REMARK                            x       y       z     vdW  Elec       q    Type
REMARK                         _______ _______ _______ _____ _____    ______ ____
ROOT
ATOM      1  C   UNL     1       4.996   6.946  16.080  0.00  0.00    +0.000 C 
ATOM      2  C   UNL     1       4.387   6.269  17.263  0.00  0.00    +0.000 C 
ATOM      3  C   UNL     1       4.690   5.058  17.790  0.00  0.00    +0.000 C 
ATOM      4  C   UNL     1       3.742   4.797  18.889  0.00  0.00    +0.000 A 
ATOM      5  C   UNL     1       3.641   3.689  19.724  0.00  0.00    +0.000 A 
ATOM      6  C   UNL     1       2.615   3.651  20.672  0.00  0.00    +0.000 A 
ATOM      7  C   UNL     1       1.694   4.698  20.765  0.00  0.00    +0.000 A 
ATOM      8  C   UNL     1       1.803   5.812  19.929  0.00  0.00    +0.000 A 
ATOM      9  C   UNL     1       2.839   5.868  19.009  0.00  0.00    +0.000 A 
ATOM     10  C   UNL     1       3.261   6.865  18.006  0.00  0.00    +0.000 C 
ATOM     11  C   UNL     1       2.769   8.102  17.789  0.00  0.00    +0.000 C 
ENDROOT
BRANCH  11  12
ATOM     12  C   UNL     1       1.679   8.709  18.554  0.00  0.00    +0.000 A 
ATOM     13  C   UNL     1       0.660   9.396  17.890  0.00  0.00    +0.000 A 
ATOM     14  C   UNL     1      -0.252  10.169  18.613  0.00  0.00    +0.000 A 
ATOM     15  C   UNL     1      -0.160  10.262  20.011  0.00  0.00    +0.000 A 
ATOM     16  C   UNL     1       0.813   9.496  20.673  0.00  0.00    +0.000 A 
ATOM     17  C   UNL     1       1.725   8.721  19.950  0.00  0.00    +0.000 A 
BRANCH  15  18
ATOM     18  C   UNL     1      -1.053  11.235  20.760  0.00  0.00    +0.000 C 
ATOM     19  C   UNL     1      -0.253  12.171  21.666  0.00  0.00    +0.000 C 
ATOM     20  C   UNL     1      -1.935  12.030  19.791  0.00  0.00    +0.000 C 
ENDBRANCH  15  18
ENDBRANCH  11  12
BRANCH   3  21
ATOM     21  C   UNL     1       5.713   4.053  17.357  0.00  0.00    +0.000 C 
BRANCH  21  22
ATOM     22  C   UNL     1       7.161   4.495  17.478  0.00  0.00    +0.000 C 
ATOM     23  O   UNL     1       7.700   4.698  18.556  0.00  0.00    +0.000 OA
BRANCH  22  24
ATOM     24  O   UNL     1       7.847   4.585  16.319  0.00  0.00    +0.000 OA
ATOM     25  H   UNL     1       8.775   4.862  16.434  0.00  0.00    +0.000 HD
ENDBRANCH  22  24
ENDBRANCH  21  22
ENDBRANCH   3  21
TORSDOF 5
ENDMDL
MODEL 4
REMARK VINA RESULT:      -8.2      0.479      1.058
REMARK  Name = 
REMARK  8 active torsions:
REMARK  status: ('A' for Active; 'I' for Inactive)
REMARK    1  A    between atoms: C_1  and  C_2
REMARK    2  A    between atoms: C_3  and  C_4
REMARK    3  A    between atoms: C_4  and  C_5
REMARK    4  A    between atoms: C_5  and  O_7
REMARK    5  A    between atoms: C_15  and  C_16
REMARK    6  A    between atoms: C_19  and  C_20
REMARK    7  A    between atoms: C_20  and  C_21
REMARK    8  A    between atoms: C_20  and  C_22
REMARK                            x       y       z     vdW  Elec       q    Type
REMARK                         _______ _______ _______ _____ _____    ______ ____
ROOT
ATOM      1  C   UNL     1       5.201   6.741  15.765  0.00  0.00    +0.000 C 
ATOM      2  C   UNL     1       4.465   5.856  16.716  0.00  0.00    +0.000 C 
ATOM      3  C   UNL     1       4.550   4.510  16.854  0.00  0.00    +0.000 C 
ATOM      4  C   UNL     1       3.551   4.097  17.857  0.00  0.00    +0.000 A 
ATOM      5  C   UNL     1       3.251   2.825  18.332  0.00  0.00    +0.000 A 
ATOM      6  C   UNL     1       2.214   2.680  19.259  0.00  0.00    +0.000 A 
ATOM      7  C   UNL     1       1.481   3.791  19.684  0.00  0.00    +0.000 A 
ATOM      8  C   UNL     1       1.791   5.067  19.210  0.00  0.00    +0.000 A 
ATOM      9  C   UNL     1       2.839   5.219  18.315  0.00  0.00    +0.000 A 
ATOM     10  C   UNL     1       3.441   6.384  17.637  0.00  0.00    +0.000 C 
ATOM     11  C   UNL     1       3.168   7.693  17.809  0.00  0.00    +0.000 C 
ENDROOT
BRANCH  11  12
ATOM     12  C   UNL     1       2.180   8.220  18.753  0.00  0.00    +0.000 A 
ATOM     13  C   UNL     1       1.359   9.286  18.380  0.00  0.00    +0.000 A 
ATOM     14  C   UNL     1       0.581   9.941  19.338  0.00  0.00    +0.000 A 
ATOM     15  C   UNL     1       0.611   9.536  20.682  0.00  0.00    +0.000 A 
ATOM     16  C   UNL     1       1.372   8.407  21.027  0.00  0.00    +0.000 A 
ATOM     17  C   UNL     1       2.149   7.750  20.068  0.00  0.00    +0.000 A 
BRANCH  15  18
ATOM     18  C   UNL     1      -0.109  10.363  21.733  0.00  0.00    +0.000 C 
ATOM     19  C   UNL     1      -1.226  11.214  21.130  0.00  0.00    +0.000 C 
ATOM     20  C   UNL     1      -0.644   9.472  22.860  0.00  0.00    +0.000 C 
ENDBRANCH  15  18
ENDBRANCH  11  12
BRANCH   3  21
ATOM     21  C   UNL     1       5.398   3.523  16.112  0.00  0.00    +0.000 C 
BRANCH  21  22
ATOM     22  C   UNL     1       6.725   4.054  15.595  0.00  0.00    +0.000 C 
ATOM     23  O   UNL     1       7.666   4.305  16.333  0.00  0.00    +0.000 OA
BRANCH  22  24
ATOM     24  O   UNL     1       6.830   4.166  14.254  0.00  0.00    +0.000 OA
ATOM     25  H   UNL     1       7.742   4.071  13.924  0.00  0.00    +0.000 HD
ENDBRANCH  22  24
ENDBRANCH  21  22
ENDBRANCH   3  21
TORSDOF 5
ENDMDL
MODEL 5
REMARK VINA RESULT:      -8.1      1.644      2.193
REMARK  Name = 
REMARK  8 active torsions:
REMARK  status: ('A' for Active; 'I' for Inactive)
REMARK    1  A    between atoms: C_1  and  C_2
REMARK    2  A    between atoms: C_3  and  C_4
REMARK    3  A    between atoms: C_4  and  C_5
REMARK    4  A    between atoms: C_5  and  O_7
REMARK    5  A    between atoms: C_15  and  C_16
REMARK    6  A    between atoms: C_19  and  C_20
REMARK    7  A    between atoms: C_20  and  C_21
REMARK    8  A    between atoms: C_20  and  C_22
REMARK                            x       y       z     vdW  Elec       q    Type
REMARK                         _______ _______ _______ _____ _____    ______ ____
ROOT
ATOM      1  C   UNL     1       4.929   7.033  15.992  0.00  0.00    +0.000 C 
ATOM      2  C   UNL     1       4.295   6.505  17.237  0.00  0.00    +0.000 C 
ATOM      3  C   UNL     1       4.567   5.353  17.897  0.00  0.00    +0.000 C 
ATOM      4  C   UNL     1       3.605   5.236  19.009  0.00  0.00    +0.000 A 
ATOM      5  C   UNL     1       3.473   4.230  19.961  0.00  0.00    +0.000 A 
ATOM      6  C   UNL     1       2.439   4.319  20.896  0.00  0.00    +0.000 A 
ATOM      7  C   UNL     1       1.541   5.390  20.863  0.00  0.00    +0.000 A 
ATOM      8  C   UNL     1       1.682   6.401  19.911  0.00  0.00    +0.000 A 
ATOM      9  C   UNL     1       2.726   6.333  19.000  0.00  0.00    +0.000 A 
ATOM     10  C   UNL     1       3.178   7.204  17.898  0.00  0.00    +0.000 C 
ATOM     11  C   UNL     1       2.716   8.419  17.541  0.00  0.00    +0.000 C 
ENDROOT
BRANCH  11  12
ATOM     12  C   UNL     1       1.633   9.130  18.222  0.00  0.00    +0.000 A 
ATOM     13  C   UNL     1       0.372   9.218  17.627  0.00  0.00    +0.000 A 
ATOM     14  C   UNL     1      -0.593  10.080  18.152  0.00  0.00    +0.000 A 
ATOM     15  C   UNL     1      -0.313  10.864  19.282  0.00  0.00    +0.000 A 
ATOM     16  C   UNL     1       0.926  10.701  19.923  0.00  0.00    +0.000 A 
ATOM     17  C   UNL     1       1.892   9.837  19.399  0.00  0.00    +0.000 A 
BRANCH  15  18
ATOM     18  C   UNL     1      -1.312  11.914  19.736  0.00  0.00    +0.000 C 
ATOM     19  C   UNL     1      -2.642  11.805  18.989  0.00  0.00    +0.000 C 
ATOM     20  C   UNL     1      -1.527  11.848  21.252  0.00  0.00    +0.000 C 
ENDBRANCH  15  18
ENDBRANCH  11  12
BRANCH   3  21
ATOM     21  C   UNL     1       5.570   4.285  17.589  0.00  0.00    +0.000 C 
BRANCH  21  22
ATOM     22  C   UNL     1       7.014   4.624  17.918  0.00  0.00    +0.000 C 
ATOM     23  O   UNL     1       7.373   4.963  19.036  0.00  0.00    +0.000 OA
BRANCH  22  24
ATOM     24  O   UNL     1       7.900   4.460  16.913  0.00  0.00    +0.000 OA
ATOM     25  H   UNL     1       8.806   4.741  17.140  0.00  0.00    +0.000 HD
ENDBRANCH  22  24
ENDBRANCH  21  22
ENDBRANCH   3  21
TORSDOF 5
ENDMDL
MODEL 6
REMARK VINA RESULT:      -8.1      3.395      7.833
REMARK  Name = 
REMARK  8 active torsions:
REMARK  status: ('A' for Active; 'I' for Inactive)
REMARK    1  A    between atoms: C_1  and  C_2
REMARK    2  A    between atoms: C_3  and  C_4
REMARK    3  A    between atoms: C_4  and  C_5
REMARK    4  A    between atoms: C_5  and  O_7
REMARK    5  A    between atoms: C_15  and  C_16
REMARK    6  A    between atoms: C_19  and  C_20
REMARK    7  A    between atoms: C_20  and  C_21
REMARK    8  A    between atoms: C_20  and  C_22
REMARK                            x       y       z     vdW  Elec       q    Type
REMARK                         _______ _______ _______ _____ _____    ______ ____
ROOT
ATOM      1  C   UNL     1       4.168   2.038  19.963  0.00  0.00    +0.000 C 
ATOM      2  C   UNL     1       3.836   3.453  19.625  0.00  0.00    +0.000 C 
ATOM      3  C   UNL     1       3.058   4.324  20.314  0.00  0.00    +0.000 C 
ATOM      4  C   UNL     1       2.958   5.563  19.520  0.00  0.00    +0.000 A 
ATOM      5  C   UNL     1       2.267   6.737  19.798  0.00  0.00    +0.000 A 
ATOM      6  C   UNL     1       2.284   7.768  18.854  0.00  0.00    +0.000 A 
ATOM      7  C   UNL     1       2.967   7.613  17.645  0.00  0.00    +0.000 A 
ATOM      8  C   UNL     1       3.666   6.435  17.373  0.00  0.00    +0.000 A 
ATOM      9  C   UNL     1       3.678   5.422  18.320  0.00  0.00    +0.000 A 
ATOM     10  C   UNL     1       4.304   4.087  18.379  0.00  0.00    +0.000 C 
ATOM     11  C   UNL     1       5.165   3.521  17.509  0.00  0.00    +0.000 C 
ENDROOT
BRANCH  11  12
ATOM     12  C   UNL     1       5.662   4.166  16.292  0.00  0.00    +0.000 A 
ATOM     13  C   UNL     1       5.019   3.943  15.072  0.00  0.00    +0.000 A 
ATOM     14  C   UNL     1       5.614   4.362  13.879  0.00  0.00    +0.000 A 
ATOM     15  C   UNL     1       6.857   5.014  13.891  0.00  0.00    +0.000 A 
ATOM     16  C   UNL     1       7.449   5.311  15.129  0.00  0.00    +0.000 A 
ATOM     17  C   UNL     1       6.854   4.894  16.323  0.00  0.00    +0.000 A 
BRANCH  15  18
ATOM     18  C   UNL     1       7.562   5.311  12.579  0.00  0.00    +0.000 C 
ATOM     19  C   UNL     1       9.001   5.782  12.791  0.00  0.00    +0.000 C 
ATOM     20  C   UNL     1       7.515   4.098  11.642  0.00  0.00    +0.000 C 
ENDBRANCH  15  18
ENDBRANCH  11  12
BRANCH   3  21
ATOM     21  C   UNL     1       2.315   4.134  21.601  0.00  0.00    +0.000 C 
BRANCH  21  22
ATOM     22  C   UNL     1       1.282   3.020  21.606  0.00  0.00    +0.000 C 
ATOM     23  O   UNL     1       1.185   2.216  22.521  0.00  0.00    +0.000 OA
BRANCH  22  24
ATOM     24  O   UNL     1       0.424   3.010  20.564  0.00  0.00    +0.000 OA
ATOM     25  H   UNL     1       0.189   3.900  20.243  0.00  0.00    +0.000 HD
ENDBRANCH  22  24
ENDBRANCH  21  22
ENDBRANCH   3  21
TORSDOF 5
ENDMDL
MODEL 7
REMARK VINA RESULT:      -7.9      1.153      1.541
REMARK  Name = 
REMARK  8 active torsions:
REMARK  status: ('A' for Active; 'I' for Inactive)
REMARK    1  A    between atoms: C_1  and  C_2
REMARK    2  A    between atoms: C_3  and  C_4
REMARK    3  A    between atoms: C_4  and  C_5
REMARK    4  A    between atoms: C_5  and  O_7
REMARK    5  A    between atoms: C_15  and  C_16
REMARK    6  A    between atoms: C_19  and  C_20
REMARK    7  A    between atoms: C_20  and  C_21
REMARK    8  A    between atoms: C_20  and  C_22
REMARK                            x       y       z     vdW  Elec       q    Type
REMARK                         _______ _______ _______ _____ _____    ______ ____
ROOT
ATOM      1  C   UNL     1       5.898   6.837  15.695  0.00  0.00    +0.000 C 
ATOM      2  C   UNL     1       4.975   5.870  16.360  0.00  0.00    +0.000 C 
ATOM      3  C   UNL     1       4.955   4.518  16.258  0.00  0.00    +0.000 C 
ATOM      4  C   UNL     1       3.794   4.028  17.025  0.00  0.00    +0.000 A 
ATOM      5  C   UNL     1       3.347   2.725  17.214  0.00  0.00    +0.000 A 
ATOM      6  C   UNL     1       2.178   2.514  17.951  0.00  0.00    +0.000 A 
ATOM      7  C   UNL     1       1.461   3.595  18.471  0.00  0.00    +0.000 A 
ATOM      8  C   UNL     1       1.918   4.901  18.285  0.00  0.00    +0.000 A 
ATOM      9  C   UNL     1       3.094   5.113  17.581  0.00  0.00    +0.000 A 
ATOM     10  C   UNL     1       3.862   6.319  17.216  0.00  0.00    +0.000 C 
ATOM     11  C   UNL     1       3.649   7.598  17.588  0.00  0.00    +0.000 C 
ENDROOT
BRANCH  11  12
ATOM     12  C   UNL     1       2.568   8.039  18.470  0.00  0.00    +0.000 A 
ATOM     13  C   UNL     1       1.755   9.111  18.096  0.00  0.00    +0.000 A 
ATOM     14  C   UNL     1       0.878   9.683  19.021  0.00  0.00    +0.000 A 
ATOM     15  C   UNL     1       0.800   9.189  20.332  0.00  0.00    +0.000 A 
ATOM     16  C   UNL     1       1.557   8.055  20.670  0.00  0.00    +0.000 A 
ATOM     17  C   UNL     1       2.433   7.481  19.744  0.00  0.00    +0.000 A 
BRANCH  15  18
ATOM     18  C   UNL     1      -0.032   9.927  21.366  0.00  0.00    +0.000 C 
ATOM     19  C   UNL     1      -1.140  10.762  20.724  0.00  0.00    +0.000 C 
ATOM     20  C   UNL     1      -0.608   8.956  22.404  0.00  0.00    +0.000 C 
ENDBRANCH  15  18
ENDBRANCH  11  12
BRANCH   3  21
ATOM     21  C   UNL     1       5.839   3.603  15.468  0.00  0.00    +0.000 C 
BRANCH  21  22
ATOM     22  C   UNL     1       5.930   3.900  13.981  0.00  0.00    +0.000 C 
ATOM     23  O   UNL     1       6.976   4.224  13.437  0.00  0.00    +0.000 OA
BRANCH  22  24
ATOM     24  O   UNL     1       4.795   3.714  13.274  0.00  0.00    +0.000 OA
ATOM     25  H   UNL     1       4.504   2.784  13.239  0.00  0.00    +0.000 HD
ENDBRANCH  22  24
ENDBRANCH  21  22
ENDBRANCH   3  21
TORSDOF 5
ENDMDL
MODEL 8
REMARK VINA RESULT:      -7.9      5.173      9.148
REMARK  Name = 
REMARK  8 active torsions:
REMARK  status: ('A' for Active; 'I' for Inactive)
REMARK    1  A    between atoms: C_1  and  C_2
REMARK    2  A    between atoms: C_3  and  C_4
REMARK    3  A    between atoms: C_4  and  C_5
REMARK    4  A    between atoms: C_5  and  O_7
REMARK    5  A    between atoms: C_15  and  C_16
REMARK    6  A    between atoms: C_19  and  C_20
REMARK    7  A    between atoms: C_20  and  C_21
REMARK    8  A    between atoms: C_20  and  C_22
REMARK                            x       y       z     vdW  Elec       q    Type
REMARK                         _______ _______ _______ _____ _____    ______ ____
ROOT
ATOM      1  C   UNL     1      -0.681  12.210  22.213  0.00  0.00    +0.000 C 
ATOM      2  C   UNL     1      -1.152  11.819  20.852  0.00  0.00    +0.000 C 
ATOM      3  C   UNL     1      -2.209  12.303  20.154  0.00  0.00    +0.000 C 
ATOM      4  C   UNL     1      -2.315  11.525  18.905  0.00  0.00    +0.000 A 
ATOM      5  C   UNL     1      -3.239  11.637  17.871  0.00  0.00    +0.000 A 
ATOM      6  C   UNL     1      -3.163  10.742  16.801  0.00  0.00    +0.000 A 
ATOM      7  C   UNL     1      -2.190   9.739  16.780  0.00  0.00    +0.000 A 
ATOM      8  C   UNL     1      -1.260   9.635  17.817  0.00  0.00    +0.000 A 
ATOM      9  C   UNL     1      -1.312  10.542  18.865  0.00  0.00    +0.000 A 
ATOM     10  C   UNL     1      -0.505  10.738  20.086  0.00  0.00    +0.000 C 
ATOM     11  C   UNL     1       0.624  10.103  20.460  0.00  0.00    +0.000 C 
ENDROOT
BRANCH  11  12
ATOM     12  C   UNL     1       1.288   9.058  19.680  0.00  0.00    +0.000 A 
ATOM     13  C   UNL     1       1.514   7.801  20.247  0.00  0.00    +0.000 A 
ATOM     14  C   UNL     1       2.343   6.879  19.603  0.00  0.00    +0.000 A 
ATOM     15  C   UNL     1       2.955   7.200  18.382  0.00  0.00    +0.000 A 
ATOM     16  C   UNL     1       2.649   8.431  17.779  0.00  0.00    +0.000 A 
ATOM     17  C   UNL     1       1.818   9.353  18.422  0.00  0.00    +0.000 A 
BRANCH  15  18
ATOM     18  C   UNL     1       3.981   6.254  17.783  0.00  0.00    +0.000 C 
ATOM     19  C   UNL     1       3.400   4.864  17.522  0.00  0.00    +0.000 C 
ATOM     20  C   UNL     1       4.591   6.842  16.505  0.00  0.00    +0.000 C 
ENDBRANCH  15  18
ENDBRANCH  11  12
BRANCH   3  21
ATOM     21  C   UNL     1      -3.201  13.361  20.527  0.00  0.00    +0.000 C 
BRANCH  21  22
ATOM     22  C   UNL     1      -4.470  12.864  21.199  0.00  0.00    +0.000 C 
ATOM     23  O   UNL     1      -4.473  12.369  22.317  0.00  0.00    +0.000 OA
BRANCH  22  24
ATOM     24  O   UNL     1      -5.615  13.065  20.513  0.00  0.00    +0.000 OA
ATOM     25  H   UNL     1      -5.499  13.046  19.545  0.00  0.00    +0.000 HD
ENDBRANCH  22  24
ENDBRANCH  21  22
ENDBRANCH   3  21
TORSDOF 5
ENDMDL
MODEL 9
REMARK VINA RESULT:      -7.7      5.237      9.252
REMARK  Name = 
REMARK  8 active torsions:
REMARK  status: ('A' for Active; 'I' for Inactive)
REMARK    1  A    between atoms: C_1  and  C_2
REMARK    2  A    between atoms: C_3  and  C_4
REMARK    3  A    between atoms: C_4  and  C_5
REMARK    4  A    between atoms: C_5  and  O_7
REMARK    5  A    between atoms: C_15  and  C_16
REMARK    6  A    between atoms: C_19  and  C_20
REMARK    7  A    between atoms: C_20  and  C_21
REMARK    8  A    between atoms: C_20  and  C_22
REMARK                            x       y       z     vdW  Elec       q    Type
REMARK                         _______ _______ _______ _____ _____    ______ ____
ROOT
ATOM      1  C   UNL     1      -0.498  12.661  22.123  0.00  0.00    +0.000 C 
ATOM      2  C   UNL     1      -1.119  12.150  20.866  0.00  0.00    +0.000 C 
ATOM      3  C   UNL     1      -2.257  12.567  20.257  0.00  0.00    +0.000 C 
ATOM      4  C   UNL     1      -2.499  11.681  19.103  0.00  0.00    +0.000 A 
ATOM      5  C   UNL     1      -3.538  11.699  18.179  0.00  0.00    +0.000 A 
ATOM      6  C   UNL     1      -3.577  10.712  17.190  0.00  0.00    +0.000 A 
ATOM      7  C   UNL     1      -2.600   9.714  17.143  0.00  0.00    +0.000 A 
ATOM      8  C   UNL     1      -1.554   9.705  18.068  0.00  0.00    +0.000 A 
ATOM      9  C   UNL     1      -1.494  10.701  19.031  0.00  0.00    +0.000 A 
ATOM     10  C   UNL     1      -0.553  11.007  20.126  0.00  0.00    +0.000 C 
ATOM     11  C   UNL     1       0.621  10.410  20.420  0.00  0.00    +0.000 C 
ENDROOT
BRANCH  11  12
ATOM     12  C   UNL     1       1.203   9.302  19.662  0.00  0.00    +0.000 A 
ATOM     13  C   UNL     1       1.456   8.082  20.293  0.00  0.00    +0.000 A 
ATOM     14  C   UNL     1       2.215   7.103  19.648  0.00  0.00    +0.000 A 
ATOM     15  C   UNL     1       2.729   7.329  18.361  0.00  0.00    +0.000 A 
ATOM     16  C   UNL     1       2.393   8.523  17.703  0.00  0.00    +0.000 A 
ATOM     17  C   UNL     1       1.632   9.502  18.347  0.00  0.00    +0.000 A 
BRANCH  15  18
ATOM     18  C   UNL     1       3.688   6.323  17.747  0.00  0.00    +0.000 C 
ATOM     19  C   UNL     1       4.748   6.996  16.875  0.00  0.00    +0.000 C 
ATOM     20  C   UNL     1       4.339   5.453  18.829  0.00  0.00    +0.000 C 
ENDBRANCH  15  18
ENDBRANCH  11  12
BRANCH   3  21
ATOM     21  C   UNL     1      -3.212  13.651  20.651  0.00  0.00    +0.000 C 
BRANCH  21  22
ATOM     22  C   UNL     1      -4.138  13.322  21.811  0.00  0.00    +0.000 C 
ATOM     23  O   UNL     1      -4.939  12.400  21.773  0.00  0.00    +0.000 OA
BRANCH  22  24
ATOM     24  O   UNL     1      -3.974  14.070  22.923  0.00  0.00    +0.000 OA
ATOM     25  H   UNL     1      -4.393  14.948  22.868  0.00  0.00    +0.000 HD
ENDBRANCH  22  24
ENDBRANCH  21  22
ENDBRANCH   3  21
TORSDOF 5
ENDMDL
