MODEL 1
REMARK VINA RESULT:      -7.1      0.000      0.000
REMARK  Name = 
REMARK  11 active torsions:
REMARK  status: ('A' for Active; 'I' for Inactive)
REMARK    1  A    between atoms: C_1  and  C_2
REMARK    2  A    between atoms: C_2  and  O_3
REMARK    3  A    between atoms: O_3  and  C_4
REMARK    4  A    between atoms: C_4  and  C_6
REMARK    5  A    between atoms: C_7  and  C_8
REMARK    6  A    between atoms: C_8  and  C_9
REMARK    7  A    between atoms: C_12  and  S_13
REMARK    8  A    between atoms: S_13  and  N_16
REMARK    9  A    between atoms: C_20  and  O_22
REMARK   10  A    between atoms: O_22  and  C_23
REMARK   11  A    between atoms: C_23  and  C_24
REMARK                            x       y       z     vdW  Elec       q    Type
REMARK                         _______ _______ _______ _____ _____    ______ ____
ROOT
ATOM      1  S   UNL     1       2.246   4.845  20.052  0.00  0.00    +0.000 S 
ATOM      2  O   UNL     1       2.603   4.799  21.453  0.00  0.00    +0.000 OA
ATOM      3  O   UNL     1       1.177   4.034  19.512  0.00  0.00    +0.000 OA
ENDROOT
BRANCH   1   4
ATOM      4  N   UNL     1       3.634   4.524  19.140  0.00  0.00    +0.000 NA
ATOM      5  C   UNL     1       4.684   5.588  19.100  0.00  0.00    +0.000 C 
ATOM      6  C   UNL     1       6.011   4.946  18.657  0.00  0.00    +0.000 C 
ATOM      7  N   UNL     1       5.863   4.204  17.398  0.00  0.00    +0.000 N 
ATOM      8  C   UNL     1       6.791   4.367  16.389  0.00  0.00    +0.000 C 
ATOM      9  O   UNL     1       7.763   5.108  16.478  0.00  0.00    +0.000 OA
ATOM     10  C   UNL     1       4.719   3.283  17.324  0.00  0.00    +0.000 C 
ATOM     11  C   UNL     1       3.416   3.972  17.771  0.00  0.00    +0.000 C 
BRANCH   8  12
ATOM     12  O   UNL     1       6.459   3.681  15.265  0.00  0.00    +0.000 OA
BRANCH  12  13
ATOM     13  C   UNL     1       6.513   4.429  14.046  0.00  0.00    +0.000 C 
BRANCH  13  14
ATOM     14  C   UNL     1       5.927   3.662  12.890  0.00  0.00    +0.000 A 
ATOM     15  C   UNL     1       6.640   2.612  12.292  0.00  0.00    +0.000 A 
ATOM     16  C   UNL     1       6.081   1.886  11.239  0.00  0.00    +0.000 A 
ATOM     17  C   UNL     1       4.808   2.202  10.771  0.00  0.00    +0.000 A 
ATOM     18  C   UNL     1       4.090   3.243  11.357  0.00  0.00    +0.000 A 
ATOM     19  C   UNL     1       4.648   3.973  12.410  0.00  0.00    +0.000 A 
ENDBRANCH  13  14
ENDBRANCH  12  13
ENDBRANCH   8  12
ENDBRANCH   1   4
BRANCH   1  23
ATOM     20  C   UNL     1       1.419   9.239  19.075  0.00  0.00    +0.000 A 
ATOM     21  C   UNL     1       1.843   8.359  18.066  0.00  0.00    +0.000 A 
ATOM     22  C   UNL     1       2.103   7.018  18.356  0.00  0.00    +0.000 A 
ATOM     23  C   UNL     1       1.927   6.552  19.659  0.00  0.00    +0.000 A 
ATOM     24  C   UNL     1       1.488   7.412  20.672  0.00  0.00    +0.000 A 
ATOM     25  C   UNL     1       1.231   8.751  20.376  0.00  0.00    +0.000 A 
BRANCH  20  26
ATOM     26  C   UNL     1       1.130  10.687  18.755  0.00  0.00    +0.000 C 
BRANCH  26  28
ATOM     27  C   UNL     1      -1.151  10.111  17.886  0.00  0.00    +0.000 C 
ATOM     28  C   UNL     1      -0.328  10.951  18.528  0.00  0.00    +0.000 C 
BRANCH  27  29
ATOM     29  C   UNL     1      -2.598  10.393  17.832  0.00  0.00    +0.000 C 
ATOM     30  O   UNL     1      -3.453   9.602  17.455  0.00  0.00    +0.000 OA
BRANCH  29  31
ATOM     31  O   UNL     1      -2.780  11.699  18.143  0.00  0.00    +0.000 OA
BRANCH  31  33
ATOM     32  C   UNL     1      -5.097  12.246  18.321  0.00  0.00    +0.000 C 
ATOM     33  C   UNL     1      -3.823  11.948  19.096  0.00  0.00    +0.000 C 
ENDBRANCH  31  33
ENDBRANCH  29  31
ENDBRANCH  27  29
ENDBRANCH  26  28
ENDBRANCH  20  26
ENDBRANCH   1  23
TORSDOF 10
ENDMDL
MODEL 2
REMARK VINA RESULT:      -7.1      5.089     10.316
REMARK  Name = 
REMARK  11 active torsions:
REMARK  status: ('A' for Active; 'I' for Inactive)
REMARK    1  A    between atoms: C_1  and  C_2
REMARK    2  A    between atoms: C_2  and  O_3
REMARK    3  A    between atoms: O_3  and  C_4
REMARK    4  A    between atoms: C_4  and  C_6
REMARK    5  A    between atoms: C_7  and  C_8
REMARK    6  A    between atoms: C_8  and  C_9
REMARK    7  A    between atoms: C_12  and  S_13
REMARK    8  A    between atoms: S_13  and  N_16
REMARK    9  A    between atoms: C_20  and  O_22
REMARK   10  A    between atoms: O_22  and  C_23
REMARK   11  A    between atoms: C_23  and  C_24
REMARK                            x       y       z     vdW  Elec       q    Type
REMARK                         _______ _______ _______ _____ _____    ______ ____
ROOT
ATOM      1  S   UNL     1      -0.078  11.119  19.569  0.00  0.00    +0.000 S 
ATOM      2  O   UNL     1      -0.807  11.378  18.346  0.00  0.00    +0.000 OA
ATOM      3  O   UNL     1      -0.750  10.988  20.843  0.00  0.00    +0.000 OA
ENDROOT
BRANCH   1   4
ATOM      4  N   UNL     1       1.107  12.314  19.743  0.00  0.00    +0.000 NA
ATOM      5  C   UNL     1       0.925  13.296  20.855  0.00  0.00    +0.000 C 
ATOM      6  C   UNL     1       2.284  13.959  21.146  0.00  0.00    +0.000 C 
ATOM      7  N   UNL     1       2.880  14.534  19.932  0.00  0.00    +0.000 N 
ATOM      8  C   UNL     1       3.411  15.807  19.961  0.00  0.00    +0.000 C 
ATOM      9  O   UNL     1       3.422  16.512  20.963  0.00  0.00    +0.000 OA
ATOM     10  C   UNL     1       2.901  13.658  18.750  0.00  0.00    +0.000 C 
ATOM     11  C   UNL     1       1.521  13.024  18.498  0.00  0.00    +0.000 C 
BRANCH   8  12
ATOM     12  O   UNL     1       3.838  16.218  18.739  0.00  0.00    +0.000 OA
BRANCH  12  13
ATOM     13  C   UNL     1       5.138  16.818  18.708  0.00  0.00    +0.000 C 
BRANCH  13  14
ATOM     14  C   UNL     1       6.233  15.787  18.783  0.00  0.00    +0.000 A 
ATOM     15  C   UNL     1       6.998  15.637  19.949  0.00  0.00    +0.000 A 
ATOM     16  C   UNL     1       7.994  14.662  20.023  0.00  0.00    +0.000 A 
ATOM     17  C   UNL     1       8.238  13.830  18.933  0.00  0.00    +0.000 A 
ATOM     18  C   UNL     1       7.485  13.969  17.769  0.00  0.00    +0.000 A 
ATOM     19  C   UNL     1       6.489  14.945  17.692  0.00  0.00    +0.000 A 
ENDBRANCH  13  14
ENDBRANCH  12  13
ENDBRANCH   8  12
ENDBRANCH   1   4
BRANCH   1  23
ATOM     20  C   UNL     1       2.437   7.360  18.866  0.00  0.00    +0.000 A 
ATOM     21  C   UNL     1       2.203   8.260  17.814  0.00  0.00    +0.000 A 
ATOM     22  C   UNL     1       1.432   9.407  18.018  0.00  0.00    +0.000 A 
ATOM     23  C   UNL     1       0.902   9.661  19.283  0.00  0.00    +0.000 A 
ATOM     24  C   UNL     1       1.141   8.783  20.347  0.00  0.00    +0.000 A 
ATOM     25  C   UNL     1       1.912   7.639  20.136  0.00  0.00    +0.000 A 
BRANCH  20  26
ATOM     26  C   UNL     1       3.279   6.126  18.644  0.00  0.00    +0.000 C 
BRANCH  26  28
ATOM     27  C   UNL     1       5.606   5.903  17.735  0.00  0.00    +0.000 C 
ATOM     28  C   UNL     1       4.342   6.327  17.606  0.00  0.00    +0.000 C 
BRANCH  27  29
ATOM     29  C   UNL     1       6.544   6.024  16.603  0.00  0.00    +0.000 C 
ATOM     30  O   UNL     1       7.602   6.639  16.631  0.00  0.00    +0.000 OA
BRANCH  29  31
ATOM     31  O   UNL     1       5.964   5.455  15.519  0.00  0.00    +0.000 OA
BRANCH  31  33
ATOM     32  C   UNL     1       6.004   3.882  13.723  0.00  0.00    +0.000 C 
ATOM     33  C   UNL     1       6.852   4.674  14.706  0.00  0.00    +0.000 C 
ENDBRANCH  31  33
ENDBRANCH  29  31
ENDBRANCH  27  29
ENDBRANCH  26  28
ENDBRANCH  20  26
ENDBRANCH   1  23
TORSDOF 10
ENDMDL
MODEL 3
REMARK VINA RESULT:      -7.1      0.799      1.638
REMARK  Name = 
REMARK  11 active torsions:
REMARK  status: ('A' for Active; 'I' for Inactive)
REMARK    1  A    between atoms: C_1  and  C_2
REMARK    2  A    between atoms: C_2  and  O_3
REMARK    3  A    between atoms: O_3  and  C_4
REMARK    4  A    between atoms: C_4  and  C_6
REMARK    5  A    between atoms: C_7  and  C_8
REMARK    6  A    between atoms: C_8  and  C_9
REMARK    7  A    between atoms: C_12  and  S_13
REMARK    8  A    between atoms: S_13  and  N_16
REMARK    9  A    between atoms: C_20  and  O_22
REMARK   10  A    between atoms: O_22  and  C_23
REMARK   11  A    between atoms: C_23  and  C_24
REMARK                            x       y       z     vdW  Elec       q    Type
REMARK                         _______ _______ _______ _____ _____    ______ ____
ROOT
ATOM      1  S   UNL     1       2.096   4.905  20.083  0.00  0.00    +0.000 S 
ATOM      2  O   UNL     1       2.383   4.784  21.495  0.00  0.00    +0.000 OA
ATOM      3  O   UNL     1       1.031   4.155  19.454  0.00  0.00    +0.000 OA
ENDROOT
BRANCH   1   4
ATOM      4  N   UNL     1       3.518   4.580  19.224  0.00  0.00    +0.000 NA
ATOM      5  C   UNL     1       4.583   5.629  19.248  0.00  0.00    +0.000 C 
ATOM      6  C   UNL     1       5.918   4.975  18.850  0.00  0.00    +0.000 C 
ATOM      7  N   UNL     1       5.814   4.258  17.572  0.00  0.00    +0.000 N 
ATOM      8  C   UNL     1       6.786   4.425  16.606  0.00  0.00    +0.000 C 
ATOM      9  O   UNL     1       7.764   5.150  16.749  0.00  0.00    +0.000 OA
ATOM     10  C   UNL     1       4.661   3.356  17.434  0.00  0.00    +0.000 C 
ATOM     11  C   UNL     1       3.350   4.055  17.838  0.00  0.00    +0.000 C 
BRANCH   8  12
ATOM     12  O   UNL     1       6.493   3.764  15.457  0.00  0.00    +0.000 OA
BRANCH  12  13
ATOM     13  C   UNL     1       6.195   4.591  14.327  0.00  0.00    +0.000 C 
BRANCH  13  14
ATOM     14  C   UNL     1       5.814   3.775  13.120  0.00  0.00    +0.000 A 
ATOM     15  C   UNL     1       4.544   3.904  12.540  0.00  0.00    +0.000 A 
ATOM     16  C   UNL     1       4.205   3.165  11.405  0.00  0.00    +0.000 A 
ATOM     17  C   UNL     1       5.129   2.290  10.840  0.00  0.00    +0.000 A 
ATOM     18  C   UNL     1       6.395   2.153  11.408  0.00  0.00    +0.000 A 
ATOM     19  C   UNL     1       6.736   2.890  12.545  0.00  0.00    +0.000 A 
ENDBRANCH  13  14
ENDBRANCH  12  13
ENDBRANCH   8  12
ENDBRANCH   1   4
BRANCH   1  23
ATOM     20  C   UNL     1       1.473   9.355  19.208  0.00  0.00    +0.000 A 
ATOM     21  C   UNL     1       1.272   8.855  20.504  0.00  0.00    +0.000 A 
ATOM     22  C   UNL     1       1.454   7.497  20.780  0.00  0.00    +0.000 A 
ATOM     23  C   UNL     1       1.851   6.637  19.755  0.00  0.00    +0.000 A 
ATOM     24  C   UNL     1       2.074   7.123  18.462  0.00  0.00    +0.000 A 
ATOM     25  C   UNL     1       1.889   8.480  18.193  0.00  0.00    +0.000 A 
BRANCH  20  26
ATOM     26  C   UNL     1       1.284  10.825  18.917  0.00  0.00    +0.000 C 
BRANCH  26  28
ATOM     27  C   UNL     1      -1.177  11.222  19.193  0.00  0.00    +0.000 C 
ATOM     28  C   UNL     1      -0.091  11.144  18.412  0.00  0.00    +0.000 C 
BRANCH  27  29
ATOM     29  C   UNL     1      -2.461  11.677  18.628  0.00  0.00    +0.000 C 
ATOM     30  O   UNL     1      -3.424  12.051  19.286  0.00  0.00    +0.000 OA
BRANCH  29  31
ATOM     31  O   UNL     1      -2.419  11.481  17.288  0.00  0.00    +0.000 OA
BRANCH  31  33
ATOM     32  C   UNL     1      -2.916   9.878  15.591  0.00  0.00    +0.000 C 
ATOM     33  C   UNL     1      -3.474  10.658  16.770  0.00  0.00    +0.000 C 
ENDBRANCH  31  33
ENDBRANCH  29  31
ENDBRANCH  27  29
ENDBRANCH  26  28
ENDBRANCH  20  26
ENDBRANCH   1  23
TORSDOF 10
ENDMDL
MODEL 4
REMARK VINA RESULT:      -7.0      2.059      9.915
REMARK  Name = 
REMARK  11 active torsions:
REMARK  status: ('A' for Active; 'I' for Inactive)
REMARK    1  A    between atoms: C_1  and  C_2
REMARK    2  A    between atoms: C_2  and  O_3
REMARK    3  A    between atoms: O_3  and  C_4
REMARK    4  A    between atoms: C_4  and  C_6
REMARK    5  A    between atoms: C_7  and  C_8
REMARK    6  A    between atoms: C_8  and  C_9
REMARK    7  A    between atoms: C_12  and  S_13
REMARK    8  A    between atoms: S_13  and  N_16
REMARK    9  A    between atoms: C_20  and  O_22
REMARK   10  A    between atoms: O_22  and  C_23
REMARK   11  A    between atoms: C_23  and  C_24
REMARK                            x       y       z     vdW  Elec       q    Type
REMARK                         _______ _______ _______ _____ _____    ______ ____
ROOT
ATOM      1  S   UNL     1       2.498   4.765  19.827  0.00  0.00    +0.000 S 
ATOM      2  O   UNL     1       1.328   4.084  19.316  0.00  0.00    +0.000 OA
ATOM      3  O   UNL     1       3.136   4.362  21.060  0.00  0.00    +0.000 OA
ENDROOT
BRANCH   1   4
ATOM      4  N   UNL     1       2.135   6.413  19.961  0.00  0.00    +0.000 NA
ATOM      5  C   UNL     1       1.203   6.818  21.056  0.00  0.00    +0.000 C 
ATOM      6  C   UNL     1       1.381   8.325  21.314  0.00  0.00    +0.000 C 
ATOM      7  N   UNL     1       1.231   9.109  20.082  0.00  0.00    +0.000 N 
ATOM      8  C   UNL     1       0.449  10.247  20.079  0.00  0.00    +0.000 C 
ATOM      9  O   UNL     1      -0.145  10.661  21.068  0.00  0.00    +0.000 OA
ATOM     10  C   UNL     1       1.986   8.626  18.916  0.00  0.00    +0.000 C 
ATOM     11  C   UNL     1       1.773   7.117  18.697  0.00  0.00    +0.000 C 
BRANCH   8  12
ATOM     12  O   UNL     1       0.345  10.800  18.843  0.00  0.00    +0.000 OA
BRANCH  12  13
ATOM     13  C   UNL     1      -0.620  11.851  18.715  0.00  0.00    +0.000 C 
BRANCH  13  14
ATOM     14  C   UNL     1      -1.909  11.357  18.115  0.00  0.00    +0.000 A 
ATOM     15  C   UNL     1      -3.142  11.874  18.540  0.00  0.00    +0.000 A 
ATOM     16  C   UNL     1      -4.333  11.433  17.961  0.00  0.00    +0.000 A 
ATOM     17  C   UNL     1      -4.306  10.471  16.954  0.00  0.00    +0.000 A 
ATOM     18  C   UNL     1      -3.087   9.950  16.524  0.00  0.00    +0.000 A 
ATOM     19  C   UNL     1      -1.894  10.388  17.103  0.00  0.00    +0.000 A 
ENDBRANCH  13  14
ENDBRANCH  12  13
ENDBRANCH   8  12
ENDBRANCH   1   4
BRANCH   1  23
ATOM     20  C   UNL     1       5.631   4.759  16.490  0.00  0.00    +0.000 A 
ATOM     21  C   UNL     1       4.440   4.031  16.342  0.00  0.00    +0.000 A 
ATOM     22  C   UNL     1       3.480   4.022  17.357  0.00  0.00    +0.000 A 
ATOM     23  C   UNL     1       3.708   4.755  18.522  0.00  0.00    +0.000 A 
ATOM     24  C   UNL     1       4.883   5.501  18.678  0.00  0.00    +0.000 A 
ATOM     25  C   UNL     1       5.837   5.504  17.660  0.00  0.00    +0.000 A 
BRANCH  20  26
ATOM     26  C   UNL     1       6.662   4.773  15.386  0.00  0.00    +0.000 C 
BRANCH  26  28
ATOM     27  C   UNL     1       6.578   3.391  13.295  0.00  0.00    +0.000 C 
ATOM     28  C   UNL     1       6.093   4.381  14.056  0.00  0.00    +0.000 C 
BRANCH  27  29
ATOM     29  C   UNL     1       5.868   2.988  12.066  0.00  0.00    +0.000 C 
ATOM     30  O   UNL     1       4.735   3.339  11.763  0.00  0.00    +0.000 OA
BRANCH  29  31
ATOM     31  O   UNL     1       6.635   2.074  11.423  0.00  0.00    +0.000 OA
BRANCH  31  33
ATOM     32  C   UNL     1       6.250  -0.281  11.458  0.00  0.00    +0.000 C 
ATOM     33  C   UNL     1       5.900   1.029  10.771  0.00  0.00    +0.000 C 
ENDBRANCH  31  33
ENDBRANCH  29  31
ENDBRANCH  27  29
ENDBRANCH  26  28
ENDBRANCH  20  26
ENDBRANCH   1  23
TORSDOF 10
ENDMDL
MODEL 5
REMARK VINA RESULT:      -7.0      5.215      9.945
REMARK  Name = 
REMARK  11 active torsions:
REMARK  status: ('A' for Active; 'I' for Inactive)
REMARK    1  A    between atoms: C_1  and  C_2
REMARK    2  A    between atoms: C_2  and  O_3
REMARK    3  A    between atoms: O_3  and  C_4
REMARK    4  A    between atoms: C_4  and  C_6
REMARK    5  A    between atoms: C_7  and  C_8
REMARK    6  A    between atoms: C_8  and  C_9
REMARK    7  A    between atoms: C_12  and  S_13
REMARK    8  A    between atoms: S_13  and  N_16
REMARK    9  A    between atoms: C_20  and  O_22
REMARK   10  A    between atoms: O_22  and  C_23
REMARK   11  A    between atoms: C_23  and  C_24
REMARK                            x       y       z     vdW  Elec       q    Type
REMARK                         _______ _______ _______ _____ _____    ______ ____
ROOT
ATOM      1  S   UNL     1      -0.812  11.181  19.941  0.00  0.00    +0.000 S 
ATOM      2  O   UNL     1      -1.870  11.164  18.955  0.00  0.00    +0.000 OA
ATOM      3  O   UNL     1      -1.080  10.993  21.350  0.00  0.00    +0.000 OA
ENDROOT
BRANCH   1   4
ATOM      4  N   UNL     1       0.040  12.634  19.779  0.00  0.00    +0.000 NA
ATOM      5  C   UNL     1      -0.142  13.391  18.503  0.00  0.00    +0.000 C 
ATOM      6  C   UNL     1       0.296  14.849  18.735  0.00  0.00    +0.000 C 
ATOM      7  N   UNL     1       1.654  14.927  19.289  0.00  0.00    +0.000 N 
ATOM      8  C   UNL     1       2.565  15.819  18.758  0.00  0.00    +0.000 C 
ATOM      9  O   UNL     1       2.307  16.575  17.829  0.00  0.00    +0.000 OA
ATOM     10  C   UNL     1       1.934  14.047  20.433  0.00  0.00    +0.000 C 
ATOM     11  C   UNL     1       1.484  12.602  20.151  0.00  0.00    +0.000 C 
BRANCH   8  12
ATOM     12  O   UNL     1       3.794  15.701  19.323  0.00  0.00    +0.000 OA
BRANCH  12  13
ATOM     13  C   UNL     1       4.801  16.573  18.799  0.00  0.00    +0.000 C 
BRANCH  13  14
ATOM     14  C   UNL     1       6.103  15.852  18.569  0.00  0.00    +0.000 A 
ATOM     15  C   UNL     1       7.296  16.328  19.134  0.00  0.00    +0.000 A 
ATOM     16  C   UNL     1       8.495  15.641  18.940  0.00  0.00    +0.000 A 
ATOM     17  C   UNL     1       8.517  14.475  18.179  0.00  0.00    +0.000 A 
ATOM     18  C   UNL     1       7.338  13.992  17.613  0.00  0.00    +0.000 A 
ATOM     19  C   UNL     1       6.137  14.679  17.804  0.00  0.00    +0.000 A 
ENDBRANCH  13  14
ENDBRANCH  12  13
ENDBRANCH   8  12
ENDBRANCH   1   4
BRANCH   1  23
ATOM     20  C   UNL     1       2.293   8.084  18.632  0.00  0.00    +0.000 A 
ATOM     21  C   UNL     1       1.742   8.971  17.694  0.00  0.00    +0.000 A 
ATOM     22  C   UNL     1       0.790   9.916  18.083  0.00  0.00    +0.000 A 
ATOM     23  C   UNL     1       0.395   9.981  19.420  0.00  0.00    +0.000 A 
ATOM     24  C   UNL     1       0.948   9.116  20.371  0.00  0.00    +0.000 A 
ATOM     25  C   UNL     1       1.899   8.174  19.975  0.00  0.00    +0.000 A 
BRANCH  20  26
ATOM     26  C   UNL     1       3.330   7.070  18.209  0.00  0.00    +0.000 C 
BRANCH  26  28
ATOM     27  C   UNL     1       2.110   4.986  18.889  0.00  0.00    +0.000 C 
ATOM     28  C   UNL     1       2.745   5.712  17.959  0.00  0.00    +0.000 C 
BRANCH  27  29
ATOM     29  C   UNL     1       1.448   3.723  18.515  0.00  0.00    +0.000 C 
ATOM     30  O   UNL     1       1.434   3.245  17.388  0.00  0.00    +0.000 OA
BRANCH  29  31
ATOM     31  O   UNL     1       0.763   3.275  19.595  0.00  0.00    +0.000 OA
BRANCH  31  33
ATOM     32  C   UNL     1       1.960   2.681  21.573  0.00  0.00    +0.000 C 
ATOM     33  C   UNL     1       1.221   3.796  20.851  0.00  0.00    +0.000 C 
ENDBRANCH  31  33
ENDBRANCH  29  31
ENDBRANCH  27  29
ENDBRANCH  26  28
ENDBRANCH  20  26
ENDBRANCH   1  23
TORSDOF 10
ENDMDL
MODEL 6
REMARK VINA RESULT:      -7.0      3.123      5.313
REMARK  Name = 
REMARK  11 active torsions:
REMARK  status: ('A' for Active; 'I' for Inactive)
REMARK    1  A    between atoms: C_1  and  C_2
REMARK    2  A    between atoms: C_2  and  O_3
REMARK    3  A    between atoms: O_3  and  C_4
REMARK    4  A    between atoms: C_4  and  C_6
REMARK    5  A    between atoms: C_7  and  C_8
REMARK    6  A    between atoms: C_8  and  C_9
REMARK    7  A    between atoms: C_12  and  S_13
REMARK    8  A    between atoms: S_13  and  N_16
REMARK    9  A    between atoms: C_20  and  O_22
REMARK   10  A    between atoms: O_22  and  C_23
REMARK   11  A    between atoms: C_23  and  C_24
REMARK                            x       y       z     vdW  Elec       q    Type
REMARK                         _______ _______ _______ _____ _____    ______ ____
ROOT
ATOM      1  S   UNL     1       0.760  10.916  20.218  0.00  0.00    +0.000 S 
ATOM      2  O   UNL     1       1.697  11.817  19.582  0.00  0.00    +0.000 OA
ATOM      3  O   UNL     1       0.478  10.988  21.635  0.00  0.00    +0.000 OA
ENDROOT
BRANCH   1   4
ATOM      4  N   UNL     1       1.236   9.329  19.877  0.00  0.00    +0.000 NA
ATOM      5  C   UNL     1       1.654   8.480  21.033  0.00  0.00    +0.000 C 
ATOM      6  C   UNL     1       1.576   7.003  20.606  0.00  0.00    +0.000 C 
ATOM      7  N   UNL     1       2.335   6.751  19.374  0.00  0.00    +0.000 N 
ATOM      8  C   UNL     1       3.180   5.663  19.295  0.00  0.00    +0.000 C 
ATOM      9  O   UNL     1       3.342   4.865  20.211  0.00  0.00    +0.000 OA
ATOM     10  C   UNL     1       2.094   7.689  18.268  0.00  0.00    +0.000 C 
ATOM     11  C   UNL     1       2.188   9.151  18.742  0.00  0.00    +0.000 C 
BRANCH   8  12
ATOM     12  O   UNL     1       3.870   5.627  18.126  0.00  0.00    +0.000 OA
BRANCH  12  13
ATOM     13  C   UNL     1       4.503   4.380  17.820  0.00  0.00    +0.000 C 
BRANCH  13  14
ATOM     14  C   UNL     1       5.399   4.488  16.614  0.00  0.00    +0.000 A 
ATOM     15  C   UNL     1       6.680   5.048  16.720  0.00  0.00    +0.000 A 
ATOM     16  C   UNL     1       7.517   5.120  15.605  0.00  0.00    +0.000 A 
ATOM     17  C   UNL     1       7.081   4.637  14.373  0.00  0.00    +0.000 A 
ATOM     18  C   UNL     1       5.810   4.079  14.255  0.00  0.00    +0.000 A 
ATOM     19  C   UNL     1       4.970   4.007  15.369  0.00  0.00    +0.000 A 
ENDBRANCH  13  14
ENDBRANCH  12  13
ENDBRANCH   8  12
ENDBRANCH   1   4
BRANCH   1  23
ATOM     20  C   UNL     1      -3.174  11.224  17.900  0.00  0.00    +0.000 A 
ATOM     21  C   UNL     1      -2.623  12.362  18.509  0.00  0.00    +0.000 A 
ATOM     22  C   UNL     1      -1.426  12.277  19.224  0.00  0.00    +0.000 A 
ATOM     23  C   UNL     1      -0.770  11.049  19.320  0.00  0.00    +0.000 A 
ATOM     24  C   UNL     1      -1.297   9.908  18.702  0.00  0.00    +0.000 A 
ATOM     25  C   UNL     1      -2.494  10.000  17.991  0.00  0.00    +0.000 A 
BRANCH  20  26
ATOM     26  C   UNL     1      -4.465  11.322  17.121  0.00  0.00    +0.000 C 
BRANCH  26  28
ATOM     27  C   UNL     1      -3.205  10.616  15.070  0.00  0.00    +0.000 C 
ATOM     28  C   UNL     1      -4.357  10.739  15.744  0.00  0.00    +0.000 C 
BRANCH  27  29
ATOM     29  C   UNL     1      -3.178   9.904  13.778  0.00  0.00    +0.000 C 
ATOM     30  O   UNL     1      -2.164   9.617  13.156  0.00  0.00    +0.000 OA
BRANCH  29  31
ATOM     31  O   UNL     1      -4.458   9.753  13.359  0.00  0.00    +0.000 OA
BRANCH  31  33
ATOM     32  C   UNL     1      -6.104   9.554  11.642  0.00  0.00    +0.000 C 
ATOM     33  C   UNL     1      -4.626   9.762  11.935  0.00  0.00    +0.000 C 
ENDBRANCH  31  33
ENDBRANCH  29  31
ENDBRANCH  27  29
ENDBRANCH  26  28
ENDBRANCH  20  26
ENDBRANCH   1  23
TORSDOF 10
ENDMDL
MODEL 7
REMARK VINA RESULT:      -6.9      1.145      1.609
REMARK  Name = 
REMARK  11 active torsions:
REMARK  status: ('A' for Active; 'I' for Inactive)
REMARK    1  A    between atoms: C_1  and  C_2
REMARK    2  A    between atoms: C_2  and  O_3
REMARK    3  A    between atoms: O_3  and  C_4
REMARK    4  A    between atoms: C_4  and  C_6
REMARK    5  A    between atoms: C_7  and  C_8
REMARK    6  A    between atoms: C_8  and  C_9
REMARK    7  A    between atoms: C_12  and  S_13
REMARK    8  A    between atoms: S_13  and  N_16
REMARK    9  A    between atoms: C_20  and  O_22
REMARK   10  A    between atoms: O_22  and  C_23
REMARK   11  A    between atoms: C_23  and  C_24
REMARK                            x       y       z     vdW  Elec       q    Type
REMARK                         _______ _______ _______ _____ _____    ______ ____
ROOT
ATOM      1  S   UNL     1       2.757   3.742  19.345  0.00  0.00    +0.000 S 
ATOM      2  O   UNL     1       3.287   3.170  20.564  0.00  0.00    +0.000 OA
ATOM      3  O   UNL     1       1.702   3.094  18.596  0.00  0.00    +0.000 OA
ENDROOT
BRANCH   1   4
ATOM      4  N   UNL     1       4.044   4.008  18.280  0.00  0.00    +0.000 NA
ATOM      5  C   UNL     1       5.056   5.033  18.678  0.00  0.00    +0.000 C 
ATOM      6  C   UNL     1       6.342   4.787  17.868  0.00  0.00    +0.000 C 
ATOM      7  N   UNL     1       6.075   4.739  16.424  0.00  0.00    +0.000 N 
ATOM      8  C   UNL     1       6.883   5.438  15.550  0.00  0.00    +0.000 C 
ATOM      9  O   UNL     1       7.840   6.114  15.908  0.00  0.00    +0.000 OA
ATOM     10  C   UNL     1       4.953   3.885  16.006  0.00  0.00    +0.000 C 
ATOM     11  C   UNL     1       3.691   4.172  16.840  0.00  0.00    +0.000 C 
BRANCH   8  12
ATOM     12  O   UNL     1       6.446   5.359  14.266  0.00  0.00    +0.000 OA
BRANCH  12  13
ATOM     13  C   UNL     1       7.285   4.621  13.372  0.00  0.00    +0.000 C 
BRANCH  13  14
ATOM     14  C   UNL     1       6.493   3.664  12.520  0.00  0.00    +0.000 A 
ATOM     15  C   UNL     1       5.113   3.840  12.339  0.00  0.00    +0.000 A 
ATOM     16  C   UNL     1       4.388   2.967  11.526  0.00  0.00    +0.000 A 
ATOM     17  C   UNL     1       5.033   1.908  10.890  0.00  0.00    +0.000 A 
ATOM     18  C   UNL     1       6.403   1.723  11.063  0.00  0.00    +0.000 A 
ATOM     19  C   UNL     1       7.130   2.595  11.877  0.00  0.00    +0.000 A 
ENDBRANCH  13  14
ENDBRANCH  12  13
ENDBRANCH   8  12
ENDBRANCH   1   4
BRANCH   1  23
ATOM     20  C   UNL     1       1.434   8.000  20.381  0.00  0.00    +0.000 A 
ATOM     21  C   UNL     1       2.100   7.741  19.172  0.00  0.00    +0.000 A 
ATOM     22  C   UNL     1       2.512   6.446  18.850  0.00  0.00    +0.000 A 
ATOM     23  C   UNL     1       2.247   5.402  19.737  0.00  0.00    +0.000 A 
ATOM     24  C   UNL     1       1.568   5.640  20.938  0.00  0.00    +0.000 A 
ATOM     25  C   UNL     1       1.160   6.936  21.254  0.00  0.00    +0.000 A 
BRANCH  20  26
ATOM     26  C   UNL     1       0.982   9.400  20.721  0.00  0.00    +0.000 C 
BRANCH  26  28
ATOM     27  C   UNL     1      -0.238  10.340  18.742  0.00  0.00    +0.000 C 
ATOM     28  C   UNL     1      -0.250   9.810  19.972  0.00  0.00    +0.000 C 
BRANCH  27  29
ATOM     29  C   UNL     1      -1.507  10.584  18.030  0.00  0.00    +0.000 C 
ATOM     30  O   UNL     1      -2.027   9.809  17.238  0.00  0.00    +0.000 OA
BRANCH  29  31
ATOM     31  O   UNL     1      -1.905  11.849  18.311  0.00  0.00    +0.000 OA
BRANCH  31  33
ATOM     32  C   UNL     1      -3.011  12.758  20.220  0.00  0.00    +0.000 C 
ATOM     33  C   UNL     1      -3.186  11.945  18.948  0.00  0.00    +0.000 C 
ENDBRANCH  31  33
ENDBRANCH  29  31
ENDBRANCH  27  29
ENDBRANCH  26  28
ENDBRANCH  20  26
ENDBRANCH   1  23
TORSDOF 10
ENDMDL
MODEL 8
REMARK VINA RESULT:      -6.9      4.982      8.506
REMARK  Name = 
REMARK  11 active torsions:
REMARK  status: ('A' for Active; 'I' for Inactive)
REMARK    1  A    between atoms: C_1  and  C_2
REMARK    2  A    between atoms: C_2  and  O_3
REMARK    3  A    between atoms: O_3  and  C_4
REMARK    4  A    between atoms: C_4  and  C_6
REMARK    5  A    between atoms: C_7  and  C_8
REMARK    6  A    between atoms: C_8  and  C_9
REMARK    7  A    between atoms: C_12  and  S_13
REMARK    8  A    between atoms: S_13  and  N_16
REMARK    9  A    between atoms: C_20  and  O_22
REMARK   10  A    between atoms: O_22  and  C_23
REMARK   11  A    between atoms: C_23  and  C_24
REMARK                            x       y       z     vdW  Elec       q    Type
REMARK                         _______ _______ _______ _____ _____    ______ ____
ROOT
ATOM      1  S   UNL     1       0.318  12.983  20.178  0.00  0.00    +0.000 S 
ATOM      2  O   UNL     1       0.199  13.113  21.614  0.00  0.00    +0.000 OA
ATOM      3  O   UNL     1      -0.730  13.426  19.283  0.00  0.00    +0.000 OA
ENDROOT
BRANCH   1   4
ATOM      4  N   UNL     1       0.637  11.361  19.817  0.00  0.00    +0.000 NA
ATOM      5  C   UNL     1       0.987  10.465  20.961  0.00  0.00    +0.000 C 
ATOM      6  C   UNL     1       0.764   9.006  20.524  0.00  0.00    +0.000 C 
ATOM      7  N   UNL     1       1.482   8.696  19.280  0.00  0.00    +0.000 N 
ATOM      8  C   UNL     1       2.220   7.533  19.181  0.00  0.00    +0.000 C 
ATOM      9  O   UNL     1       2.317   6.715  20.089  0.00  0.00    +0.000 OA
ATOM     10  C   UNL     1       1.318   9.663  18.184  0.00  0.00    +0.000 C 
ATOM     11  C   UNL     1       1.555  11.105  18.670  0.00  0.00    +0.000 C 
BRANCH   8  12
ATOM     12  O   UNL     1       2.889   7.444  18.003  0.00  0.00    +0.000 OA
BRANCH  12  13
ATOM     13  C   UNL     1       3.504   6.179  17.736  0.00  0.00    +0.000 C 
BRANCH  13  14
ATOM     14  C   UNL     1       4.985   6.206  18.012  0.00  0.00    +0.000 A 
ATOM     15  C   UNL     1       5.532   5.457  19.064  0.00  0.00    +0.000 A 
ATOM     16  C   UNL     1       6.909   5.464  19.298  0.00  0.00    +0.000 A 
ATOM     17  C   UNL     1       7.751   6.222  18.486  0.00  0.00    +0.000 A 
ATOM     18  C   UNL     1       7.218   6.970  17.438  0.00  0.00    +0.000 A 
ATOM     19  C   UNL     1       5.841   6.965  17.203  0.00  0.00    +0.000 A 
ENDBRANCH  13  14
ENDBRANCH  12  13
ENDBRANCH   8  12
ENDBRANCH   1   4
BRANCH   1  23
ATOM     20  C   UNL     1       4.227  15.027  18.958  0.00  0.00    +0.000 A 
ATOM     21  C   UNL     1       4.092  14.469  20.239  0.00  0.00    +0.000 A 
ATOM     22  C   UNL     1       2.901  13.848  20.622  0.00  0.00    +0.000 A 
ATOM     23  C   UNL     1       1.843  13.775  19.716  0.00  0.00    +0.000 A 
ATOM     24  C   UNL     1       1.968  14.311  18.429  0.00  0.00    +0.000 A 
ATOM     25  C   UNL     1       3.160  14.931  18.053  0.00  0.00    +0.000 A 
BRANCH  20  26
ATOM     26  C   UNL     1       5.519  15.690  18.545  0.00  0.00    +0.000 C 
BRANCH  26  28
ATOM     27  C   UNL     1       7.540  14.322  17.964  0.00  0.00    +0.000 C 
ATOM     28  C   UNL     1       6.727  14.867  18.880  0.00  0.00    +0.000 C 
BRANCH  27  29
ATOM     29  C   UNL     1       8.780  13.645  18.388  0.00  0.00    +0.000 C 
ATOM     30  O   UNL     1       9.464  13.971  19.349  0.00  0.00    +0.000 OA
BRANCH  29  31
ATOM     31  O   UNL     1       9.078  12.704  17.460  0.00  0.00    +0.000 OA
BRANCH  31  33
ATOM     32  C   UNL     1       9.137  10.540  18.464  0.00  0.00    +0.000 C 
ATOM     33  C   UNL     1       9.976  11.681  17.912  0.00  0.00    +0.000 C 
ENDBRANCH  31  33
ENDBRANCH  29  31
ENDBRANCH  27  29
ENDBRANCH  26  28
ENDBRANCH  20  26
ENDBRANCH   1  23
TORSDOF 10
ENDMDL
MODEL 9
REMARK VINA RESULT:      -6.9      2.565      9.782
REMARK  Name = 
REMARK  11 active torsions:
REMARK  status: ('A' for Active; 'I' for Inactive)
REMARK    1  A    between atoms: C_1  and  C_2
REMARK    2  A    between atoms: C_2  and  O_3
REMARK    3  A    between atoms: O_3  and  C_4
REMARK    4  A    between atoms: C_4  and  C_6
REMARK    5  A    between atoms: C_7  and  C_8
REMARK    6  A    between atoms: C_8  and  C_9
REMARK    7  A    between atoms: C_12  and  S_13
REMARK    8  A    between atoms: S_13  and  N_16
REMARK    9  A    between atoms: C_20  and  O_22
REMARK   10  A    between atoms: O_22  and  C_23
REMARK   11  A    between atoms: C_23  and  C_24
REMARK                            x       y       z     vdW  Elec       q    Type
REMARK                         _______ _______ _______ _____ _____    ______ ____
ROOT
ATOM      1  S   UNL     1       2.668   4.650  18.990  0.00  0.00    +0.000 S 
ATOM      2  O   UNL     1       1.480   4.028  18.447  0.00  0.00    +0.000 OA
ATOM      3  O   UNL     1       3.323   4.138  20.174  0.00  0.00    +0.000 OA
ENDROOT
BRANCH   1   4
ATOM      4  N   UNL     1       2.332   6.285  19.265  0.00  0.00    +0.000 NA
ATOM      5  C   UNL     1       1.530   6.620  20.482  0.00  0.00    +0.000 C 
ATOM      6  C   UNL     1       1.743   8.108  20.811  0.00  0.00    +0.000 C 
ATOM      7  N   UNL     1       1.461   8.968  19.654  0.00  0.00    +0.000 N 
ATOM      8  C   UNL     1       0.689  10.102  19.809  0.00  0.00    +0.000 C 
ATOM      9  O   UNL     1       0.212  10.453  20.882  0.00  0.00    +0.000 OA
ATOM     10  C   UNL     1       2.079   8.559  18.384  0.00  0.00    +0.000 C 
ATOM     11  C   UNL     1       1.834   7.066  18.096  0.00  0.00    +0.000 C 
BRANCH   8  12
ATOM     12  O   UNL     1       0.451  10.731  18.630  0.00  0.00    +0.000 OA
BRANCH  12  13
ATOM     13  C   UNL     1      -0.041  12.071  18.733  0.00  0.00    +0.000 C 
BRANCH  13  14
ATOM     14  C   UNL     1       1.074  13.066  18.914  0.00  0.00    +0.000 A 
ATOM     15  C   UNL     1       1.006  14.045  19.917  0.00  0.00    +0.000 A 
ATOM     16  C   UNL     1       2.055  14.947  20.099  0.00  0.00    +0.000 A 
ATOM     17  C   UNL     1       3.181  14.884  19.280  0.00  0.00    +0.000 A 
ATOM     18  C   UNL     1       3.260  13.916  18.280  0.00  0.00    +0.000 A 
ATOM     19  C   UNL     1       2.210  13.013  18.095  0.00  0.00    +0.000 A 
ENDBRANCH  13  14
ENDBRANCH  12  13
ENDBRANCH   8  12
ENDBRANCH   1   4
BRANCH   1  23
ATOM     20  C   UNL     1       5.720   4.894  15.587  0.00  0.00    +0.000 A 
ATOM     21  C   UNL     1       5.251   3.646  16.027  0.00  0.00    +0.000 A 
ATOM     22  C   UNL     1       4.323   3.561  17.068  0.00  0.00    +0.000 A 
ATOM     23  C   UNL     1       3.855   4.731  17.666  0.00  0.00    +0.000 A 
ATOM     24  C   UNL     1       4.300   5.984  17.227  0.00  0.00    +0.000 A 
ATOM     25  C   UNL     1       5.227   6.062  16.187  0.00  0.00    +0.000 A 
BRANCH  20  26
ATOM     26  C   UNL     1       6.716   4.981  14.455  0.00  0.00    +0.000 C 
BRANCH  26  28
ATOM     27  C   UNL     1       5.471   3.662  12.723  0.00  0.00    +0.000 C 
ATOM     28  C   UNL     1       6.568   3.865  13.465  0.00  0.00    +0.000 C 
BRANCH  27  29
ATOM     29  C   UNL     1       5.471   2.622  11.677  0.00  0.00    +0.000 C 
ATOM     30  O   UNL     1       6.439   1.943  11.361  0.00  0.00    +0.000 OA
BRANCH  29  31
ATOM     31  O   UNL     1       4.265   2.654  11.059  0.00  0.00    +0.000 OA
BRANCH  31  33
ATOM     32  C   UNL     1       2.902   3.930   9.571  0.00  0.00    +0.000 C 
ATOM     33  C   UNL     1       3.741   3.971  10.839  0.00  0.00    +0.000 C 
ENDBRANCH  31  33
ENDBRANCH  29  31
ENDBRANCH  27  29
ENDBRANCH  26  28
ENDBRANCH  20  26
ENDBRANCH   1  23
TORSDOF 10
ENDMDL
