MODEL 1
REMARK VINA RESULT:      -7.5      0.000      0.000
REMARK  Name = 
REMARK  7 active torsions:
REMARK  status: ('A' for Active; 'I' for Inactive)
REMARK    1  A    between atoms: C_1  and  C_2
REMARK    2  A    between atoms: C_2  and  N_3
REMARK    3  A    between atoms: C_11  and  S_12
REMARK    4  A    between atoms: S_12  and  N_15
REMARK    5  A    between atoms: N_15  and  C_16
REMARK    6  A    between atoms: C_16  and  C_17
REMARK    7  A    between atoms: C_17  and  O_18
REMARK                            x       y       z     vdW  Elec       q    Type
REMARK                         _______ _______ _______ _____ _____    ______ ____
ROOT
ATOM      1  N   UNL     1       2.716   4.723  20.490  0.00  0.00    +0.000 N 
ATOM      2  C   UNL     1       1.946   5.897  20.327  0.00  0.00    +0.000 C 
ATOM      3  O   UNL     1       0.950   6.201  20.970  0.00  0.00    +0.000 OA
ATOM      4  C   UNL     1       2.627   6.572  19.234  0.00  0.00    +0.000 A 
ATOM      5  C   UNL     1       2.335   7.778  18.606  0.00  0.00    +0.000 A 
ATOM      6  C   UNL     1       3.182   8.161  17.553  0.00  0.00    +0.000 A 
ATOM      7  C   UNL     1       4.281   7.371  17.152  0.00  0.00    +0.000 A 
ATOM      8  C   UNL     1       4.581   6.145  17.804  0.00  0.00    +0.000 A 
ATOM      9  C   UNL     1       5.625   5.198  17.601  0.00  0.00    +0.000 A 
ATOM     10  C   UNL     1       5.729   4.040  18.414  0.00  0.00    +0.000 A 
ATOM     11  C   UNL     1       4.806   3.765  19.437  0.00  0.00    +0.000 A 
ATOM     12  C   UNL     1       3.790   4.690  19.601  0.00  0.00    +0.000 A 
ATOM     13  C   UNL     1       3.718   5.821  18.817  0.00  0.00    +0.000 A 
ENDROOT
BRANCH   9  14
ATOM     14  S   UNL     1       6.927   5.476  16.425  0.00  0.00    +0.000 S 
ATOM     15  O   UNL     1       7.444   6.807  16.653  0.00  0.00    +0.000 OA
ATOM     16  O   UNL     1       7.804   4.326  16.419  0.00  0.00    +0.000 OA
BRANCH  14  17
ATOM     17  N   UNL     1       6.162   5.534  14.920  0.00  0.00    +0.000 NA
ATOM     18  H   UNL     1       6.750   6.099  14.306  0.00  0.00    +0.000 HD
BRANCH  17  19
ATOM     19  C   UNL     1       5.716   4.246  14.342  0.00  0.00    +0.000 C 
BRANCH  19  20
ATOM     20  C   UNL     1       6.569   3.905  13.116  0.00  0.00    +0.000 C 
BRANCH  20  21
ATOM     21  O   UNL     1       5.977   2.837  12.375  0.00  0.00    +0.000 OA
ATOM     22  H   UNL     1       5.918   3.125  11.449  0.00  0.00    +0.000 HD
ENDBRANCH  20  21
ENDBRANCH  19  20
ENDBRANCH  17  19
ENDBRANCH  14  17
ENDBRANCH   9  14
BRANCH   1  24
ATOM     23  C   UNL     1       1.389   2.675  20.875  0.00  0.00    +0.000 C 
ATOM     24  C   UNL     1       2.374   3.683  21.437  0.00  0.00    +0.000 C 
ENDBRANCH   1  24
TORSDOF 6
ENDMDL
MODEL 2
REMARK VINA RESULT:      -7.4      1.757      2.823
REMARK  Name = 
REMARK  7 active torsions:
REMARK  status: ('A' for Active; 'I' for Inactive)
REMARK    1  A    between atoms: C_1  and  C_2
REMARK    2  A    between atoms: C_2  and  N_3
REMARK    3  A    between atoms: C_11  and  S_12
REMARK    4  A    between atoms: S_12  and  N_15
REMARK    5  A    between atoms: N_15  and  C_16
REMARK    6  A    between atoms: C_16  and  C_17
REMARK    7  A    between atoms: C_17  and  O_18
REMARK                            x       y       z     vdW  Elec       q    Type
REMARK                         _______ _______ _______ _____ _____    ______ ____
ROOT
ATOM      1  N   UNL     1       2.053   3.801  19.645  0.00  0.00    +0.000 N 
ATOM      2  C   UNL     1       1.638   5.108  19.983  0.00  0.00    +0.000 C 
ATOM      3  O   UNL     1       0.804   5.403  20.829  0.00  0.00    +0.000 OA
ATOM      4  C   UNL     1       2.421   5.934  19.078  0.00  0.00    +0.000 A 
ATOM      5  C   UNL     1       2.448   7.315  18.923  0.00  0.00    +0.000 A 
ATOM      6  C   UNL     1       3.311   7.821  17.936  0.00  0.00    +0.000 A 
ATOM      7  C   UNL     1       4.120   6.977  17.145  0.00  0.00    +0.000 A 
ATOM      8  C   UNL     1       4.096   5.567  17.316  0.00  0.00    +0.000 A 
ATOM      9  C   UNL     1       4.819   4.525  16.668  0.00  0.00    +0.000 A 
ATOM     10  C   UNL     1       4.637   3.168  17.040  0.00  0.00    +0.000 A 
ATOM     11  C   UNL     1       3.729   2.789  18.044  0.00  0.00    +0.000 A 
ATOM     12  C   UNL     1       3.026   3.818  18.644  0.00  0.00    +0.000 A 
ATOM     13  C   UNL     1       3.233   5.132  18.286  0.00  0.00    +0.000 A 
ENDROOT
BRANCH   9  14
ATOM     14  S   UNL     1       6.082   4.867  15.466  0.00  0.00    +0.000 S 
ATOM     15  O   UNL     1       6.372   3.631  14.775  0.00  0.00    +0.000 OA
ATOM     16  O   UNL     1       5.722   6.063  14.738  0.00  0.00    +0.000 OA
BRANCH  14  17
ATOM     17  N   UNL     1       7.466   5.224  16.366  0.00  0.00    +0.000 NA
ATOM     18  H   UNL     1       7.656   6.219  16.244  0.00  0.00    +0.000 HD
BRANCH  17  19
ATOM     19  C   UNL     1       7.496   4.754  17.770  0.00  0.00    +0.000 C 
BRANCH  19  20
ATOM     20  C   UNL     1       7.637   5.951  18.715  0.00  0.00    +0.000 C 
BRANCH  20  21
ATOM     21  O   UNL     1       7.852   5.509  20.056  0.00  0.00    +0.000 OA
ATOM     22  H   UNL     1       7.067   5.004  20.323  0.00  0.00    +0.000 HD
ENDBRANCH  20  21
ENDBRANCH  19  20
ENDBRANCH  17  19
ENDBRANCH  14  17
ENDBRANCH   9  14
BRANCH   1  24
ATOM     23  C   UNL     1       1.802   2.492  21.725  0.00  0.00    +0.000 C 
ATOM     24  C   UNL     1       1.485   2.614  20.246  0.00  0.00    +0.000 C 
ENDBRANCH   1  24
TORSDOF 6
ENDMDL
MODEL 3
REMARK VINA RESULT:      -7.3      1.311      1.403
REMARK  Name = 
REMARK  7 active torsions:
REMARK  status: ('A' for Active; 'I' for Inactive)
REMARK    1  A    between atoms: C_1  and  C_2
REMARK    2  A    between atoms: C_2  and  N_3
REMARK    3  A    between atoms: C_11  and  S_12
REMARK    4  A    between atoms: S_12  and  N_15
REMARK    5  A    between atoms: N_15  and  C_16
REMARK    6  A    between atoms: C_16  and  C_17
REMARK    7  A    between atoms: C_17  and  O_18
REMARK                            x       y       z     vdW  Elec       q    Type
REMARK                         _______ _______ _______ _____ _____    ______ ____
ROOT
ATOM      1  N   UNL     1       2.157   3.807  19.562  0.00  0.00    +0.000 N 
ATOM      2  C   UNL     1       1.726   5.118  19.860  0.00  0.00    +0.000 C 
ATOM      3  O   UNL     1       0.871   5.427  20.680  0.00  0.00    +0.000 OA
ATOM      4  C   UNL     1       2.523   5.928  18.954  0.00  0.00    +0.000 A 
ATOM      5  C   UNL     1       2.545   7.306  18.767  0.00  0.00    +0.000 A 
ATOM      6  C   UNL     1       3.426   7.795  17.788  0.00  0.00    +0.000 A 
ATOM      7  C   UNL     1       4.258   6.938  17.035  0.00  0.00    +0.000 A 
ATOM      8  C   UNL     1       4.240   5.533  17.238  0.00  0.00    +0.000 A 
ATOM      9  C   UNL     1       4.983   4.481  16.630  0.00  0.00    +0.000 A 
ATOM     10  C   UNL     1       4.801   3.132  17.030  0.00  0.00    +0.000 A 
ATOM     11  C   UNL     1       3.874   2.770  18.022  0.00  0.00    +0.000 A 
ATOM     12  C   UNL     1       3.151   3.807  18.583  0.00  0.00    +0.000 A 
ATOM     13  C   UNL     1       3.357   5.114  18.199  0.00  0.00    +0.000 A 
ENDROOT
BRANCH   9  14
ATOM     14  S   UNL     1       6.270   4.804  15.449  0.00  0.00    +0.000 S 
ATOM     15  O   UNL     1       5.885   5.975  14.694  0.00  0.00    +0.000 OA
ATOM     16  O   UNL     1       7.549   4.736  16.121  0.00  0.00    +0.000 OA
BRANCH  14  17
ATOM     17  N   UNL     1       6.206   3.516  14.359  0.00  0.00    +0.000 NA
ATOM     18  H   UNL     1       5.330   3.020  14.530  0.00  0.00    +0.000 HD
BRANCH  17  19
ATOM     19  C   UNL     1       6.477   3.824  12.935  0.00  0.00    +0.000 C 
BRANCH  19  20
ATOM     20  C   UNL     1       5.474   3.084  12.045  0.00  0.00    +0.000 C 
BRANCH  20  21
ATOM     21  O   UNL     1       5.956   1.780  11.722  0.00  0.00    +0.000 OA
ATOM     22  H   UNL     1       6.920   1.844  11.621  0.00  0.00    +0.000 HD
ENDBRANCH  20  21
ENDBRANCH  19  20
ENDBRANCH  17  19
ENDBRANCH  14  17
ENDBRANCH   9  14
BRANCH   1  24
ATOM     23  C   UNL     1       1.971   2.479  21.637  0.00  0.00    +0.000 C 
ATOM     24  C   UNL     1       1.582   2.630  20.177  0.00  0.00    +0.000 C 
ENDBRANCH   1  24
TORSDOF 6
ENDMDL
MODEL 4
REMARK VINA RESULT:      -7.2      1.679      2.809
REMARK  Name = 
REMARK  7 active torsions:
REMARK  status: ('A' for Active; 'I' for Inactive)
REMARK    1  A    between atoms: C_1  and  C_2
REMARK    2  A    between atoms: C_2  and  N_3
REMARK    3  A    between atoms: C_11  and  S_12
REMARK    4  A    between atoms: S_12  and  N_15
REMARK    5  A    between atoms: N_15  and  C_16
REMARK    6  A    between atoms: C_16  and  C_17
REMARK    7  A    between atoms: C_17  and  O_18
REMARK                            x       y       z     vdW  Elec       q    Type
REMARK                         _______ _______ _______ _____ _____    ______ ____
ROOT
ATOM      1  N   UNL     1       2.668   4.747  20.516  0.00  0.00    +0.000 N 
ATOM      2  C   UNL     1       1.907   5.928  20.377  0.00  0.00    +0.000 C 
ATOM      3  O   UNL     1       0.932   6.240  21.048  0.00  0.00    +0.000 OA
ATOM      4  C   UNL     1       2.563   6.599  19.266  0.00  0.00    +0.000 A 
ATOM      5  C   UNL     1       2.267   7.810  18.651  0.00  0.00    +0.000 A 
ATOM      6  C   UNL     1       3.088   8.187  17.575  0.00  0.00    +0.000 A 
ATOM      7  C   UNL     1       4.167   7.387  17.141  0.00  0.00    +0.000 A 
ATOM      8  C   UNL     1       4.472   6.157  17.782  0.00  0.00    +0.000 A 
ATOM      9  C   UNL     1       5.501   5.200  17.548  0.00  0.00    +0.000 A 
ATOM     10  C   UNL     1       5.616   4.039  18.355  0.00  0.00    +0.000 A 
ATOM     11  C   UNL     1       4.719   3.770  19.402  0.00  0.00    +0.000 A 
ATOM     12  C   UNL     1       3.718   4.705  19.597  0.00  0.00    +0.000 A 
ATOM     13  C   UNL     1       3.635   5.839  18.818  0.00  0.00    +0.000 A 
ENDROOT
BRANCH   9  14
ATOM     14  S   UNL     1       6.773   5.468  16.337  0.00  0.00    +0.000 S 
ATOM     15  O   UNL     1       7.762   4.426  16.506  0.00  0.00    +0.000 OA
ATOM     16  O   UNL     1       6.153   5.707  15.053  0.00  0.00    +0.000 OA
BRANCH  14  17
ATOM     17  N   UNL     1       7.535   6.901  16.803  0.00  0.00    +0.000 NA
ATOM     18  H   UNL     1       6.948   7.672  16.481  0.00  0.00    +0.000 HD
BRANCH  17  19
ATOM     19  C   UNL     1       7.974   7.003  18.214  0.00  0.00    +0.000 C 
BRANCH  19  20
ATOM     20  C   UNL     1       8.386   8.445  18.526  0.00  0.00    +0.000 C 
BRANCH  20  21
ATOM     21  O   UNL     1       7.789   9.349  17.597  0.00  0.00    +0.000 OA
ATOM     22  H   UNL     1       8.163   9.155  16.722  0.00  0.00    +0.000 HD
ENDBRANCH  20  21
ENDBRANCH  19  20
ENDBRANCH  17  19
ENDBRANCH  14  17
ENDBRANCH   9  14
BRANCH   1  24
ATOM     23  C   UNL     1       1.332   2.711  20.933  0.00  0.00    +0.000 C 
ATOM     24  C   UNL     1       2.343   3.707  21.469  0.00  0.00    +0.000 C 
ENDBRANCH   1  24
TORSDOF 6
ENDMDL
MODEL 5
REMARK VINA RESULT:      -7.2      1.662      2.681
REMARK  Name = 
REMARK  7 active torsions:
REMARK  status: ('A' for Active; 'I' for Inactive)
REMARK    1  A    between atoms: C_1  and  C_2
REMARK    2  A    between atoms: C_2  and  N_3
REMARK    3  A    between atoms: C_11  and  S_12
REMARK    4  A    between atoms: S_12  and  N_15
REMARK    5  A    between atoms: N_15  and  C_16
REMARK    6  A    between atoms: C_16  and  C_17
REMARK    7  A    between atoms: C_17  and  O_18
REMARK                            x       y       z     vdW  Elec       q    Type
REMARK                         _______ _______ _______ _____ _____    ______ ____
ROOT
ATOM      1  N   UNL     1       2.518   4.842  20.550  0.00  0.00    +0.000 N 
ATOM      2  C   UNL     1       1.868   6.095  20.531  0.00  0.00    +0.000 C 
ATOM      3  O   UNL     1       1.016   6.478  21.323  0.00  0.00    +0.000 OA
ATOM      4  C   UNL     1       2.453   6.738  19.365  0.00  0.00    +0.000 A 
ATOM      5  C   UNL     1       2.209   7.993  18.818  0.00  0.00    +0.000 A 
ATOM      6  C   UNL     1       2.931   8.326  17.660  0.00  0.00    +0.000 A 
ATOM      7  C   UNL     1       3.865   7.440  17.080  0.00  0.00    +0.000 A 
ATOM      8  C   UNL     1       4.118   6.164  17.650  0.00  0.00    +0.000 A 
ATOM      9  C   UNL     1       5.010   5.120  17.271  0.00  0.00    +0.000 A 
ATOM     10  C   UNL     1       5.102   3.926  18.031  0.00  0.00    +0.000 A 
ATOM     11  C   UNL     1       4.313   3.710  19.173  0.00  0.00    +0.000 A 
ATOM     12  C   UNL     1       3.441   4.730  19.509  0.00  0.00    +0.000 A 
ATOM     13  C   UNL     1       3.381   5.893  18.772  0.00  0.00    +0.000 A 
ENDROOT
BRANCH   9  14
ATOM     14  S   UNL     1       6.150   5.305  15.921  0.00  0.00    +0.000 S 
ATOM     15  O   UNL     1       6.648   3.989  15.588  0.00  0.00    +0.000 OA
ATOM     16  O   UNL     1       5.550   6.154  14.916  0.00  0.00    +0.000 OA
BRANCH  14  17
ATOM     17  N   UNL     1       7.468   6.143  16.565  0.00  0.00    +0.000 NA
ATOM     18  H   UNL     1       7.746   6.842  15.875  0.00  0.00    +0.000 HD
BRANCH  17  19
ATOM     19  C   UNL     1       7.331   6.654  17.948  0.00  0.00    +0.000 C 
BRANCH  19  20
ATOM     20  C   UNL     1       8.087   5.740  18.917  0.00  0.00    +0.000 C 
BRANCH  20  21
ATOM     21  O   UNL     1       7.313   5.507  20.094  0.00  0.00    +0.000 OA
ATOM     22  H   UNL     1       6.429   5.226  19.809  0.00  0.00    +0.000 HD
ENDBRANCH  20  21
ENDBRANCH  19  20
ENDBRANCH  17  19
ENDBRANCH  14  17
ENDBRANCH   9  14
BRANCH   1  24
ATOM     23  C   UNL     1       1.140   2.845  21.016  0.00  0.00    +0.000 C 
ATOM     24  C   UNL     1       2.205   3.806  21.511  0.00  0.00    +0.000 C 
ENDBRANCH   1  24
TORSDOF 6
ENDMDL
MODEL 6
REMARK VINA RESULT:      -6.9      2.358      4.371
REMARK  Name = 
REMARK  7 active torsions:
REMARK  status: ('A' for Active; 'I' for Inactive)
REMARK    1  A    between atoms: C_1  and  C_2
REMARK    2  A    between atoms: C_2  and  N_3
REMARK    3  A    between atoms: C_11  and  S_12
REMARK    4  A    between atoms: S_12  and  N_15
REMARK    5  A    between atoms: N_15  and  C_16
REMARK    6  A    between atoms: C_16  and  C_17
REMARK    7  A    between atoms: C_17  and  O_18
REMARK                            x       y       z     vdW  Elec       q    Type
REMARK                         _______ _______ _______ _____ _____    ______ ____
ROOT
ATOM      1  N   UNL     1       1.659   8.464  19.433  0.00  0.00    +0.000 N 
ATOM      2  C   UNL     1       1.115   7.745  20.520  0.00  0.00    +0.000 C 
ATOM      3  O   UNL     1       0.299   8.167  21.328  0.00  0.00    +0.000 OA
ATOM      4  C   UNL     1       1.782   6.457  20.413  0.00  0.00    +0.000 A 
ATOM      5  C   UNL     1       1.671   5.322  21.209  0.00  0.00    +0.000 A 
ATOM      6  C   UNL     1       2.472   4.224  20.855  0.00  0.00    +0.000 A 
ATOM      7  C   UNL     1       3.340   4.259  19.742  0.00  0.00    +0.000 A 
ATOM      8  C   UNL     1       3.440   5.417  18.926  0.00  0.00    +0.000 A 
ATOM      9  C   UNL     1       4.213   5.687  17.760  0.00  0.00    +0.000 A 
ATOM     10  C   UNL     1       4.119   6.936  17.094  0.00  0.00    +0.000 A 
ATOM     11  C   UNL     1       3.282   7.965  17.559  0.00  0.00    +0.000 A 
ATOM     12  C   UNL     1       2.557   7.684  18.703  0.00  0.00    +0.000 A 
ATOM     13  C   UNL     1       2.643   6.457  19.324  0.00  0.00    +0.000 A 
ENDROOT
BRANCH   9  14
ATOM     14  S   UNL     1       5.223   4.442  16.995  0.00  0.00    +0.000 S 
ATOM     15  O   UNL     1       4.433   3.233  16.908  0.00  0.00    +0.000 OA
ATOM     16  O   UNL     1       5.856   5.007  15.825  0.00  0.00    +0.000 OA
BRANCH  14  17
ATOM     17  N   UNL     1       6.443   4.109  18.116  0.00  0.00    +0.000 NA
ATOM     18  H   UNL     1       6.551   3.095  18.150  0.00  0.00    +0.000 HD
BRANCH  17  19
ATOM     19  C   UNL     1       7.709   4.865  17.976  0.00  0.00    +0.000 C 
BRANCH  19  20
ATOM     20  C   UNL     1       7.767   5.978  19.027  0.00  0.00    +0.000 C 
BRANCH  20  21
ATOM     21  O   UNL     1       7.843   5.424  20.341  0.00  0.00    +0.000 OA
ATOM     22  H   UNL     1       8.359   4.603  20.280  0.00  0.00    +0.000 HD
ENDBRANCH  20  21
ENDBRANCH  19  20
ENDBRANCH  17  19
ENDBRANCH  14  17
ENDBRANCH   9  14
BRANCH   1  24
ATOM     23  C   UNL     1       0.090  10.018  18.324  0.00  0.00    +0.000 C 
ATOM     24  C   UNL     1       1.341   9.851  19.168  0.00  0.00    +0.000 C 
ENDBRANCH   1  24
TORSDOF 6
ENDMDL
MODEL 7
REMARK VINA RESULT:      -6.8      1.260      3.063
REMARK  Name = 
REMARK  7 active torsions:
REMARK  status: ('A' for Active; 'I' for Inactive)
REMARK    1  A    between atoms: C_1  and  C_2
REMARK    2  A    between atoms: C_2  and  N_3
REMARK    3  A    between atoms: C_11  and  S_12
REMARK    4  A    between atoms: S_12  and  N_15
REMARK    5  A    between atoms: N_15  and  C_16
REMARK    6  A    between atoms: C_16  and  C_17
REMARK    7  A    between atoms: C_17  and  O_18
REMARK                            x       y       z     vdW  Elec       q    Type
REMARK                         _______ _______ _______ _____ _____    ______ ____
ROOT
ATOM      1  N   UNL     1       2.586   7.213  18.989  0.00  0.00    +0.000 N 
ATOM      2  C   UNL     1       2.206   6.161  19.852  0.00  0.00    +0.000 C 
ATOM      3  O   UNL     1       1.296   6.192  20.669  0.00  0.00    +0.000 OA
ATOM      4  C   UNL     1       3.163   5.118  19.520  0.00  0.00    +0.000 A 
ATOM      5  C   UNL     1       3.309   3.837  20.042  0.00  0.00    +0.000 A 
ATOM      6  C   UNL     1       4.355   3.059  19.520  0.00  0.00    +0.000 A 
ATOM      7  C   UNL     1       5.214   3.543  18.508  0.00  0.00    +0.000 A 
ATOM      8  C   UNL     1       5.053   4.847  17.971  0.00  0.00    +0.000 A 
ATOM      9  C   UNL     1       5.764   5.543  16.951  0.00  0.00    +0.000 A 
ATOM     10  C   UNL     1       5.390   6.856  16.565  0.00  0.00    +0.000 A 
ATOM     11  C   UNL     1       4.322   7.534  17.177  0.00  0.00    +0.000 A 
ATOM     12  C   UNL     1       3.660   6.844  18.177  0.00  0.00    +0.000 A 
ATOM     13  C   UNL     1       4.022   5.561  18.523  0.00  0.00    +0.000 A 
ENDROOT
BRANCH   9  14
ATOM     14  S   UNL     1       7.058   4.767  16.014  0.00  0.00    +0.000 S 
ATOM     15  O   UNL     1       7.525   5.726  15.038  0.00  0.00    +0.000 OA
ATOM     16  O   UNL     1       7.975   4.123  16.927  0.00  0.00    +0.000 OA
BRANCH  14  17
ATOM     17  N   UNL     1       6.294   3.549  15.127  0.00  0.00    +0.000 NA
ATOM     18  H   UNL     1       5.694   3.036  15.775  0.00  0.00    +0.000 HD
BRANCH  17  19
ATOM     19  C   UNL     1       5.640   3.948  13.859  0.00  0.00    +0.000 C 
BRANCH  19  20
ATOM     20  C   UNL     1       6.421   3.378  12.671  0.00  0.00    +0.000 C 
BRANCH  20  21
ATOM     21  O   UNL     1       5.626   2.431  11.956  0.00  0.00    +0.000 OA
ATOM     22  H   UNL     1       6.137   1.607  11.901  0.00  0.00    +0.000 HD
ENDBRANCH  20  21
ENDBRANCH  19  20
ENDBRANCH  17  19
ENDBRANCH  14  17
ENDBRANCH   9  14
BRANCH   1  24
ATOM     23  C   UNL     1       1.199   8.819  17.725  0.00  0.00    +0.000 C 
ATOM     24  C   UNL     1       1.952   8.514  19.006  0.00  0.00    +0.000 C 
ENDBRANCH   1  24
TORSDOF 6
ENDMDL
MODEL 8
REMARK VINA RESULT:      -6.6      1.345      3.150
REMARK  Name = 
REMARK  7 active torsions:
REMARK  status: ('A' for Active; 'I' for Inactive)
REMARK    1  A    between atoms: C_1  and  C_2
REMARK    2  A    between atoms: C_2  and  N_3
REMARK    3  A    between atoms: C_11  and  S_12
REMARK    4  A    between atoms: S_12  and  N_15
REMARK    5  A    between atoms: N_15  and  C_16
REMARK    6  A    between atoms: C_16  and  C_17
REMARK    7  A    between atoms: C_17  and  O_18
REMARK                            x       y       z     vdW  Elec       q    Type
REMARK                         _______ _______ _______ _____ _____    ______ ____
ROOT
ATOM      1  N   UNL     1       2.470   7.400  19.055  0.00  0.00    +0.000 N 
ATOM      2  C   UNL     1       2.086   6.423  19.999  0.00  0.00    +0.000 C 
ATOM      3  O   UNL     1       1.256   6.565  20.887  0.00  0.00    +0.000 OA
ATOM      4  C   UNL     1       2.925   5.290  19.642  0.00  0.00    +0.000 A 
ATOM      5  C   UNL     1       3.016   4.027  20.216  0.00  0.00    +0.000 A 
ATOM      6  C   UNL     1       3.948   3.143  19.648  0.00  0.00    +0.000 A 
ATOM      7  C   UNL     1       4.750   3.508  18.545  0.00  0.00    +0.000 A 
ATOM      8  C   UNL     1       4.645   4.796  17.956  0.00  0.00    +0.000 A 
ATOM      9  C   UNL     1       5.316   5.385  16.846  0.00  0.00    +0.000 A 
ATOM     10  C   UNL     1       5.013   6.705  16.426  0.00  0.00    +0.000 A 
ATOM     11  C   UNL     1       4.059   7.496  17.089  0.00  0.00    +0.000 A 
ATOM     12  C   UNL     1       3.436   6.908  18.175  0.00  0.00    +0.000 A 
ATOM     13  C   UNL     1       3.726   5.616  18.555  0.00  0.00    +0.000 A 
ENDROOT
BRANCH   9  14
ATOM     14  S   UNL     1       6.457   4.463  15.844  0.00  0.00    +0.000 S 
ATOM     15  O   UNL     1       7.757   4.548  16.473  0.00  0.00    +0.000 OA
ATOM     16  O   UNL     1       5.867   3.184  15.520  0.00  0.00    +0.000 OA
BRANCH  14  17
ATOM     17  N   UNL     1       6.589   5.336  14.404  0.00  0.00    +0.000 NA
ATOM     18  H   UNL     1       6.596   6.326  14.652  0.00  0.00    +0.000 HD
BRANCH  17  19
ATOM     19  C   UNL     1       7.655   4.924  13.462  0.00  0.00    +0.000 C 
BRANCH  19  20
ATOM     20  C   UNL     1       7.039   4.176  12.276  0.00  0.00    +0.000 C 
BRANCH  20  21
ATOM     21  O   UNL     1       6.319   3.028  12.727  0.00  0.00    +0.000 OA
ATOM     22  H   UNL     1       5.722   3.320  13.435  0.00  0.00    +0.000 HD
ENDBRANCH  20  21
ENDBRANCH  19  20
ENDBRANCH  17  19
ENDBRANCH  14  17
ENDBRANCH   9  14
BRANCH   1  24
ATOM     23  C   UNL     1       1.083   9.048  17.844  0.00  0.00    +0.000 C 
ATOM     24  C   UNL     1       1.944   8.748  19.058  0.00  0.00    +0.000 C 
ENDBRANCH   1  24
TORSDOF 6
ENDMDL
MODEL 9
REMARK VINA RESULT:      -6.5      1.434      2.981
REMARK  Name = 
REMARK  7 active torsions:
REMARK  status: ('A' for Active; 'I' for Inactive)
REMARK    1  A    between atoms: C_1  and  C_2
REMARK    2  A    between atoms: C_2  and  N_3
REMARK    3  A    between atoms: C_11  and  S_12
REMARK    4  A    between atoms: S_12  and  N_15
REMARK    5  A    between atoms: N_15  and  C_16
REMARK    6  A    between atoms: C_16  and  C_17
REMARK    7  A    between atoms: C_17  and  O_18
REMARK                            x       y       z     vdW  Elec       q    Type
REMARK                         _______ _______ _______ _____ _____    ______ ____
ROOT
ATOM      1  N   UNL     1       2.415   6.317  19.388  0.00  0.00    +0.000 N 
ATOM      2  C   UNL     1       1.818   5.075  19.696  0.00  0.00    +0.000 C 
ATOM      3  O   UNL     1       0.844   4.903  20.417  0.00  0.00    +0.000 OA
ATOM      4  C   UNL     1       2.656   4.132  18.973  0.00  0.00    +0.000 A 
ATOM      5  C   UNL     1       2.580   2.746  18.891  0.00  0.00    +0.000 A 
ATOM      6  C   UNL     1       3.560   2.106  18.115  0.00  0.00    +0.000 A 
ATOM      7  C   UNL     1       4.570   2.828  17.441  0.00  0.00    +0.000 A 
ATOM      8  C   UNL     1       4.635   4.245  17.519  0.00  0.00    +0.000 A 
ATOM      9  C   UNL     1       5.528   5.183  16.926  0.00  0.00    +0.000 A 
ATOM     10  C   UNL     1       5.370   6.577  17.138  0.00  0.00    +0.000 A 
ATOM     11  C   UNL     1       4.346   7.093  17.950  0.00  0.00    +0.000 A 
ATOM     12  C   UNL     1       3.505   6.160  18.530  0.00  0.00    +0.000 A 
ATOM     13  C   UNL     1       3.659   4.812  18.295  0.00  0.00    +0.000 A 
ENDROOT
BRANCH   9  14
ATOM     14  S   UNL     1       6.793   4.681  15.784  0.00  0.00    +0.000 S 
ATOM     15  O   UNL     1       7.040   5.791  14.892  0.00  0.00    +0.000 OA
ATOM     16  O   UNL     1       7.871   4.062  16.523  0.00  0.00    +0.000 OA
BRANCH  14  17
ATOM     17  N   UNL     1       6.081   3.480  14.833  0.00  0.00    +0.000 NA
ATOM     18  H   UNL     1       5.447   2.955  15.436  0.00  0.00    +0.000 HD
BRANCH  17  19
ATOM     19  C   UNL     1       5.500   3.903  13.538  0.00  0.00    +0.000 C 
BRANCH  19  20
ATOM     20  C   UNL     1       6.368   3.386  12.387  0.00  0.00    +0.000 C 
BRANCH  20  21
ATOM     21  O   UNL     1       5.857   2.150  11.889  0.00  0.00    +0.000 OA
ATOM     22  H   UNL     1       5.260   2.358  11.152  0.00  0.00    +0.000 HD
ENDBRANCH  20  21
ENDBRANCH  19  20
ENDBRANCH  17  19
ENDBRANCH  14  17
ENDBRANCH   9  14
BRANCH   1  24
ATOM     23  C   UNL     1       1.612   8.600  18.889  0.00  0.00    +0.000 C 
ATOM     24  C   UNL     1       1.960   7.571  19.950  0.00  0.00    +0.000 C 
ENDBRANCH   1  24
TORSDOF 6
ENDMDL
