MODEL 1
REMARK VINA RESULT:      -8.6      0.000      0.000
REMARK  Name = 
REMARK  1 active torsions:
REMARK  status: ('A' for Active; 'I' for Inactive)
REMARK    1  A    between atoms: N_10  and  C_11
REMARK                            x       y       z     vdW  Elec       q    Type
REMARK                         _______ _______ _______ _____ _____    ______ ____
ROOT
ATOM      1  C   UNL     1      -1.633  12.091  23.021  0.00  0.00    +0.000 A 
ATOM      2  C   UNL     1      -1.460  12.857  21.880  0.00  0.00    +0.000 A 
ATOM      3  C   UNL     1      -0.752  12.349  20.791  0.00  0.00    +0.000 A 
ATOM      4  C   UNL     1      -0.184  11.050  20.841  0.00  0.00    +0.000 A 
ATOM      5  C   UNL     1      -0.364  10.305  22.009  0.00  0.00    +0.000 A 
ATOM      6  C   UNL     1      -1.102  10.803  23.100  0.00  0.00    +0.000 A 
ATOM      7  S   UNL     1       0.419   8.780  21.909  0.00  0.00    +0.000 S 
ATOM      8  C   UNL     1       1.026   9.098  20.334  0.00  0.00    +0.000 A 
ATOM      9  C   UNL     1       1.843   8.290  19.528  0.00  0.00    +0.000 A 
ATOM     10  N   UNL     1       2.323   7.056  20.004  0.00  0.00    +0.000 N 
ATOM     11  N   UNL     1       2.129   8.751  18.288  0.00  0.00    +0.000 NA
ATOM     12  C   UNL     1       1.651   9.942  17.907  0.00  0.00    +0.000 A 
ATOM     13  N   UNL     1       0.902  10.782  18.623  0.00  0.00    +0.000 NA
ATOM     14  C   UNL     1       0.587  10.327  19.863  0.00  0.00    +0.000 A 
ATOM     15  H   UNL     1       1.966   6.863  20.933  0.00  0.00    +0.000 HD
ENDROOT
BRANCH  10  16
ATOM     16  C   UNL     1       2.621   5.886  19.280  0.00  0.00    +0.000 A 
ATOM     17  C   UNL     1       1.845   5.419  18.213  0.00  0.00    +0.000 A 
ATOM     18  C   UNL     1       2.063   4.151  17.668  0.00  0.00    +0.000 A 
ATOM     19  C   UNL     1       3.058   3.336  18.192  0.00  0.00    +0.000 A 
ATOM     20  C   UNL     1       3.916   3.841  19.164  0.00  0.00    +0.000 A 
ATOM     21  C   UNL     1       3.724   5.117  19.683  0.00  0.00    +0.000 A 
ATOM     22  O   UNL     1       4.930   3.090  19.697  0.00  0.00    +0.000 OA
ATOM     23  C   UNL     1       4.452   1.752  19.830  0.00  0.00    +0.000 C 
ATOM     24  C   UNL     1       3.968   1.191  18.497  0.00  0.00    +0.000 C 
ATOM     25  O   UNL     1       3.096   2.045  17.750  0.00  0.00    +0.000 OA
ENDBRANCH  10  16
TORSDOF 1
ENDMDL
MODEL 2
REMARK VINA RESULT:      -8.1      1.258      1.615
REMARK  Name = 
REMARK  1 active torsions:
REMARK  status: ('A' for Active; 'I' for Inactive)
REMARK    1  A    between atoms: N_10  and  C_11
REMARK                            x       y       z     vdW  Elec       q    Type
REMARK                         _______ _______ _______ _____ _____    ______ ____
ROOT
ATOM      1  C   UNL     1      -2.255  12.588  22.826  0.00  0.00    +0.000 A 
ATOM      2  C   UNL     1      -2.235  13.097  21.538  0.00  0.00    +0.000 A 
ATOM      3  C   UNL     1      -1.525  12.441  20.532  0.00  0.00    +0.000 A 
ATOM      4  C   UNL     1      -0.799  11.255  20.816  0.00  0.00    +0.000 A 
ATOM      5  C   UNL     1      -0.827  10.772  22.126  0.00  0.00    +0.000 A 
ATOM      6  C   UNL     1      -1.565  11.416  23.138  0.00  0.00    +0.000 A 
ATOM      7  S   UNL     1       0.133   9.359  22.295  0.00  0.00    +0.000 S 
ATOM      8  C   UNL     1       0.616   9.385  20.647  0.00  0.00    +0.000 A 
ATOM      9  C   UNL     1       1.485   8.512  19.973  0.00  0.00    +0.000 A 
ATOM     10  N   UNL     1       2.137   7.475  20.664  0.00  0.00    +0.000 N 
ATOM     11  N   UNL     1       1.649   8.716  18.645  0.00  0.00    +0.000 NA
ATOM     12  C   UNL     1       1.009   9.734  18.055  0.00  0.00    +0.000 A 
ATOM     13  N   UNL     1       0.199  10.624  18.631  0.00  0.00    +0.000 NA
ATOM     14  C   UNL     1       0.006  10.423  19.959  0.00  0.00    +0.000 A 
ATOM     15  H   UNL     1       1.854   7.455  21.637  0.00  0.00    +0.000 HD
ENDROOT
BRANCH  10  16
ATOM     16  C   UNL     1       2.541   6.213  20.187  0.00  0.00    +0.000 A 
ATOM     17  C   UNL     1       3.691   6.012  19.415  0.00  0.00    +0.000 A 
ATOM     18  C   UNL     1       3.932   4.783  18.794  0.00  0.00    +0.000 A 
ATOM     19  C   UNL     1       3.019   3.747  18.936  0.00  0.00    +0.000 A 
ATOM     20  C   UNL     1       1.941   3.898  19.803  0.00  0.00    +0.000 A 
ATOM     21  C   UNL     1       1.718   5.108  20.451  0.00  0.00    +0.000 A 
ATOM     22  O   UNL     1       1.023   2.899  20.001  0.00  0.00    +0.000 OA
ATOM     23  C   UNL     1       0.811   2.255  18.745  0.00  0.00    +0.000 C 
ATOM     24  C   UNL     1       2.114   1.723  18.156  0.00  0.00    +0.000 C 
ATOM     25  O   UNL     1       3.210   2.643  18.156  0.00  0.00    +0.000 OA
ENDBRANCH  10  16
TORSDOF 1
ENDMDL
MODEL 3
REMARK VINA RESULT:      -7.9      2.250      2.421
REMARK  Name = 
REMARK  1 active torsions:
REMARK  status: ('A' for Active; 'I' for Inactive)
REMARK    1  A    between atoms: N_10  and  C_11
REMARK                            x       y       z     vdW  Elec       q    Type
REMARK                         _______ _______ _______ _____ _____    ______ ____
ROOT
ATOM      1  C   UNL     1      -1.402  10.822  23.332  0.00  0.00    +0.000 A 
ATOM      2  C   UNL     1      -1.526  11.776  22.336  0.00  0.00    +0.000 A 
ATOM      3  C   UNL     1      -0.888  11.600  21.108  0.00  0.00    +0.000 A 
ATOM      4  C   UNL     1      -0.088  10.454  20.867  0.00  0.00    +0.000 A 
ATOM      5  C   UNL     1       0.029   9.514  21.894  0.00  0.00    +0.000 A 
ATOM      6  C   UNL     1      -0.637   9.673  23.125  0.00  0.00    +0.000 A 
ATOM      7  S   UNL     1       1.059   8.216  21.444  0.00  0.00    +0.000 S 
ATOM      8  C   UNL     1       1.382   8.895  19.899  0.00  0.00    +0.000 A 
ATOM      9  C   UNL     1       2.220   8.407  18.884  0.00  0.00    +0.000 A 
ATOM     10  N   UNL     1       2.978   7.238  19.080  0.00  0.00    +0.000 N 
ATOM     11  N   UNL     1       2.248   9.105  17.725  0.00  0.00    +0.000 NA
ATOM     12  C   UNL     1       1.512  10.218  17.614  0.00  0.00    +0.000 A 
ATOM     13  N   UNL     1       0.723  10.764  18.540  0.00  0.00    +0.000 NA
ATOM     14  C   UNL     1       0.666  10.065  19.703  0.00  0.00    +0.000 A 
ATOM     15  H   UNL     1       2.789   6.833  19.990  0.00  0.00    +0.000 HD
ENDROOT
BRANCH  10  16
ATOM     16  C   UNL     1       3.388   6.282  18.132  0.00  0.00    +0.000 A 
ATOM     17  C   UNL     1       2.938   4.957  18.127  0.00  0.00    +0.000 A 
ATOM     18  C   UNL     1       3.530   4.000  17.298  0.00  0.00    +0.000 A 
ATOM     19  C   UNL     1       4.586   4.362  16.471  0.00  0.00    +0.000 A 
ATOM     20  C   UNL     1       4.953   5.701  16.376  0.00  0.00    +0.000 A 
ATOM     21  C   UNL     1       4.340   6.661  17.173  0.00  0.00    +0.000 A 
ATOM     22  O   UNL     1       5.970   6.118  15.557  0.00  0.00    +0.000 OA
ATOM     23  C   UNL     1       6.994   5.125  15.602  0.00  0.00    +0.000 C 
ATOM     24  C   UNL     1       6.466   3.751  15.200  0.00  0.00    +0.000 C 
ATOM     25  O   UNL     1       5.245   3.352  15.833  0.00  0.00    +0.000 OA
ENDBRANCH  10  16
TORSDOF 1
ENDMDL
MODEL 4
REMARK VINA RESULT:      -7.7      1.162      1.581
REMARK  Name = 
REMARK  1 active torsions:
REMARK  status: ('A' for Active; 'I' for Inactive)
REMARK    1  A    between atoms: N_10  and  C_11
REMARK                            x       y       z     vdW  Elec       q    Type
REMARK                         _______ _______ _______ _____ _____    ______ ____
ROOT
ATOM      1  C   UNL     1      -1.648  12.889  22.715  0.00  0.00    +0.000 A 
ATOM      2  C   UNL     1      -1.323  13.400  21.470  0.00  0.00    +0.000 A 
ATOM      3  C   UNL     1      -0.628  12.619  20.547  0.00  0.00    +0.000 A 
ATOM      4  C   UNL     1      -0.228  11.298  20.874  0.00  0.00    +0.000 A 
ATOM      5  C   UNL     1      -0.559  10.813  22.142  0.00  0.00    +0.000 A 
ATOM      6  C   UNL     1      -1.285  11.588  23.067  0.00  0.00    +0.000 A 
ATOM      7  S   UNL     1       0.034   9.219  22.379  0.00  0.00    +0.000 S 
ATOM      8  C   UNL     1       0.757   9.163  20.822  0.00  0.00    +0.000 A 
ATOM      9  C   UNL     1       1.508   8.130  20.240  0.00  0.00    +0.000 A 
ATOM     10  N   UNL     1       1.807   6.963  20.966  0.00  0.00    +0.000 N 
ATOM     11  N   UNL     1       1.912   8.313  18.961  0.00  0.00    +0.000 NA
ATOM     12  C   UNL     1       1.605   9.456  18.334  0.00  0.00    +0.000 A 
ATOM     13  N   UNL     1       0.930  10.495  18.829  0.00  0.00    +0.000 NA
ATOM     14  C   UNL     1       0.497  10.321  20.104  0.00  0.00    +0.000 A 
ATOM     15  H   UNL     1       1.381   6.991  21.886  0.00  0.00    +0.000 HD
ENDROOT
BRANCH  10  16
ATOM     16  C   UNL     1       1.995   5.651  20.492  0.00  0.00    +0.000 A 
ATOM     17  C   UNL     1       2.044   4.528  21.325  0.00  0.00    +0.000 A 
ATOM     18  C   UNL     1       2.440   3.283  20.829  0.00  0.00    +0.000 A 
ATOM     19  C   UNL     1       2.797   3.154  19.493  0.00  0.00    +0.000 A 
ATOM     20  C   UNL     1       2.629   4.233  18.632  0.00  0.00    +0.000 A 
ATOM     21  C   UNL     1       2.200   5.465  19.116  0.00  0.00    +0.000 A 
ATOM     22  O   UNL     1       2.940   4.154  17.300  0.00  0.00    +0.000 OA
ATOM     23  C   UNL     1       4.117   3.356  17.179  0.00  0.00    +0.000 C 
ATOM     24  C   UNL     1       3.929   1.976  17.803  0.00  0.00    +0.000 C 
ATOM     25  O   UNL     1       3.355   1.967  19.115  0.00  0.00    +0.000 OA
ENDBRANCH  10  16
TORSDOF 1
ENDMDL
MODEL 5
REMARK VINA RESULT:      -7.5      5.430      9.981
REMARK  Name = 
REMARK  1 active torsions:
REMARK  status: ('A' for Active; 'I' for Inactive)
REMARK    1  A    between atoms: N_10  and  C_11
REMARK                            x       y       z     vdW  Elec       q    Type
REMARK                         _______ _______ _______ _____ _____    ______ ____
ROOT
ATOM      1  C   UNL     1       2.277   8.140  17.906  0.00  0.00    +0.000 A 
ATOM      2  C   UNL     1       2.441   7.461  19.102  0.00  0.00    +0.000 A 
ATOM      3  C   UNL     1       1.783   7.891  20.253  0.00  0.00    +0.000 A 
ATOM      4  C   UNL     1       0.951   9.040  20.223  0.00  0.00    +0.000 A 
ATOM      5  C   UNL     1       0.813   9.713  19.007  0.00  0.00    +0.000 A 
ATOM      6  C   UNL     1       1.454   9.266  17.835  0.00  0.00    +0.000 A 
ATOM      7  S   UNL     1      -0.194  11.094  19.163  0.00  0.00    +0.000 S 
ATOM      8  C   UNL     1      -0.438  10.834  20.843  0.00  0.00    +0.000 A 
ATOM      9  C   UNL     1      -1.172  11.609  21.755  0.00  0.00    +0.000 A 
ATOM     10  N   UNL     1      -1.788  12.806  21.345  0.00  0.00    +0.000 N 
ATOM     11  N   UNL     1      -1.261  11.144  23.022  0.00  0.00    +0.000 NA
ATOM     12  C   UNL     1      -0.636  10.004  23.347  0.00  0.00    +0.000 A 
ATOM     13  N   UNL     1       0.108   9.233  22.552  0.00  0.00    +0.000 NA
ATOM     14  C   UNL     1       0.191   9.674  21.270  0.00  0.00    +0.000 A 
ATOM     15  H   UNL     1      -1.648  12.963  20.353  0.00  0.00    +0.000 HD
ENDROOT
BRANCH  10  16
ATOM     16  C   UNL     1      -2.965  13.405  21.832  0.00  0.00    +0.000 A 
ATOM     17  C   UNL     1      -2.989  14.644  22.482  0.00  0.00    +0.000 A 
ATOM     18  C   UNL     1      -4.144  15.094  23.128  0.00  0.00    +0.000 A 
ATOM     19  C   UNL     1      -5.285  14.301  23.133  0.00  0.00    +0.000 A 
ATOM     20  C   UNL     1      -5.308  13.130  22.382  0.00  0.00    +0.000 A 
ATOM     21  C   UNL     1      -4.171  12.698  21.708  0.00  0.00    +0.000 A 
ATOM     22  O   UNL     1      -6.415  12.324  22.330  0.00  0.00    +0.000 OA
ATOM     23  C   UNL     1      -7.007  12.320  23.629  0.00  0.00    +0.000 C 
ATOM     24  C   UNL     1      -7.351  13.731  24.097  0.00  0.00    +0.000 C 
ATOM     25  O   UNL     1      -6.312  14.703  23.937  0.00  0.00    +0.000 OA
ENDBRANCH  10  16
TORSDOF 1
ENDMDL
MODEL 6
REMARK VINA RESULT:      -7.4      2.378      3.302
REMARK  Name = 
REMARK  1 active torsions:
REMARK  status: ('A' for Active; 'I' for Inactive)
REMARK    1  A    between atoms: N_10  and  C_11
REMARK                            x       y       z     vdW  Elec       q    Type
REMARK                         _______ _______ _______ _____ _____    ______ ____
ROOT
ATOM      1  C   UNL     1      -0.589  14.615  19.763  0.00  0.00    +0.000 A 
ATOM      2  C   UNL     1      -0.750  14.318  21.107  0.00  0.00    +0.000 A 
ATOM      3  C   UNL     1      -0.353  13.078  21.606  0.00  0.00    +0.000 A 
ATOM      4  C   UNL     1       0.202  12.096  20.746  0.00  0.00    +0.000 A 
ATOM      5  C   UNL     1       0.341  12.418  19.393  0.00  0.00    +0.000 A 
ATOM      6  C   UNL     1      -0.032  13.679  18.890  0.00  0.00    +0.000 A 
ATOM      7  S   UNL     1       0.991  11.106  18.498  0.00  0.00    +0.000 S 
ATOM      8  C   UNL     1       1.072  10.090  19.881  0.00  0.00    +0.000 A 
ATOM      9  C   UNL     1       1.496   8.754  19.965  0.00  0.00    +0.000 A 
ATOM     10  N   UNL     1       1.880   8.049  18.810  0.00  0.00    +0.000 N 
ATOM     11  N   UNL     1       1.525   8.198  21.198  0.00  0.00    +0.000 NA
ATOM     12  C   UNL     1       1.130   8.923  22.253  0.00  0.00    +0.000 A 
ATOM     13  N   UNL     1       0.681  10.179  22.251  0.00  0.00    +0.000 NA
ATOM     14  C   UNL     1       0.666  10.761  21.024  0.00  0.00    +0.000 A 
ATOM     15  H   UNL     1       1.835   8.646  17.991  0.00  0.00    +0.000 HD
ENDROOT
BRANCH  10  16
ATOM     16  C   UNL     1       2.825   7.014  18.680  0.00  0.00    +0.000 A 
ATOM     17  C   UNL     1       2.881   5.908  19.536  0.00  0.00    +0.000 A 
ATOM     18  C   UNL     1       3.961   5.022  19.494  0.00  0.00    +0.000 A 
ATOM     19  C   UNL     1       4.998   5.240  18.596  0.00  0.00    +0.000 A 
ATOM     20  C   UNL     1       4.888   6.261  17.657  0.00  0.00    +0.000 A 
ATOM     21  C   UNL     1       3.797   7.123  17.673  0.00  0.00    +0.000 A 
ATOM     22  O   UNL     1       5.869   6.504  16.732  0.00  0.00    +0.000 OA
ATOM     23  C   UNL     1       7.127   6.291  17.371  0.00  0.00    +0.000 C 
ATOM     24  C   UNL     1       7.232   4.886  17.956  0.00  0.00    +0.000 C 
ATOM     25  O   UNL     1       6.108   4.457  18.732  0.00  0.00    +0.000 OA
ENDBRANCH  10  16
TORSDOF 1
ENDMDL
MODEL 7
REMARK VINA RESULT:      -7.3      3.923      8.588
REMARK  Name = 
REMARK  1 active torsions:
REMARK  status: ('A' for Active; 'I' for Inactive)
REMARK    1  A    between atoms: N_10  and  C_11
REMARK                            x       y       z     vdW  Elec       q    Type
REMARK                         _______ _______ _______ _____ _____    ______ ____
ROOT
ATOM      1  C   UNL     1       5.898   4.680  15.621  0.00  0.00    +0.000 A 
ATOM      2  C   UNL     1       5.574   3.665  16.506  0.00  0.00    +0.000 A 
ATOM      3  C   UNL     1       4.676   3.899  17.548  0.00  0.00    +0.000 A 
ATOM      4  C   UNL     1       4.098   5.182  17.729  0.00  0.00    +0.000 A 
ATOM      5  C   UNL     1       4.453   6.190  16.829  0.00  0.00    +0.000 A 
ATOM      6  C   UNL     1       5.337   5.951  15.759  0.00  0.00    +0.000 A 
ATOM      7  S   UNL     1       3.692   7.678  17.220  0.00  0.00    +0.000 S 
ATOM      8  C   UNL     1       2.907   7.015  18.596  0.00  0.00    +0.000 A 
ATOM      9  C   UNL     1       2.069   7.655  19.523  0.00  0.00    +0.000 A 
ATOM     10  N   UNL     1       1.817   9.036  19.427  0.00  0.00    +0.000 N 
ATOM     11  N   UNL     1       1.520   6.882  20.489  0.00  0.00    +0.000 NA
ATOM     12  C   UNL     1       1.817   5.577  20.530  0.00  0.00    +0.000 A 
ATOM     13  N   UNL     1       2.628   4.904  19.712  0.00  0.00    +0.000 NA
ATOM     14  C   UNL     1       3.171   5.659  18.723  0.00  0.00    +0.000 A 
ATOM     15  H   UNL     1       2.277   9.431  18.615  0.00  0.00    +0.000 HD
ENDROOT
BRANCH  10  16
ATOM     16  C   UNL     1       0.665   9.751  19.804  0.00  0.00    +0.000 A 
ATOM     17  C   UNL     1      -0.363  10.084  18.915  0.00  0.00    +0.000 A 
ATOM     18  C   UNL     1      -1.378  10.969  19.289  0.00  0.00    +0.000 A 
ATOM     19  C   UNL     1      -1.367  11.535  20.557  0.00  0.00    +0.000 A 
ATOM     20  C   UNL     1      -0.423  11.112  21.488  0.00  0.00    +0.000 A 
ATOM     21  C   UNL     1       0.566  10.203  21.129  0.00  0.00    +0.000 A 
ATOM     22  O   UNL     1      -0.383  11.617  22.761  0.00  0.00    +0.000 OA
ATOM     23  C   UNL     1      -0.696  13.007  22.684  0.00  0.00    +0.000 C 
ATOM     24  C   UNL     1      -2.049  13.244  22.020  0.00  0.00    +0.000 C 
ATOM     25  O   UNL     1      -2.268  12.532  20.797  0.00  0.00    +0.000 OA
ENDBRANCH  10  16
TORSDOF 1
ENDMDL
MODEL 8
REMARK VINA RESULT:      -7.3      6.161      9.083
REMARK  Name = 
REMARK  1 active torsions:
REMARK  status: ('A' for Active; 'I' for Inactive)
REMARK    1  A    between atoms: N_10  and  C_11
REMARK                            x       y       z     vdW  Elec       q    Type
REMARK                         _______ _______ _______ _____ _____    ______ ____
ROOT
ATOM      1  C   UNL     1       1.499   3.824  17.883  0.00  0.00    +0.000 A 
ATOM      2  C   UNL     1       2.421   2.799  18.021  0.00  0.00    +0.000 A 
ATOM      3  C   UNL     1       3.786   3.081  18.070  0.00  0.00    +0.000 A 
ATOM      4  C   UNL     1       4.252   4.416  17.960  0.00  0.00    +0.000 A 
ATOM      5  C   UNL     1       3.301   5.428  17.809  0.00  0.00    +0.000 A 
ATOM      6  C   UNL     1       1.921   5.151  17.787  0.00  0.00    +0.000 A 
ATOM      7  S   UNL     1       4.042   6.969  17.654  0.00  0.00    +0.000 S 
ATOM      8  C   UNL     1       5.626   6.314  17.758  0.00  0.00    +0.000 A 
ATOM      9  C   UNL     1       6.859   6.980  17.677  0.00  0.00    +0.000 A 
ATOM     10  N   UNL     1       6.911   8.364  17.430  0.00  0.00    +0.000 N 
ATOM     11  N   UNL     1       7.973   6.232  17.858  0.00  0.00    +0.000 NA
ATOM     12  C   UNL     1       7.849   4.916  18.073  0.00  0.00    +0.000 A 
ATOM     13  N   UNL     1       6.722   4.206  18.127  0.00  0.00    +0.000 NA
ATOM     14  C   UNL     1       5.592   4.944  17.970  0.00  0.00    +0.000 A 
ATOM     15  H   UNL     1       5.978   8.756  17.370  0.00  0.00    +0.000 HD
ENDROOT
BRANCH  10  16
ATOM     16  C   UNL     1       7.870   9.302  17.858  0.00  0.00    +0.000 A 
ATOM     17  C   UNL     1       8.807   9.044  18.865  0.00  0.00    +0.000 A 
ATOM     18  C   UNL     1       9.594  10.071  19.393  0.00  0.00    +0.000 A 
ATOM     19  C   UNL     1       9.443  11.369  18.921  0.00  0.00    +0.000 A 
ATOM     20  C   UNL     1       8.608  11.610  17.835  0.00  0.00    +0.000 A 
ATOM     21  C   UNL     1       7.851  10.582  17.283  0.00  0.00    +0.000 A 
ATOM     22  O   UNL     1       8.442  12.865  17.312  0.00  0.00    +0.000 OA
ATOM     23  C   UNL     1       8.437  13.788  18.400  0.00  0.00    +0.000 C 
ATOM     24  C   UNL     1       9.710  13.683  19.235  0.00  0.00    +0.000 C 
ATOM     25  O   UNL     1      10.095  12.354  19.604  0.00  0.00    +0.000 OA
ENDBRANCH  10  16
TORSDOF 1
ENDMDL
MODEL 9
REMARK VINA RESULT:      -7.3      1.404      2.040
REMARK  Name = 
REMARK  1 active torsions:
REMARK  status: ('A' for Active; 'I' for Inactive)
REMARK    1  A    between atoms: N_10  and  C_11
REMARK                            x       y       z     vdW  Elec       q    Type
REMARK                         _______ _______ _______ _____ _____    ______ ____
ROOT
ATOM      1  C   UNL     1      -1.473  13.185  20.309  0.00  0.00    +0.000 A 
ATOM      2  C   UNL     1      -0.745  13.470  19.166  0.00  0.00    +0.000 A 
ATOM      3  C   UNL     1       0.115  12.516  18.622  0.00  0.00    +0.000 A 
ATOM      4  C   UNL     1       0.272  11.249  19.240  0.00  0.00    +0.000 A 
ATOM      5  C   UNL     1      -0.466  10.993  20.398  0.00  0.00    +0.000 A 
ATOM      6  C   UNL     1      -1.356  11.943  20.935  0.00  0.00    +0.000 A 
ATOM      7  S   UNL     1      -0.125   9.433  21.028  0.00  0.00    +0.000 S 
ATOM      8  C   UNL     1       1.019   9.089  19.794  0.00  0.00    +0.000 A 
ATOM      9  C   UNL     1       1.807   7.940  19.623  0.00  0.00    +0.000 A 
ATOM     10  N   UNL     1       1.763   6.894  20.563  0.00  0.00    +0.000 N 
ATOM     11  N   UNL     1       2.589   7.893  18.520  0.00  0.00    +0.000 NA
ATOM     12  C   UNL     1       2.593   8.932  17.675  0.00  0.00    +0.000 A 
ATOM     13  N   UNL     1       1.903  10.069  17.785  0.00  0.00    +0.000 NA
ATOM     14  C   UNL     1       1.097  10.125  18.876  0.00  0.00    +0.000 A 
ATOM     15  H   UNL     1       1.088   7.092  21.293  0.00  0.00    +0.000 HD
ENDROOT
BRANCH  10  16
ATOM     16  C   UNL     1       1.958   5.515  20.359  0.00  0.00    +0.000 A 
ATOM     17  C   UNL     1       2.185   4.605  21.398  0.00  0.00    +0.000 A 
ATOM     18  C   UNL     1       2.578   3.292  21.129  0.00  0.00    +0.000 A 
ATOM     19  C   UNL     1       2.754   2.880  19.814  0.00  0.00    +0.000 A 
ATOM     20  C   UNL     1       2.407   3.738  18.775  0.00  0.00    +0.000 A 
ATOM     21  C   UNL     1       1.981   5.035  19.041  0.00  0.00    +0.000 A 
ATOM     22  O   UNL     1       2.536   3.374  17.460  0.00  0.00    +0.000 OA
ATOM     23  C   UNL     1       3.727   2.598  17.342  0.00  0.00    +0.000 C 
ATOM     24  C   UNL     1       3.706   1.387  18.268  0.00  0.00    +0.000 C 
ATOM     25  O   UNL     1       3.321   1.653  19.621  0.00  0.00    +0.000 OA
ENDBRANCH  10  16
TORSDOF 1
ENDMDL
