MODEL 1
REMARK VINA RESULT:      -8.8      0.000      0.000
REMARK  Name = 
REMARK  11 active torsions:
REMARK  status: ('A' for Active; 'I' for Inactive)
REMARK    1  A    between atoms: C_1  and  C_2
REMARK    2  A    between atoms: C_2  and  C_3
REMARK    3  A    between atoms: N_5  and  C_6
REMARK    4  A    between atoms: C_8  and  C_9
REMARK    5  A    between atoms: C_9  and  N_10
REMARK    6  A    between atoms: N_10  and  C_11
REMARK    7  A    between atoms: C_12  and  C_13
REMARK    8  A    between atoms: C_15  and  C_16
REMARK    9  A    between atoms: N_18  and  C_19
REMARK   10  A    between atoms: C_23  and  N_24
REMARK   11  A    between atoms: C_31  and  O_32
REMARK                            x       y       z     vdW  Elec       q    Type
REMARK                         _______ _______ _______ _____ _____    ______ ____
ROOT
ATOM      1  N   UNL     1       2.502   6.868  17.841  0.00  0.00    +0.000 N 
ATOM      2  H   UNL     1       1.867   6.689  17.060  0.00  0.00    +0.000 HD
ENDROOT
BRANCH   1   3
ATOM      3  C   UNL     1       2.374   6.148  19.000  0.00  0.00    +0.000 A 
ATOM      4  C   UNL     1       2.679   4.831  19.315  0.00  0.00    +0.000 A 
ATOM      5  C   UNL     1       2.225   4.620  20.630  0.00  0.00    +0.000 A 
ATOM      6  C   UNL     1       2.262   3.383  21.450  0.00  0.00    +0.000 C 
ATOM      7  N   UNL     1       1.656   5.713  21.133  0.00  0.00    +0.000 NA
ATOM      8  N   UNL     1       1.761   6.663  20.162  0.00  0.00    +0.000 N 
BRANCH   8   9
ATOM      9  C   UNL     1       1.275   7.978  20.458  0.00  0.00    +0.000 A 
ATOM     10  C   UNL     1       1.310   8.945  19.432  0.00  0.00    +0.000 A 
ATOM     11  C   UNL     1       0.869  10.250  19.653  0.00  0.00    +0.000 A 
ATOM     12  C   UNL     1       0.362  10.606  20.899  0.00  0.00    +0.000 A 
ATOM     13  C   UNL     1       0.292   9.646  21.913  0.00  0.00    +0.000 A 
ATOM     14  C   UNL     1       0.748   8.330  21.701  0.00  0.00    +0.000 A 
BRANCH  13  15
ATOM     15  N   UNL     1      -0.273  10.022  23.219  0.00  0.00    +0.000 N 
ATOM     16  O   UNL     1       0.306   9.624  24.239  0.00  0.00    +0.000 OA
ATOM     17  O   UNL     1      -1.301  10.718  23.216  0.00  0.00    +0.000 OA
ENDBRANCH  13  15
ENDBRANCH   8   9
BRANCH   4  18
ATOM     18  C   UNL     1       3.231   3.821  18.472  0.00  0.00    +0.000 C 
ATOM     19  N   UNL     1       3.638   2.994  17.766  0.00  0.00    +0.000 NA
ENDBRANCH   4  18
ENDBRANCH   1   3
BRANCH   1  20
ATOM     20  C   UNL     1       3.711   7.583  17.450  0.00  0.00    +0.000 C 
BRANCH  20  23
ATOM     21  C   UNL     1       6.137   5.135  15.746  0.00  0.00    +0.000 A 
ATOM     22  C   UNL     1       5.079   6.032  15.928  0.00  0.00    +0.000 A 
ATOM     23  C   UNL     1       4.904   6.702  17.148  0.00  0.00    +0.000 A 
ATOM     24  C   UNL     1       5.869   6.516  18.156  0.00  0.00    +0.000 A 
ATOM     25  C   UNL     1       6.937   5.638  17.966  0.00  0.00    +0.000 A 
ATOM     26 CL   UNL     1       8.116   5.454  19.212  0.00  0.00    +0.000 Cl
ATOM     27  C   UNL     1       7.054   4.924  16.776  0.00  0.00    +0.000 A 
BRANCH  21  30
ATOM     28  C   UNL     1       7.200   4.737  13.567  0.00  0.00    +0.000 C 
ATOM     29  O   UNL     1       7.988   5.677  13.626  0.00  0.00    +0.000 OA
ATOM     30  N   UNL     1       6.295   4.399  14.555  0.00  0.00    +0.000 N 
ATOM     31  H   UNL     1       5.997   3.431  14.616  0.00  0.00    +0.000 HD
BRANCH  28  33
ATOM     32  C   UNL     1       5.723   3.238  12.202  0.00  0.00    +0.000 C 
ATOM     33  C   UNL     1       7.118   3.816  12.366  0.00  0.00    +0.000 C 
ENDBRANCH  28  33
ENDBRANCH  21  30
BRANCH  27  34
ATOM     34  O   UNL     1       8.091   4.049  16.554  0.00  0.00    +0.000 OA
ATOM     35  H   UNL     1       8.772   4.249  17.223  0.00  0.00    +0.000 HD
ENDBRANCH  27  34
ENDBRANCH  20  23
ENDBRANCH   1  20
TORSDOF 9
ENDMDL
MODEL 2
REMARK VINA RESULT:      -8.5      1.645      1.936
REMARK  Name = 
REMARK  11 active torsions:
REMARK  status: ('A' for Active; 'I' for Inactive)
REMARK    1  A    between atoms: C_1  and  C_2
REMARK    2  A    between atoms: C_2  and  C_3
REMARK    3  A    between atoms: N_5  and  C_6
REMARK    4  A    between atoms: C_8  and  C_9
REMARK    5  A    between atoms: C_9  and  N_10
REMARK    6  A    between atoms: N_10  and  C_11
REMARK    7  A    between atoms: C_12  and  C_13
REMARK    8  A    between atoms: C_15  and  C_16
REMARK    9  A    between atoms: N_18  and  C_19
REMARK   10  A    between atoms: C_23  and  N_24
REMARK   11  A    between atoms: C_31  and  O_32
REMARK                            x       y       z     vdW  Elec       q    Type
REMARK                         _______ _______ _______ _____ _____    ______ ____
ROOT
ATOM      1  N   UNL     1       2.507   7.023  17.832  0.00  0.00    +0.000 N 
ATOM      2  H   UNL     1       1.852   6.880  17.062  0.00  0.00    +0.000 HD
ENDROOT
BRANCH   1   3
ATOM      3  C   UNL     1       2.363   6.303  18.990  0.00  0.00    +0.000 A 
ATOM      4  C   UNL     1       2.615   4.973  19.295  0.00  0.00    +0.000 A 
ATOM      5  C   UNL     1       2.170   4.776  20.615  0.00  0.00    +0.000 A 
ATOM      6  C   UNL     1       2.164   3.534  21.429  0.00  0.00    +0.000 C 
ATOM      7  N   UNL     1       1.654   5.890  21.130  0.00  0.00    +0.000 NA
ATOM      8  N   UNL     1       1.788   6.839  20.162  0.00  0.00    +0.000 N 
BRANCH   8   9
ATOM      9  C   UNL     1       1.363   8.171  20.470  0.00  0.00    +0.000 A 
ATOM     10  C   UNL     1       1.023   8.467  21.806  0.00  0.00    +0.000 A 
ATOM     11  C   UNL     1       0.586   9.740  22.177  0.00  0.00    +0.000 A 
ATOM     12  C   UNL     1       0.503  10.747  21.221  0.00  0.00    +0.000 A 
ATOM     13  C   UNL     1       0.869  10.473  19.899  0.00  0.00    +0.000 A 
ATOM     14  C   UNL     1       1.298   9.188  19.515  0.00  0.00    +0.000 A 
BRANCH  13  15
ATOM     15  N   UNL     1       0.806  11.552  18.899  0.00  0.00    +0.000 N 
ATOM     16  O   UNL     1      -0.311  11.974  18.570  0.00  0.00    +0.000 OA
ATOM     17  O   UNL     1       1.883  11.971  18.447  0.00  0.00    +0.000 OA
ENDBRANCH  13  15
ENDBRANCH   8   9
BRANCH   4  18
ATOM     18  C   UNL     1       3.113   3.945  18.440  0.00  0.00    +0.000 C 
ATOM     19  N   UNL     1       3.474   3.100  17.730  0.00  0.00    +0.000 NA
ENDBRANCH   4  18
ENDBRANCH   1   3
BRANCH   1  20
ATOM     20  C   UNL     1       3.744   7.681  17.425  0.00  0.00    +0.000 C 
BRANCH  20  23
ATOM     21  C   UNL     1       6.047   5.026  15.869  0.00  0.00    +0.000 A 
ATOM     22  C   UNL     1       5.016   5.960  16.006  0.00  0.00    +0.000 A 
ATOM     23  C   UNL     1       4.905   6.748  17.161  0.00  0.00    +0.000 A 
ATOM     24  C   UNL     1       5.909   6.638  18.143  0.00  0.00    +0.000 A 
ATOM     25  C   UNL     1       6.952   5.721  17.996  0.00  0.00    +0.000 A 
ATOM     26 CL   UNL     1       8.178   5.630  19.205  0.00  0.00    +0.000 Cl
ATOM     27  C   UNL     1       7.003   4.894  16.876  0.00  0.00    +0.000 A 
BRANCH  21  30
ATOM     28  C   UNL     1       6.842   4.502  13.603  0.00  0.00    +0.000 C 
ATOM     29  O   UNL     1       7.487   5.534  13.443  0.00  0.00    +0.000 OA
ATOM     30  N   UNL     1       6.142   4.176  14.749  0.00  0.00    +0.000 N 
ATOM     31  H   UNL     1       5.997   3.193  14.954  0.00  0.00    +0.000 HD
BRANCH  28  33
ATOM     32  C   UNL     1       5.302   3.326  12.009  0.00  0.00    +0.000 C 
ATOM     33  C   UNL     1       6.725   3.438  12.530  0.00  0.00    +0.000 C 
ENDBRANCH  28  33
ENDBRANCH  21  30
BRANCH  27  34
ATOM     34  O   UNL     1       8.013   3.978  16.698  0.00  0.00    +0.000 OA
ATOM     35  H   UNL     1       7.689   3.330  16.043  0.00  0.00    +0.000 HD
ENDBRANCH  27  34
ENDBRANCH  20  23
ENDBRANCH   1  20
TORSDOF 9
ENDMDL
MODEL 3
REMARK VINA RESULT:      -8.5      2.873      4.930
REMARK  Name = 
REMARK  11 active torsions:
REMARK  status: ('A' for Active; 'I' for Inactive)
REMARK    1  A    between atoms: C_1  and  C_2
REMARK    2  A    between atoms: C_2  and  C_3
REMARK    3  A    between atoms: N_5  and  C_6
REMARK    4  A    between atoms: C_8  and  C_9
REMARK    5  A    between atoms: C_9  and  N_10
REMARK    6  A    between atoms: N_10  and  C_11
REMARK    7  A    between atoms: C_12  and  C_13
REMARK    8  A    between atoms: C_15  and  C_16
REMARK    9  A    between atoms: N_18  and  C_19
REMARK   10  A    between atoms: C_23  and  N_24
REMARK   11  A    between atoms: C_31  and  O_32
REMARK                            x       y       z     vdW  Elec       q    Type
REMARK                         _______ _______ _______ _____ _____    ______ ____
ROOT
ATOM      1  N   UNL     1       2.531   7.406  17.804  0.00  0.00    +0.000 N 
ATOM      2  H   UNL     1       2.251   6.566  17.296  0.00  0.00    +0.000 HD
ENDROOT
BRANCH   1   3
ATOM      3  C   UNL     1       1.967   7.682  19.023  0.00  0.00    +0.000 A 
ATOM      4  C   UNL     1       1.483   8.859  19.578  0.00  0.00    +0.000 A 
ATOM      5  C   UNL     1       1.127   8.556  20.905  0.00  0.00    +0.000 A 
ATOM      6  C   UNL     1       0.591   9.451  21.962  0.00  0.00    +0.000 C 
ATOM      7  N   UNL     1       1.371   7.281  21.199  0.00  0.00    +0.000 NA
ATOM      8  N   UNL     1       1.860   6.726  20.055  0.00  0.00    +0.000 N 
BRANCH   8   9
ATOM      9  C   UNL     1       2.157   5.325  20.066  0.00  0.00    +0.000 A 
ATOM     10  C   UNL     1       2.105   4.645  21.300  0.00  0.00    +0.000 A 
ATOM     11  C   UNL     1       2.399   3.284  21.390  0.00  0.00    +0.000 A 
ATOM     12  C   UNL     1       2.727   2.572  20.241  0.00  0.00    +0.000 A 
ATOM     13  C   UNL     1       2.750   3.229  19.006  0.00  0.00    +0.000 A 
ATOM     14  C   UNL     1       2.468   4.606  18.911  0.00  0.00    +0.000 A 
BRANCH  13  15
ATOM     15  N   UNL     1       3.069   2.462  17.791  0.00  0.00    +0.000 N 
ATOM     16  O   UNL     1       2.127   1.999  17.133  0.00  0.00    +0.000 OA
ATOM     17  O   UNL     1       4.268   2.326  17.503  0.00  0.00    +0.000 OA
ENDBRANCH  13  15
ENDBRANCH   8   9
BRANCH   4  18
ATOM     18  C   UNL     1       1.444  10.163  19.001  0.00  0.00    +0.000 C 
ATOM     19  N   UNL     1       1.401  11.242  18.574  0.00  0.00    +0.000 NA
ENDBRANCH   4  18
ENDBRANCH   1   3
BRANCH   1  20
ATOM     20  C   UNL     1       3.792   7.972  17.338  0.00  0.00    +0.000 C 
BRANCH  20  23
ATOM     21  C   UNL     1       5.965   5.176  15.841  0.00  0.00    +0.000 A 
ATOM     22  C   UNL     1       4.995   6.178  15.950  0.00  0.00    +0.000 A 
ATOM     23  C   UNL     1       4.896   6.964  17.108  0.00  0.00    +0.000 A 
ATOM     24  C   UNL     1       5.854   6.779  18.123  0.00  0.00    +0.000 A 
ATOM     25  C   UNL     1       6.837   5.795  18.005  0.00  0.00    +0.000 A 
ATOM     26 CL   UNL     1       8.011   5.612  19.255  0.00  0.00    +0.000 Cl
ATOM     27  C   UNL     1       6.873   4.973  16.881  0.00  0.00    +0.000 A 
BRANCH  21  30
ATOM     28  C   UNL     1       6.842   4.590  13.622  0.00  0.00    +0.000 C 
ATOM     29  O   UNL     1       7.598   5.551  13.515  0.00  0.00    +0.000 OA
ATOM     30  N   UNL     1       6.041   4.330  14.718  0.00  0.00    +0.000 N 
ATOM     31  H   UNL     1       5.784   3.365  14.899  0.00  0.00    +0.000 HD
BRANCH  28  33
ATOM     32  C   UNL     1       5.224   3.347  12.161  0.00  0.00    +0.000 C 
ATOM     33  C   UNL     1       6.684   3.551  12.529  0.00  0.00    +0.000 C 
ENDBRANCH  28  33
ENDBRANCH  21  30
BRANCH  27  34
ATOM     34  O   UNL     1       7.824   3.992  16.729  0.00  0.00    +0.000 OA
ATOM     35  H   UNL     1       8.677   4.389  16.991  0.00  0.00    +0.000 HD
ENDBRANCH  27  34
ENDBRANCH  20  23
ENDBRANCH   1  20
TORSDOF 9
ENDMDL
MODEL 4
REMARK VINA RESULT:      -8.3      2.897      4.826
REMARK  Name = 
REMARK  11 active torsions:
REMARK  status: ('A' for Active; 'I' for Inactive)
REMARK    1  A    between atoms: C_1  and  C_2
REMARK    2  A    between atoms: C_2  and  C_3
REMARK    3  A    between atoms: N_5  and  C_6
REMARK    4  A    between atoms: C_8  and  C_9
REMARK    5  A    between atoms: C_9  and  N_10
REMARK    6  A    between atoms: N_10  and  C_11
REMARK    7  A    between atoms: C_12  and  C_13
REMARK    8  A    between atoms: C_15  and  C_16
REMARK    9  A    between atoms: N_18  and  C_19
REMARK   10  A    between atoms: C_23  and  N_24
REMARK   11  A    between atoms: C_31  and  O_32
REMARK                            x       y       z     vdW  Elec       q    Type
REMARK                         _______ _______ _______ _____ _____    ______ ____
ROOT
ATOM      1  N   UNL     1       2.418   7.196  17.963  0.00  0.00    +0.000 N 
ATOM      2  H   UNL     1       2.260   6.258  17.591  0.00  0.00    +0.000 HD
ENDROOT
BRANCH   1   3
ATOM      3  C   UNL     1       1.889   7.543  19.180  0.00  0.00    +0.000 A 
ATOM      4  C   UNL     1       1.487   8.763  19.705  0.00  0.00    +0.000 A 
ATOM      5  C   UNL     1       1.132   8.522  21.046  0.00  0.00    +0.000 A 
ATOM      6  C   UNL     1       0.668   9.479  22.081  0.00  0.00    +0.000 C 
ATOM      7  N   UNL     1       1.301   7.243  21.375  0.00  0.00    +0.000 NA
ATOM      8  N   UNL     1       1.738   6.626  20.242  0.00  0.00    +0.000 N 
BRANCH   8   9
ATOM      9  C   UNL     1       1.948   5.210  20.292  0.00  0.00    +0.000 A 
ATOM     10  C   UNL     1       0.819   4.375  20.417  0.00  0.00    +0.000 A 
ATOM     11  C   UNL     1       0.949   2.987  20.487  0.00  0.00    +0.000 A 
ATOM     12  C   UNL     1       2.211   2.407  20.410  0.00  0.00    +0.000 A 
ATOM     13  C   UNL     1       3.335   3.224  20.252  0.00  0.00    +0.000 A 
ATOM     14  C   UNL     1       3.213   4.626  20.194  0.00  0.00    +0.000 A 
BRANCH  13  15
ATOM     15  N   UNL     1       4.664   2.601  20.141  0.00  0.00    +0.000 N 
ATOM     16  O   UNL     1       4.997   1.786  21.012  0.00  0.00    +0.000 OA
ATOM     17  O   UNL     1       5.371   2.936  19.178  0.00  0.00    +0.000 OA
ENDBRANCH  13  15
ENDBRANCH   8   9
BRANCH   4  18
ATOM     18  C   UNL     1       1.521  10.050  19.090  0.00  0.00    +0.000 C 
ATOM     19  N   UNL     1       1.511  11.085  18.566  0.00  0.00    +0.000 NA
ENDBRANCH   4  18
ENDBRANCH   1   3
BRANCH   1  20
ATOM     20  C   UNL     1       3.529   7.892  17.325  0.00  0.00    +0.000 C 
BRANCH  20  23
ATOM     21  C   UNL     1       6.263   5.692  15.757  0.00  0.00    +0.000 A 
ATOM     22  C   UNL     1       5.172   6.561  15.870  0.00  0.00    +0.000 A 
ATOM     23  C   UNL     1       4.773   7.056  17.120  0.00  0.00    +0.000 A 
ATOM     24  C   UNL     1       5.549   6.727  18.248  0.00  0.00    +0.000 A 
ATOM     25  C   UNL     1       6.651   5.879  18.131  0.00  0.00    +0.000 A 
ATOM     26 CL   UNL     1       7.597   5.518  19.528  0.00  0.00    +0.000 Cl
ATOM     27  C   UNL     1       6.989   5.336  16.894  0.00  0.00    +0.000 A 
BRANCH  21  30
ATOM     28  C   UNL     1       5.942   4.111  13.903  0.00  0.00    +0.000 C 
ATOM     29  O   UNL     1       4.902   3.615  14.325  0.00  0.00    +0.000 OA
ATOM     30  N   UNL     1       6.643   5.128  14.523  0.00  0.00    +0.000 N 
ATOM     31  H   UNL     1       7.216   5.732  13.943  0.00  0.00    +0.000 HD
BRANCH  28  33
ATOM     32  C   UNL     1       5.665   2.799  11.783  0.00  0.00    +0.000 C 
ATOM     33  C   UNL     1       6.605   3.648  12.621  0.00  0.00    +0.000 C 
ENDBRANCH  28  33
ENDBRANCH  21  30
BRANCH  27  34
ATOM     34  O   UNL     1       8.066   4.495  16.740  0.00  0.00    +0.000 OA
ATOM     35  H   UNL     1       8.063   4.207  15.807  0.00  0.00    +0.000 HD
ENDBRANCH  27  34
ENDBRANCH  20  23
ENDBRANCH   1  20
TORSDOF 9
ENDMDL
MODEL 5
REMARK VINA RESULT:      -8.2      2.892      8.581
REMARK  Name = 
REMARK  11 active torsions:
REMARK  status: ('A' for Active; 'I' for Inactive)
REMARK    1  A    between atoms: C_1  and  C_2
REMARK    2  A    between atoms: C_2  and  C_3
REMARK    3  A    between atoms: N_5  and  C_6
REMARK    4  A    between atoms: C_8  and  C_9
REMARK    5  A    between atoms: C_9  and  N_10
REMARK    6  A    between atoms: N_10  and  C_11
REMARK    7  A    between atoms: C_12  and  C_13
REMARK    8  A    between atoms: C_15  and  C_16
REMARK    9  A    between atoms: N_18  and  C_19
REMARK   10  A    between atoms: C_23  and  N_24
REMARK   11  A    between atoms: C_31  and  O_32
REMARK                            x       y       z     vdW  Elec       q    Type
REMARK                         _______ _______ _______ _____ _____    ______ ____
ROOT
ATOM      1  N   UNL     1       3.895   6.297  18.321  0.00  0.00    +0.000 N 
ATOM      2  H   UNL     1       4.384   6.596  19.166  0.00  0.00    +0.000 HD
ENDROOT
BRANCH   1   3
ATOM      3  C   UNL     1       3.497   4.992  18.190  0.00  0.00    +0.000 A 
ATOM      4  C   UNL     1       2.566   4.230  18.883  0.00  0.00    +0.000 A 
ATOM      5  C   UNL     1       2.669   2.920  18.378  0.00  0.00    +0.000 A 
ATOM      6  C   UNL     1       1.934   1.697  18.786  0.00  0.00    +0.000 C 
ATOM      7  N   UNL     1       3.605   2.830  17.436  0.00  0.00    +0.000 NA
ATOM      8  N   UNL     1       4.103   4.090  17.290  0.00  0.00    +0.000 N 
BRANCH   8   9
ATOM      9  C   UNL     1       5.100   4.301  16.284  0.00  0.00    +0.000 A 
ATOM     10  C   UNL     1       6.282   4.976  16.652  0.00  0.00    +0.000 A 
ATOM     11  C   UNL     1       7.290   5.231  15.721  0.00  0.00    +0.000 A 
ATOM     12  C   UNL     1       7.144   4.795  14.408  0.00  0.00    +0.000 A 
ATOM     13  C   UNL     1       5.990   4.095  14.040  0.00  0.00    +0.000 A 
ATOM     14  C   UNL     1       4.963   3.846  14.971  0.00  0.00    +0.000 A 
BRANCH  13  15
ATOM     15  N   UNL     1       5.856   3.610  12.656  0.00  0.00    +0.000 N 
ATOM     16  O   UNL     1       6.890   3.305  12.046  0.00  0.00    +0.000 OA
ATOM     17  O   UNL     1       4.710   3.540  12.187  0.00  0.00    +0.000 OA
ENDBRANCH  13  15
ENDBRANCH   8   9
BRANCH   4  18
ATOM     18  C   UNL     1       1.735   4.620  19.974  0.00  0.00    +0.000 C 
ATOM     19  N   UNL     1       1.037   4.896  20.860  0.00  0.00    +0.000 NA
ENDBRANCH   4  18
ENDBRANCH   1   3
BRANCH   1  20
ATOM     20  C   UNL     1       3.333   7.405  17.556  0.00  0.00    +0.000 C 
BRANCH  20  23
ATOM     21  C   UNL     1       0.389   9.765  18.291  0.00  0.00    +0.000 A 
ATOM     22  C   UNL     1       1.310   8.985  17.583  0.00  0.00    +0.000 A 
ATOM     23  C   UNL     1       2.231   8.169  18.256  0.00  0.00    +0.000 A 
ATOM     24  C   UNL     1       2.149   8.087  19.660  0.00  0.00    +0.000 A 
ATOM     25  C   UNL     1       1.214   8.847  20.364  0.00  0.00    +0.000 A 
ATOM     26 CL   UNL     1       1.122   8.702  22.081  0.00  0.00    +0.000 Cl
ATOM     27  C   UNL     1       0.357   9.709  19.684  0.00  0.00    +0.000 A 
BRANCH  21  30
ATOM     28  C   UNL     1      -1.852  10.389  17.498  0.00  0.00    +0.000 C 
ATOM     29  O   UNL     1      -2.434   9.406  17.948  0.00  0.00    +0.000 OA
ATOM     30  N   UNL     1      -0.501  10.643  17.641  0.00  0.00    +0.000 N 
ATOM     31  H   UNL     1      -0.194  11.609  17.613  0.00  0.00    +0.000 HD
BRANCH  28  33
ATOM     32  C   UNL     1      -3.130  10.916  15.405  0.00  0.00    +0.000 C 
ATOM     33  C   UNL     1      -2.563  11.466  16.703  0.00  0.00    +0.000 C 
ENDBRANCH  28  33
ENDBRANCH  21  30
BRANCH  27  34
ATOM     34  O   UNL     1      -0.575  10.475  20.344  0.00  0.00    +0.000 OA
ATOM     35  H   UNL     1      -1.417   9.981  20.307  0.00  0.00    +0.000 HD
ENDBRANCH  27  34
ENDBRANCH  20  23
ENDBRANCH   1  20
TORSDOF 9
ENDMDL
MODEL 6
REMARK VINA RESULT:      -8.2      2.602      4.715
REMARK  Name = 
REMARK  11 active torsions:
REMARK  status: ('A' for Active; 'I' for Inactive)
REMARK    1  A    between atoms: C_1  and  C_2
REMARK    2  A    between atoms: C_2  and  C_3
REMARK    3  A    between atoms: N_5  and  C_6
REMARK    4  A    between atoms: C_8  and  C_9
REMARK    5  A    between atoms: C_9  and  N_10
REMARK    6  A    between atoms: N_10  and  C_11
REMARK    7  A    between atoms: C_12  and  C_13
REMARK    8  A    between atoms: C_15  and  C_16
REMARK    9  A    between atoms: N_18  and  C_19
REMARK   10  A    between atoms: C_23  and  N_24
REMARK   11  A    between atoms: C_31  and  O_32
REMARK                            x       y       z     vdW  Elec       q    Type
REMARK                         _______ _______ _______ _____ _____    ______ ____
ROOT
ATOM      1  N   UNL     1       2.556   7.936  17.562  0.00  0.00    +0.000 N 
ATOM      2  H   UNL     1       2.125   7.403  16.805  0.00  0.00    +0.000 HD
ENDROOT
BRANCH   1   3
ATOM      3  C   UNL     1       2.007   7.900  18.818  0.00  0.00    +0.000 A 
ATOM      4  C   UNL     1       1.471   8.892  19.627  0.00  0.00    +0.000 A 
ATOM      5  C   UNL     1       1.164   8.280  20.857  0.00  0.00    +0.000 A 
ATOM      6  C   UNL     1       0.604   8.884  22.092  0.00  0.00    +0.000 C 
ATOM      7  N   UNL     1       1.487   6.989  20.856  0.00  0.00    +0.000 NA
ATOM      8  N   UNL     1       1.979   6.733  19.611  0.00  0.00    +0.000 N 
BRANCH   8   9
ATOM      9  C   UNL     1       2.355   5.385  19.306  0.00  0.00    +0.000 A 
ATOM     10  C   UNL     1       2.132   4.915  17.995  0.00  0.00    +0.000 A 
ATOM     11  C   UNL     1       2.459   3.608  17.630  0.00  0.00    +0.000 A 
ATOM     12  C   UNL     1       3.038   2.754  18.564  0.00  0.00    +0.000 A 
ATOM     13  C   UNL     1       3.294   3.221  19.857  0.00  0.00    +0.000 A 
ATOM     14  C   UNL     1       2.954   4.535  20.237  0.00  0.00    +0.000 A 
BRANCH  13  15
ATOM     15  N   UNL     1       3.933   2.321  20.831  0.00  0.00    +0.000 N 
ATOM     16  O   UNL     1       5.029   1.827  20.532  0.00  0.00    +0.000 OA
ATOM     17  O   UNL     1       3.330   2.113  21.895  0.00  0.00    +0.000 OA
ENDBRANCH  13  15
ENDBRANCH   8   9
BRANCH   4  18
ATOM     18  C   UNL     1       1.345  10.287  19.357  0.00  0.00    +0.000 C 
ATOM     19  N   UNL     1       1.202  11.413  19.115  0.00  0.00    +0.000 NA
ENDBRANCH   4  18
ENDBRANCH   1   3
BRANCH   1  20
ATOM     20  C   UNL     1       3.931   8.331  17.281  0.00  0.00    +0.000 C 
BRANCH  20  23
ATOM     21  C   UNL     1       5.716   5.193  15.961  0.00  0.00    +0.000 A 
ATOM     22  C   UNL     1       4.875   6.309  16.011  0.00  0.00    +0.000 A 
ATOM     23  C   UNL     1       4.902   7.184  17.108  0.00  0.00    +0.000 A 
ATOM     24  C   UNL     1       5.859   6.960  18.116  0.00  0.00    +0.000 A 
ATOM     25  C   UNL     1       6.714   5.859  18.055  0.00  0.00    +0.000 A 
ATOM     26 CL   UNL     1       7.892   5.629  19.294  0.00  0.00    +0.000 Cl
ATOM     27  C   UNL     1       6.622   4.958  16.996  0.00  0.00    +0.000 A 
BRANCH  21  30
ATOM     28  C   UNL     1       6.449   4.350  13.773  0.00  0.00    +0.000 C 
ATOM     29  O   UNL     1       7.304   5.208  13.575  0.00  0.00    +0.000 OA
ATOM     30  N   UNL     1       5.661   4.263  14.904  0.00  0.00    +0.000 N 
ATOM     31  H   UNL     1       5.303   3.350  15.165  0.00  0.00    +0.000 HD
BRANCH  28  33
ATOM     32  C   UNL     1       7.110   3.288  11.598  0.00  0.00    +0.000 C 
ATOM     33  C   UNL     1       6.141   3.258  12.766  0.00  0.00    +0.000 C 
ENDBRANCH  28  33
ENDBRANCH  21  30
BRANCH  27  34
ATOM     34  O   UNL     1       7.445   3.862  16.902  0.00  0.00    +0.000 OA
ATOM     35  H   UNL     1       8.312   4.133  17.263  0.00  0.00    +0.000 HD
ENDBRANCH  27  34
ENDBRANCH  20  23
ENDBRANCH   1  20
TORSDOF 9
ENDMDL
MODEL 7
REMARK VINA RESULT:      -8.2      2.923      8.609
REMARK  Name = 
REMARK  11 active torsions:
REMARK  status: ('A' for Active; 'I' for Inactive)
REMARK    1  A    between atoms: C_1  and  C_2
REMARK    2  A    between atoms: C_2  and  C_3
REMARK    3  A    between atoms: N_5  and  C_6
REMARK    4  A    between atoms: C_8  and  C_9
REMARK    5  A    between atoms: C_9  and  N_10
REMARK    6  A    between atoms: N_10  and  C_11
REMARK    7  A    between atoms: C_12  and  C_13
REMARK    8  A    between atoms: C_15  and  C_16
REMARK    9  A    between atoms: N_18  and  C_19
REMARK   10  A    between atoms: C_23  and  N_24
REMARK   11  A    between atoms: C_31  and  O_32
REMARK                            x       y       z     vdW  Elec       q    Type
REMARK                         _______ _______ _______ _____ _____    ______ ____
ROOT
ATOM      1  N   UNL     1       5.815   3.315  16.555  0.00  0.00    +0.000 N 
ATOM      2  H   UNL     1       6.313   2.476  16.252  0.00  0.00    +0.000 HD
ENDROOT
BRANCH   1   3
ATOM      3  C   UNL     1       6.476   4.515  16.611  0.00  0.00    +0.000 A 
ATOM      4  C   UNL     1       6.784   5.358  17.670  0.00  0.00    +0.000 A 
ATOM      5  C   UNL     1       7.377   6.504  17.108  0.00  0.00    +0.000 A 
ATOM      6  C   UNL     1       7.862   7.736  17.779  0.00  0.00    +0.000 C 
ATOM      7  N   UNL     1       7.440   6.421  15.781  0.00  0.00    +0.000 NA
ATOM      8  N   UNL     1       6.919   5.204  15.462  0.00  0.00    +0.000 N 
BRANCH   8   9
ATOM      9  C   UNL     1       6.917   4.819  14.082  0.00  0.00    +0.000 A 
ATOM     10  C   UNL     1       7.855   5.427  13.222  0.00  0.00    +0.000 A 
ATOM     11  C   UNL     1       7.901   5.112  11.863  0.00  0.00    +0.000 A 
ATOM     12  C   UNL     1       7.023   4.166  11.344  0.00  0.00    +0.000 A 
ATOM     13  C   UNL     1       6.111   3.533  12.194  0.00  0.00    +0.000 A 
ATOM     14  C   UNL     1       6.051   3.855  13.564  0.00  0.00    +0.000 A 
BRANCH  13  15
ATOM     15  N   UNL     1       5.206   2.511  11.643  0.00  0.00    +0.000 N 
ATOM     16  O   UNL     1       5.651   1.365  11.488  0.00  0.00    +0.000 OA
ATOM     17  O   UNL     1       4.050   2.865  11.366  0.00  0.00    +0.000 OA
ENDBRANCH  13  15
ENDBRANCH   8   9
BRANCH   4  18
ATOM     18  C   UNL     1       6.475   5.195  19.054  0.00  0.00    +0.000 C 
ATOM     19  N   UNL     1       6.216   5.018  20.171  0.00  0.00    +0.000 NA
ENDBRANCH   4  18
ENDBRANCH   1   3
BRANCH   1  20
ATOM     20  C   UNL     1       4.365   3.182  16.489  0.00  0.00    +0.000 C 
BRANCH  20  23
ATOM     21  C   UNL     1       2.484   5.735  18.662  0.00  0.00    +0.000 A 
ATOM     22  C   UNL     1       3.064   5.128  17.543  0.00  0.00    +0.000 A 
ATOM     23  C   UNL     1       3.612   3.839  17.625  0.00  0.00    +0.000 A 
ATOM     24  C   UNL     1       3.486   3.136  18.838  0.00  0.00    +0.000 A 
ATOM     25  C   UNL     1       2.886   3.734  19.949  0.00  0.00    +0.000 A 
ATOM     26 CL   UNL     1       2.725   2.835  21.412  0.00  0.00    +0.000 Cl
ATOM     27  C   UNL     1       2.416   5.042  19.871  0.00  0.00    +0.000 A 
BRANCH  21  30
ATOM     28  C   UNL     1       2.661   8.102  18.028  0.00  0.00    +0.000 C 
ATOM     29  O   UNL     1       3.733   8.006  17.437  0.00  0.00    +0.000 OA
ATOM     30  N   UNL     1       1.988   7.053  18.623  0.00  0.00    +0.000 N 
ATOM     31  H   UNL     1       0.980   7.126  18.714  0.00  0.00    +0.000 HD
BRANCH  28  33
ATOM     32  C   UNL     1       1.082   9.441  19.444  0.00  0.00    +0.000 C 
ATOM     33  C   UNL     1       1.934   9.423  18.187  0.00  0.00    +0.000 C 
ENDBRANCH  28  33
ENDBRANCH  21  30
BRANCH  27  34
ATOM     34  O   UNL     1       1.821   5.664  20.943  0.00  0.00    +0.000 OA
ATOM     35  H   UNL     1       1.214   6.334  20.575  0.00  0.00    +0.000 HD
ENDBRANCH  27  34
ENDBRANCH  20  23
ENDBRANCH   1  20
TORSDOF 9
ENDMDL
MODEL 8
REMARK VINA RESULT:      -8.1      3.618      7.802
REMARK  Name = 
REMARK  11 active torsions:
REMARK  status: ('A' for Active; 'I' for Inactive)
REMARK    1  A    between atoms: C_1  and  C_2
REMARK    2  A    between atoms: C_2  and  C_3
REMARK    3  A    between atoms: N_5  and  C_6
REMARK    4  A    between atoms: C_8  and  C_9
REMARK    5  A    between atoms: C_9  and  N_10
REMARK    6  A    between atoms: N_10  and  C_11
REMARK    7  A    between atoms: C_12  and  C_13
REMARK    8  A    between atoms: C_15  and  C_16
REMARK    9  A    between atoms: N_18  and  C_19
REMARK   10  A    between atoms: C_23  and  N_24
REMARK   11  A    between atoms: C_31  and  O_32
REMARK                            x       y       z     vdW  Elec       q    Type
REMARK                         _______ _______ _______ _____ _____    ______ ____
ROOT
ATOM      1  N   UNL     1       3.877   7.082  18.649  0.00  0.00    +0.000 N 
ATOM      2  H   UNL     1       3.589   7.076  19.629  0.00  0.00    +0.000 HD
ENDROOT
BRANCH   1   3
ATOM      3  C   UNL     1       4.733   6.116  18.186  0.00  0.00    +0.000 A 
ATOM      4  C   UNL     1       5.985   6.191  17.593  0.00  0.00    +0.000 A 
ATOM      5  C   UNL     1       6.331   4.877  17.225  0.00  0.00    +0.000 A 
ATOM      6  C   UNL     1       7.544   4.386  16.524  0.00  0.00    +0.000 C 
ATOM      7  N   UNL     1       5.371   4.011  17.543  0.00  0.00    +0.000 NA
ATOM      8  N   UNL     1       4.400   4.745  18.154  0.00  0.00    +0.000 N 
BRANCH   8   9
ATOM      9  C   UNL     1       3.256   4.049  18.661  0.00  0.00    +0.000 A 
ATOM     10  C   UNL     1       2.184   3.802  17.779  0.00  0.00    +0.000 A 
ATOM     11  C   UNL     1       1.031   3.143  18.207  0.00  0.00    +0.000 A 
ATOM     12  C   UNL     1       0.938   2.698  19.522  0.00  0.00    +0.000 A 
ATOM     13  C   UNL     1       2.009   2.908  20.397  0.00  0.00    +0.000 A 
ATOM     14  C   UNL     1       3.170   3.584  19.975  0.00  0.00    +0.000 A 
BRANCH  13  15
ATOM     15  N   UNL     1       1.915   2.407  21.778  0.00  0.00    +0.000 N 
ATOM     16  O   UNL     1       0.818   2.480  22.348  0.00  0.00    +0.000 OA
ATOM     17  O   UNL     1       2.948   1.944  22.286  0.00  0.00    +0.000 OA
ENDBRANCH  13  15
ENDBRANCH   8   9
BRANCH   4  18
ATOM     18  C   UNL     1       6.755   7.352  17.286  0.00  0.00    +0.000 C 
ATOM     19  N   UNL     1       7.342   8.321  17.034  0.00  0.00    +0.000 NA
ENDBRANCH   4  18
ENDBRANCH   1   3
BRANCH   1  20
ATOM     20  C   UNL     1       3.006   7.882  17.796  0.00  0.00    +0.000 C 
BRANCH  20  23
ATOM     21  C   UNL     1      -0.019  10.116  18.591  0.00  0.00    +0.000 A 
ATOM     22  C   UNL     1       0.918   9.374  17.865  0.00  0.00    +0.000 A 
ATOM     23  C   UNL     1       1.889   8.602  18.519  0.00  0.00    +0.000 A 
ATOM     24  C   UNL     1       1.844   8.522  19.924  0.00  0.00    +0.000 A 
ATOM     25  C   UNL     1       0.894   9.245  20.648  0.00  0.00    +0.000 A 
ATOM     26 CL   UNL     1       0.849   9.104  22.367  0.00  0.00    +0.000 Cl
ATOM     27  C   UNL     1      -0.015  10.066  19.985  0.00  0.00    +0.000 A 
BRANCH  21  30
ATOM     28  C   UNL     1      -2.231  10.536  17.608  0.00  0.00    +0.000 C 
ATOM     29  O   UNL     1      -2.696   9.423  17.836  0.00  0.00    +0.000 OA
ATOM     30  N   UNL     1      -0.962  10.951  17.960  0.00  0.00    +0.000 N 
ATOM     31  H   UNL     1      -0.810  11.944  18.108  0.00  0.00    +0.000 HD
BRANCH  28  33
ATOM     32  C   UNL     1      -4.325  11.077  16.335  0.00  0.00    +0.000 C 
ATOM     33  C   UNL     1      -3.014  11.614  16.884  0.00  0.00    +0.000 C 
ENDBRANCH  28  33
ENDBRANCH  21  30
BRANCH  27  34
ATOM     34  O   UNL     1      -0.964  10.794  20.664  0.00  0.00    +0.000 OA
ATOM     35  H   UNL     1      -0.490  11.290  21.359  0.00  0.00    +0.000 HD
ENDBRANCH  27  34
ENDBRANCH  20  23
ENDBRANCH   1  20
TORSDOF 9
ENDMDL
MODEL 9
REMARK VINA RESULT:      -7.9      2.280      8.662
REMARK  Name = 
REMARK  11 active torsions:
REMARK  status: ('A' for Active; 'I' for Inactive)
REMARK    1  A    between atoms: C_1  and  C_2
REMARK    2  A    between atoms: C_2  and  C_3
REMARK    3  A    between atoms: N_5  and  C_6
REMARK    4  A    between atoms: C_8  and  C_9
REMARK    5  A    between atoms: C_9  and  N_10
REMARK    6  A    between atoms: N_10  and  C_11
REMARK    7  A    between atoms: C_12  and  C_13
REMARK    8  A    between atoms: C_15  and  C_16
REMARK    9  A    between atoms: N_18  and  C_19
REMARK   10  A    between atoms: C_23  and  N_24
REMARK   11  A    between atoms: C_31  and  O_32
REMARK                            x       y       z     vdW  Elec       q    Type
REMARK                         _______ _______ _______ _____ _____    ______ ____
ROOT
ATOM      1  N   UNL     1       2.105   5.139  19.528  0.00  0.00    +0.000 N 
ATOM      2  H   UNL     1       1.956   5.602  18.630  0.00  0.00    +0.000 HD
ENDROOT
BRANCH   1   3
ATOM      3  C   UNL     1       3.010   4.114  19.622  0.00  0.00    +0.000 A 
ATOM      4  C   UNL     1       3.086   3.015  20.467  0.00  0.00    +0.000 A 
ATOM      5  C   UNL     1       4.300   2.367  20.169  0.00  0.00    +0.000 A 
ATOM      6  C   UNL     1       4.899   1.163  20.797  0.00  0.00    +0.000 C 
ATOM      7  N   UNL     1       4.972   3.001  19.211  0.00  0.00    +0.000 NA
ATOM      8  N   UNL     1       4.188   4.054  18.847  0.00  0.00    +0.000 N 
BRANCH   8   9
ATOM      9  C   UNL     1       4.646   4.888  17.776  0.00  0.00    +0.000 A 
ATOM     10  C   UNL     1       4.330   6.261  17.822  0.00  0.00    +0.000 A 
ATOM     11  C   UNL     1       4.729   7.130  16.806  0.00  0.00    +0.000 A 
ATOM     12  C   UNL     1       5.472   6.645  15.734  0.00  0.00    +0.000 A 
ATOM     13  C   UNL     1       5.819   5.290  15.695  0.00  0.00    +0.000 A 
ATOM     14  C   UNL     1       5.408   4.405  16.710  0.00  0.00    +0.000 A 
BRANCH  13  15
ATOM     15  N   UNL     1       6.630   4.790  14.573  0.00  0.00    +0.000 N 
ATOM     16  O   UNL     1       7.643   5.431  14.259  0.00  0.00    +0.000 OA
ATOM     17  O   UNL     1       6.245   3.754  14.010  0.00  0.00    +0.000 OA
ENDBRANCH  13  15
ENDBRANCH   8   9
BRANCH   4  18
ATOM     18  C   UNL     1       2.199   2.642  21.520  0.00  0.00    +0.000 C 
ATOM     19  N   UNL     1       1.479   2.383  22.393  0.00  0.00    +0.000 NA
ENDBRANCH   4  18
ENDBRANCH   1   3
BRANCH   1  20
ATOM     20  C   UNL     1       1.626   5.915  20.666  0.00  0.00    +0.000 C 
BRANCH  20  23
ATOM     21  C   UNL     1       0.201   9.484  20.766  0.00  0.00    +0.000 A 
ATOM     22  C   UNL     1       0.505   8.174  21.150  0.00  0.00    +0.000 A 
ATOM     23  C   UNL     1       1.361   7.376  20.375  0.00  0.00    +0.000 A 
ATOM     24  C   UNL     1       1.976   7.955  19.249  0.00  0.00    +0.000 A 
ATOM     25  C   UNL     1       1.690   9.271  18.879  0.00  0.00    +0.000 A 
ATOM     26 CL   UNL     1       2.481   9.958  17.509  0.00  0.00    +0.000 Cl
ATOM     27  C   UNL     1       0.780  10.024  19.617  0.00  0.00    +0.000 A 
BRANCH  21  30
ATOM     28  C   UNL     1      -0.644  10.457  22.858  0.00  0.00    +0.000 C 
ATOM     29  O   UNL     1       0.220   9.980  23.589  0.00  0.00    +0.000 OA
ATOM     30  N   UNL     1      -0.707  10.282  21.489  0.00  0.00    +0.000 N 
ATOM     31  H   UNL     1      -1.167  11.001  20.939  0.00  0.00    +0.000 HD
BRANCH  28  33
ATOM     32  C   UNL     1      -2.041  12.508  22.490  0.00  0.00    +0.000 C 
ATOM     33  C   UNL     1      -1.780  11.310  23.387  0.00  0.00    +0.000 C 
ENDBRANCH  28  33
ENDBRANCH  21  30
BRANCH  27  34
ATOM     34  O   UNL     1       0.472  11.321  19.283  0.00  0.00    +0.000 OA
ATOM     35  H   UNL     1       1.191  11.637  18.703  0.00  0.00    +0.000 HD
ENDBRANCH  27  34
ENDBRANCH  20  23
ENDBRANCH   1  20
TORSDOF 9
ENDMDL
