MODEL 1
REMARK VINA RESULT:      -8.2      0.000      0.000
REMARK  Name = 
REMARK  4 active torsions:
REMARK  status: ('A' for Active; 'I' for Inactive)
REMARK    1  A    between atoms: C_2  and  C_3
REMARK    2  A    between atoms: C_2  and  C_19
REMARK    3  A    between atoms: C_3  and  C_5
REMARK    4  A    between atoms: C_10  and  C_11
REMARK                            x       y       z     vdW  Elec       q    Type
REMARK                         _______ _______ _______ _____ _____    ______ ____
ROOT
ATOM      1  C   UNL     1       2.186   4.344  19.433  0.00  0.00    +0.000 A 
ATOM      2  C   UNL     1       1.259   4.219  20.490  0.00  0.00    +0.000 A 
ATOM      3  C   UNL     1       1.420   3.264  21.489  0.00  0.00    +0.000 A 
ATOM      4  C   UNL     1       2.554   2.472  21.499  0.00  0.00    +0.000 A 
ATOM      5  C   UNL     1       3.498   2.614  20.482  0.00  0.00    +0.000 A 
ATOM      6  C   UNL     1       3.280   3.453  19.376  0.00  0.00    +0.000 A 
ENDROOT
BRANCH   6   7
ATOM      7  C   UNL     1       4.294   3.416  18.271  0.00  0.00    +0.000 C 
ATOM      8  O   UNL     1       4.016   2.729  17.288  0.00  0.00    +0.000 OA
ATOM      9  N   UNL     1       5.484   4.200  18.344  0.00  0.00    +0.000 N 
ATOM     10  C   UNL     1       6.263   4.323  17.105  0.00  0.00    +0.000 C 
ATOM     11  C   UNL     1       7.748   4.605  17.352  0.00  0.00    +0.000 C 
ATOM     12  C   UNL     1       7.941   5.814  18.255  0.00  0.00    +0.000 C 
ATOM     13  C   UNL     1       7.219   5.576  19.571  0.00  0.00    +0.000 C 
ATOM     14  C   UNL     1       5.750   5.230  19.359  0.00  0.00    +0.000 C 
ENDBRANCH   6   7
BRANCH   1  15
ATOM     15  C   UNL     1       1.892   5.410  18.430  0.00  0.00    +0.000 C 
ATOM     16  O   UNL     1       1.097   5.261  17.514  0.00  0.00    +0.000 OA
BRANCH  15  18
ATOM     17  O   UNL     1       3.608   7.022  18.161  0.00  0.00    +0.000 OA
ATOM     18  C   UNL     1       2.517   6.793  18.663  0.00  0.00    +0.000 C 
BRANCH  18  19
ATOM     19  C   UNL     1       1.810   7.771  19.547  0.00  0.00    +0.000 A 
ATOM     20  C   UNL     1       1.538   7.419  20.879  0.00  0.00    +0.000 A 
ATOM     21  C   UNL     1       0.914   8.325  21.749  0.00  0.00    +0.000 A 
ATOM     22  C   UNL     1       0.545   9.587  21.292  0.00  0.00    +0.000 A 
ATOM     23 CL   UNL     1      -0.213  10.697  22.369  0.00  0.00    +0.000 Cl
ATOM     24  C   UNL     1       0.796   9.956  19.978  0.00  0.00    +0.000 A 
ATOM     25  C   UNL     1       1.432   9.050  19.103  0.00  0.00    +0.000 A 
ATOM     26 CL   UNL     1       1.790   9.666  17.528  0.00  0.00    +0.000 Cl
ENDBRANCH  18  19
ENDBRANCH  15  18
ENDBRANCH   1  15
TORSDOF 4
ENDMDL
MODEL 2
REMARK VINA RESULT:      -7.5      1.791      2.712
REMARK  Name = 
REMARK  4 active torsions:
REMARK  status: ('A' for Active; 'I' for Inactive)
REMARK    1  A    between atoms: C_2  and  C_3
REMARK    2  A    between atoms: C_2  and  C_19
REMARK    3  A    between atoms: C_3  and  C_5
REMARK    4  A    between atoms: C_10  and  C_11
REMARK                            x       y       z     vdW  Elec       q    Type
REMARK                         _______ _______ _______ _____ _____    ______ ____
ROOT
ATOM      1  C   UNL     1       2.551   4.571  18.626  0.00  0.00    +0.000 A 
ATOM      2  C   UNL     1       1.247   4.036  18.711  0.00  0.00    +0.000 A 
ATOM      3  C   UNL     1       1.030   2.669  18.848  0.00  0.00    +0.000 A 
ATOM      4  C   UNL     1       2.112   1.817  18.988  0.00  0.00    +0.000 A 
ATOM      5  C   UNL     1       3.405   2.338  18.946  0.00  0.00    +0.000 A 
ATOM      6  C   UNL     1       3.653   3.689  18.646  0.00  0.00    +0.000 A 
ENDROOT
BRANCH   6   7
ATOM      7  C   UNL     1       5.084   4.108  18.481  0.00  0.00    +0.000 C 
ATOM      8  O   UNL     1       5.762   4.179  19.505  0.00  0.00    +0.000 OA
ATOM      9  N   UNL     1       5.632   4.342  17.184  0.00  0.00    +0.000 N 
ATOM     10  C   UNL     1       7.094   4.461  17.104  0.00  0.00    +0.000 C 
ATOM     11  C   UNL     1       7.566   5.289  15.906  0.00  0.00    +0.000 C 
ATOM     12  C   UNL     1       6.976   4.770  14.604  0.00  0.00    +0.000 C 
ATOM     13  C   UNL     1       5.460   4.790  14.698  0.00  0.00    +0.000 C 
ATOM     14  C   UNL     1       4.956   4.026  15.917  0.00  0.00    +0.000 C 
ENDBRANCH   6   7
BRANCH   1  15
ATOM     15  C   UNL     1       2.638   6.055  18.482  0.00  0.00    +0.000 C 
ATOM     16  O   UNL     1       2.966   6.604  17.441  0.00  0.00    +0.000 OA
BRANCH  15  18
ATOM     17  O   UNL     1       2.047   6.373  20.754  0.00  0.00    +0.000 OA
ATOM     18  C   UNL     1       2.153   6.910  19.661  0.00  0.00    +0.000 C 
BRANCH  18  19
ATOM     19  C   UNL     1       1.762   8.333  19.416  0.00  0.00    +0.000 A 
ATOM     20  C   UNL     1       2.244   8.988  18.271  0.00  0.00    +0.000 A 
ATOM     21  C   UNL     1       1.867  10.308  17.986  0.00  0.00    +0.000 A 
ATOM     22  C   UNL     1       1.014  10.990  18.849  0.00  0.00    +0.000 A 
ATOM     23 CL   UNL     1       0.548  12.609  18.488  0.00  0.00    +0.000 Cl
ATOM     24  C   UNL     1       0.530  10.367  19.991  0.00  0.00    +0.000 A 
ATOM     25  C   UNL     1       0.901   9.036  20.275  0.00  0.00    +0.000 A 
ATOM     26 CL   UNL     1       0.145   8.335  21.663  0.00  0.00    +0.000 Cl
ENDBRANCH  18  19
ENDBRANCH  15  18
ENDBRANCH   1  15
TORSDOF 4
ENDMDL
MODEL 3
REMARK VINA RESULT:      -7.5      1.125      1.764
REMARK  Name = 
REMARK  4 active torsions:
REMARK  status: ('A' for Active; 'I' for Inactive)
REMARK    1  A    between atoms: C_2  and  C_3
REMARK    2  A    between atoms: C_2  and  C_19
REMARK    3  A    between atoms: C_3  and  C_5
REMARK    4  A    between atoms: C_10  and  C_11
REMARK                            x       y       z     vdW  Elec       q    Type
REMARK                         _______ _______ _______ _____ _____    ______ ____
ROOT
ATOM      1  C   UNL     1       2.463   4.584  19.213  0.00  0.00    +0.000 A 
ATOM      2  C   UNL     1       1.330   3.928  19.741  0.00  0.00    +0.000 A 
ATOM      3  C   UNL     1       1.453   2.889  20.658  0.00  0.00    +0.000 A 
ATOM      4  C   UNL     1       2.706   2.540  21.128  0.00  0.00    +0.000 A 
ATOM      5  C   UNL     1       3.831   3.207  20.645  0.00  0.00    +0.000 A 
ATOM      6  C   UNL     1       3.748   4.145  19.601  0.00  0.00    +0.000 A 
ENDROOT
BRANCH   6   7
ATOM      7  C   UNL     1       5.035   4.692  19.059  0.00  0.00    +0.000 C 
ATOM      8  O   UNL     1       5.772   5.268  19.858  0.00  0.00    +0.000 OA
ATOM      9  N   UNL     1       5.402   4.482  17.696  0.00  0.00    +0.000 N 
ATOM     10  C   UNL     1       6.791   4.795  17.336  0.00  0.00    +0.000 C 
ATOM     11  C   UNL     1       6.965   5.150  15.857  0.00  0.00    +0.000 C 
ATOM     12  C   UNL     1       6.384   4.072  14.955  0.00  0.00    +0.000 C 
ATOM     13  C   UNL     1       4.914   3.882  15.285  0.00  0.00    +0.000 C 
ATOM     14  C   UNL     1       4.697   3.588  16.765  0.00  0.00    +0.000 C 
ENDBRANCH   6   7
BRANCH   1  15
ATOM     15  C   UNL     1       2.186   5.682  18.240  0.00  0.00    +0.000 C 
ATOM     16  O   UNL     1       1.491   5.531  17.246  0.00  0.00    +0.000 OA
BRANCH  15  18
ATOM     17  O   UNL     1       3.761   7.450  18.139  0.00  0.00    +0.000 OA
ATOM     18  C   UNL     1       2.687   7.088  18.598  0.00  0.00    +0.000 C 
BRANCH  18  19
ATOM     19  C   UNL     1       1.888   7.926  19.545  0.00  0.00    +0.000 A 
ATOM     20  C   UNL     1       1.656   7.455  20.848  0.00  0.00    +0.000 A 
ATOM     21  C   UNL     1       0.946   8.230  21.777  0.00  0.00    +0.000 A 
ATOM     22  C   UNL     1       0.452   9.478  21.409  0.00  0.00    +0.000 A 
ATOM     23 CL   UNL     1      -0.411  10.428  22.558  0.00  0.00    +0.000 Cl
ATOM     24  C   UNL     1       0.662   9.963  20.125  0.00  0.00    +0.000 A 
ATOM     25  C   UNL     1       1.383   9.189  19.191  0.00  0.00    +0.000 A 
ATOM     26 CL   UNL     1       1.674   9.948  17.665  0.00  0.00    +0.000 Cl
ENDBRANCH  18  19
ENDBRANCH  15  18
ENDBRANCH   1  15
TORSDOF 4
ENDMDL
MODEL 4
REMARK VINA RESULT:      -7.5      2.668      4.352
REMARK  Name = 
REMARK  4 active torsions:
REMARK  status: ('A' for Active; 'I' for Inactive)
REMARK    1  A    between atoms: C_2  and  C_3
REMARK    2  A    between atoms: C_2  and  C_19
REMARK    3  A    between atoms: C_3  and  C_5
REMARK    4  A    between atoms: C_10  and  C_11
REMARK                            x       y       z     vdW  Elec       q    Type
REMARK                         _______ _______ _______ _____ _____    ______ ____
ROOT
ATOM      1  C   UNL     1       5.832   5.785  17.538  0.00  0.00    +0.000 A 
ATOM      2  C   UNL     1       6.353   6.370  18.713  0.00  0.00    +0.000 A 
ATOM      3  C   UNL     1       7.519   5.895  19.306  0.00  0.00    +0.000 A 
ATOM      4  C   UNL     1       8.233   4.882  18.691  0.00  0.00    +0.000 A 
ATOM      5  C   UNL     1       7.751   4.323  17.509  0.00  0.00    +0.000 A 
ATOM      6  C   UNL     1       6.496   4.671  16.979  0.00  0.00    +0.000 A 
ENDROOT
BRANCH   6   7
ATOM      7  C   UNL     1       6.012   3.900  15.787  0.00  0.00    +0.000 C 
ATOM      8  O   UNL     1       5.153   3.044  15.992  0.00  0.00    +0.000 OA
ATOM      9  N   UNL     1       6.488   4.207  14.477  0.00  0.00    +0.000 N 
ATOM     10  C   UNL     1       5.752   3.607  13.356  0.00  0.00    +0.000 C 
ATOM     11  C   UNL     1       6.604   3.440  12.095  0.00  0.00    +0.000 C 
ATOM     12  C   UNL     1       7.263   4.750  11.692  0.00  0.00    +0.000 C 
ATOM     13  C   UNL     1       8.113   5.258  12.844  0.00  0.00    +0.000 C 
ATOM     14  C   UNL     1       7.310   5.377  14.134  0.00  0.00    +0.000 C 
ENDBRANCH   6   7
BRANCH   1  15
ATOM     15  C   UNL     1       4.576   6.393  17.009  0.00  0.00    +0.000 C 
ATOM     16  O   UNL     1       4.538   7.058  15.985  0.00  0.00    +0.000 OA
BRANCH  15  18
ATOM     17  O   UNL     1       2.808   4.913  17.557  0.00  0.00    +0.000 OA
ATOM     18  C   UNL     1       3.263   6.036  17.721  0.00  0.00    +0.000 C 
BRANCH  18  19
ATOM     19  C   UNL     1       2.558   7.086  18.519  0.00  0.00    +0.000 A 
ATOM     20  C   UNL     1       2.225   8.305  17.905  0.00  0.00    +0.000 A 
ATOM     21  C   UNL     1       1.529   9.297  18.609  0.00  0.00    +0.000 A 
ATOM     22  C   UNL     1       1.169   9.087  19.937  0.00  0.00    +0.000 A 
ATOM     23 CL   UNL     1       0.306  10.307  20.793  0.00  0.00    +0.000 Cl
ATOM     24  C   UNL     1       1.493   7.894  20.569  0.00  0.00    +0.000 A 
ATOM     25  C   UNL     1       2.186   6.890  19.860  0.00  0.00    +0.000 A 
ATOM     26 CL   UNL     1       2.432   5.410  20.719  0.00  0.00    +0.000 Cl
ENDBRANCH  18  19
ENDBRANCH  15  18
ENDBRANCH   1  15
TORSDOF 4
ENDMDL
MODEL 5
REMARK VINA RESULT:      -7.5      3.039      5.075
REMARK  Name = 
REMARK  4 active torsions:
REMARK  status: ('A' for Active; 'I' for Inactive)
REMARK    1  A    between atoms: C_2  and  C_3
REMARK    2  A    between atoms: C_2  and  C_19
REMARK    3  A    between atoms: C_3  and  C_5
REMARK    4  A    between atoms: C_10  and  C_11
REMARK                            x       y       z     vdW  Elec       q    Type
REMARK                         _______ _______ _______ _____ _____    ______ ____
ROOT
ATOM      1  C   UNL     1       6.019   6.049  17.268  0.00  0.00    +0.000 A 
ATOM      2  C   UNL     1       6.538   6.685  18.417  0.00  0.00    +0.000 A 
ATOM      3  C   UNL     1       7.603   6.142  19.130  0.00  0.00    +0.000 A 
ATOM      4  C   UNL     1       8.224   4.998  18.662  0.00  0.00    +0.000 A 
ATOM      5  C   UNL     1       7.746   4.382  17.505  0.00  0.00    +0.000 A 
ATOM      6  C   UNL     1       6.575   4.817  16.861  0.00  0.00    +0.000 A 
ENDROOT
BRANCH   6   7
ATOM      7  C   UNL     1       6.072   3.991  15.714  0.00  0.00    +0.000 C 
ATOM      8  O   UNL     1       5.214   3.148  15.972  0.00  0.00    +0.000 OA
ATOM      9  N   UNL     1       6.527   4.235  14.383  0.00  0.00    +0.000 N 
ATOM     10  C   UNL     1       5.773   3.584  13.304  0.00  0.00    +0.000 C 
ATOM     11  C   UNL     1       6.605   3.355  12.040  0.00  0.00    +0.000 C 
ATOM     12  C   UNL     1       7.260   4.643  11.565  0.00  0.00    +0.000 C 
ATOM     13  C   UNL     1       8.129   5.203  12.678  0.00  0.00    +0.000 C 
ATOM     14  C   UNL     1       7.346   5.385  13.973  0.00  0.00    +0.000 C 
ENDBRANCH   6   7
BRANCH   1  15
ATOM     15  C   UNL     1       4.878   6.741  16.600  0.00  0.00    +0.000 C 
ATOM     16  O   UNL     1       4.844   6.962  15.399  0.00  0.00    +0.000 OA
BRANCH  15  18
ATOM     17  O   UNL     1       3.263   8.213  17.519  0.00  0.00    +0.000 OA
ATOM     18  C   UNL     1       3.641   7.052  17.455  0.00  0.00    +0.000 C 
BRANCH  18  19
ATOM     19  C   UNL     1       2.995   5.947  18.230  0.00  0.00    +0.000 A 
ATOM     20  C   UNL     1       3.088   4.629  17.751  0.00  0.00    +0.000 A 
ATOM     21  C   UNL     1       2.531   3.563  18.470  0.00  0.00    +0.000 A 
ATOM     22  C   UNL     1       1.865   3.803  19.668  0.00  0.00    +0.000 A 
ATOM     23 CL   UNL     1       1.191   2.486  20.551  0.00  0.00    +0.000 Cl
ATOM     24  C   UNL     1       1.753   5.096  20.159  0.00  0.00    +0.000 A 
ATOM     25  C   UNL     1       2.320   6.171  19.442  0.00  0.00    +0.000 A 
ATOM     26 CL   UNL     1       2.212   7.716  20.211  0.00  0.00    +0.000 Cl
ENDBRANCH  18  19
ENDBRANCH  15  18
ENDBRANCH   1  15
TORSDOF 4
ENDMDL
MODEL 6
REMARK VINA RESULT:      -7.4      0.917      1.137
REMARK  Name = 
REMARK  4 active torsions:
REMARK  status: ('A' for Active; 'I' for Inactive)
REMARK    1  A    between atoms: C_2  and  C_3
REMARK    2  A    between atoms: C_2  and  C_19
REMARK    3  A    between atoms: C_3  and  C_5
REMARK    4  A    between atoms: C_10  and  C_11
REMARK                            x       y       z     vdW  Elec       q    Type
REMARK                         _______ _______ _______ _____ _____    ______ ____
ROOT
ATOM      1  C   UNL     1       2.296   4.576  19.457  0.00  0.00    +0.000 A 
ATOM      2  C   UNL     1       1.838   4.550  20.792  0.00  0.00    +0.000 A 
ATOM      3  C   UNL     1       2.108   3.475  21.633  0.00  0.00    +0.000 A 
ATOM      4  C   UNL     1       2.912   2.443  21.183  0.00  0.00    +0.000 A 
ATOM      5  C   UNL     1       3.405   2.476  19.879  0.00  0.00    +0.000 A 
ATOM      6  C   UNL     1       3.014   3.465  18.961  0.00  0.00    +0.000 A 
ENDROOT
BRANCH   6   7
ATOM      7  C   UNL     1       3.488   3.319  17.545  0.00  0.00    +0.000 C 
ATOM      8  O   UNL     1       2.700   2.813  16.747  0.00  0.00    +0.000 OA
ATOM      9  N   UNL     1       4.767   3.811  17.148  0.00  0.00    +0.000 N 
ATOM     10  C   UNL     1       5.020   3.886  15.704  0.00  0.00    +0.000 C 
ATOM     11  C   UNL     1       6.507   3.809  15.347  0.00  0.00    +0.000 C 
ATOM     12  C   UNL     1       7.316   4.848  16.109  0.00  0.00    +0.000 C 
ATOM     13  C   UNL     1       7.116   4.641  17.601  0.00  0.00    +0.000 C 
ATOM     14  C   UNL     1       5.641   4.649  17.983  0.00  0.00    +0.000 C 
ENDBRANCH   6   7
BRANCH   1  15
ATOM     15  C   UNL     1       1.935   5.789  18.667  0.00  0.00    +0.000 C 
ATOM     16  O   UNL     1       1.095   5.781  17.779  0.00  0.00    +0.000 OA
BRANCH  15  18
ATOM     17  O   UNL     1       3.745   7.303  18.889  0.00  0.00    +0.000 OA
ATOM     18  C   UNL     1       2.554   7.126  19.101  0.00  0.00    +0.000 C 
BRANCH  18  19
ATOM     19  C   UNL     1       1.703   8.120  19.826  0.00  0.00    +0.000 A 
ATOM     20  C   UNL     1       1.336   7.866  21.158  0.00  0.00    +0.000 A 
ATOM     21  C   UNL     1       0.574   8.793  21.883  0.00  0.00    +0.000 A 
ATOM     22  C   UNL     1       0.162   9.978  21.280  0.00  0.00    +0.000 A 
ATOM     23 CL   UNL     1      -0.767  11.116  22.180  0.00  0.00    +0.000 Cl
ATOM     24  C   UNL     1       0.506  10.250  19.963  0.00  0.00    +0.000 A 
ATOM     25  C   UNL     1       1.280   9.322  19.234  0.00  0.00    +0.000 A 
ATOM     26 CL   UNL     1       1.737   9.825  17.644  0.00  0.00    +0.000 Cl
ENDBRANCH  18  19
ENDBRANCH  15  18
ENDBRANCH   1  15
TORSDOF 4
ENDMDL
MODEL 7
REMARK VINA RESULT:      -7.4      3.463      6.559
REMARK  Name = 
REMARK  4 active torsions:
REMARK  status: ('A' for Active; 'I' for Inactive)
REMARK    1  A    between atoms: C_2  and  C_3
REMARK    2  A    between atoms: C_2  and  C_19
REMARK    3  A    between atoms: C_3  and  C_5
REMARK    4  A    between atoms: C_10  and  C_11
REMARK                            x       y       z     vdW  Elec       q    Type
REMARK                         _______ _______ _______ _____ _____    ______ ____
ROOT
ATOM      1  C   UNL     1       3.778   4.416  18.703  0.00  0.00    +0.000 A 
ATOM      2  C   UNL     1       4.012   3.243  17.952  0.00  0.00    +0.000 A 
ATOM      3  C   UNL     1       2.988   2.347  17.665  0.00  0.00    +0.000 A 
ATOM      4  C   UNL     1       1.693   2.645  18.050  0.00  0.00    +0.000 A 
ATOM      5  C   UNL     1       1.441   3.820  18.758  0.00  0.00    +0.000 A 
ATOM      6  C   UNL     1       2.479   4.658  19.201  0.00  0.00    +0.000 A 
ENDROOT
BRANCH   6   7
ATOM      7  C   UNL     1       2.105   5.815  20.080  0.00  0.00    +0.000 C 
ATOM      8  O   UNL     1       2.057   5.598  21.290  0.00  0.00    +0.000 OA
ATOM      9  N   UNL     1       1.886   7.112  19.526  0.00  0.00    +0.000 N 
ATOM     10  C   UNL     1       1.812   8.226  20.480  0.00  0.00    +0.000 C 
ATOM     11  C   UNL     1       0.997   9.413  19.960  0.00  0.00    +0.000 C 
ATOM     12  C   UNL     1       1.495   9.875  18.599  0.00  0.00    +0.000 C 
ATOM     13  C   UNL     1       1.428   8.715  17.620  0.00  0.00    +0.000 C 
ATOM     14  C   UNL     1       2.177   7.493  18.136  0.00  0.00    +0.000 C 
ENDBRANCH   6   7
BRANCH   1  15
ATOM     15  C   UNL     1       4.966   5.289  18.936  0.00  0.00    +0.000 C 
ATOM     16  O   UNL     1       5.631   5.249  19.960  0.00  0.00    +0.000 OA
BRANCH  15  18
ATOM     17  O   UNL     1       5.466   7.376  17.931  0.00  0.00    +0.000 OA
ATOM     18  C   UNL     1       5.440   6.165  17.767  0.00  0.00    +0.000 C 
BRANCH  18  19
ATOM     19  C   UNL     1       5.777   5.517  16.462  0.00  0.00    +0.000 A 
ATOM     20  C   UNL     1       4.985   5.793  15.335  0.00  0.00    +0.000 A 
ATOM     21  C   UNL     1       5.293   5.236  14.086  0.00  0.00    +0.000 A 
ATOM     22  C   UNL     1       6.390   4.389  13.953  0.00  0.00    +0.000 A 
ATOM     23 CL   UNL     1       6.768   3.716  12.413  0.00  0.00    +0.000 Cl
ATOM     24  C   UNL     1       7.184   4.095  15.052  0.00  0.00    +0.000 A 
ATOM     25  C   UNL     1       6.881   4.661  16.309  0.00  0.00    +0.000 A 
ATOM     26 CL   UNL     1       8.007   4.309  17.573  0.00  0.00    +0.000 Cl
ENDBRANCH  18  19
ENDBRANCH  15  18
ENDBRANCH   1  15
TORSDOF 4
ENDMDL
MODEL 8
REMARK VINA RESULT:      -7.4      1.138      1.563
REMARK  Name = 
REMARK  4 active torsions:
REMARK  status: ('A' for Active; 'I' for Inactive)
REMARK    1  A    between atoms: C_2  and  C_3
REMARK    2  A    between atoms: C_2  and  C_19
REMARK    3  A    between atoms: C_3  and  C_5
REMARK    4  A    between atoms: C_10  and  C_11
REMARK                            x       y       z     vdW  Elec       q    Type
REMARK                         _______ _______ _______ _____ _____    ______ ____
ROOT
ATOM      1  C   UNL     1       2.133   4.362  19.208  0.00  0.00    +0.000 A 
ATOM      2  C   UNL     1       1.154   4.267  20.220  0.00  0.00    +0.000 A 
ATOM      3  C   UNL     1       1.289   3.378  21.282  0.00  0.00    +0.000 A 
ATOM      4  C   UNL     1       2.444   2.625  21.398  0.00  0.00    +0.000 A 
ATOM      5  C   UNL     1       3.437   2.738  20.426  0.00  0.00    +0.000 A 
ATOM      6  C   UNL     1       3.254   3.505  19.262  0.00  0.00    +0.000 A 
ENDROOT
BRANCH   6   7
ATOM      7  C   UNL     1       4.327   3.437  18.215  0.00  0.00    +0.000 C 
ATOM      8  O   UNL     1       4.092   2.744  17.226  0.00  0.00    +0.000 OA
ATOM      9  N   UNL     1       5.525   4.200  18.346  0.00  0.00    +0.000 N 
ATOM     10  C   UNL     1       6.375   4.295  17.152  0.00  0.00    +0.000 C 
ATOM     11  C   UNL     1       7.848   4.553  17.479  0.00  0.00    +0.000 C 
ATOM     12  C   UNL     1       8.013   5.768  18.379  0.00  0.00    +0.000 C 
ATOM     13  C   UNL     1       7.215   5.558  19.655  0.00  0.00    +0.000 C 
ATOM     14  C   UNL     1       5.754   5.236  19.365  0.00  0.00    +0.000 C 
ENDBRANCH   6   7
BRANCH   1  15
ATOM     15  C   UNL     1       1.862   5.357  18.129  0.00  0.00    +0.000 C 
ATOM     16  O   UNL     1       1.027   5.181  17.255  0.00  0.00    +0.000 OA
BRANCH  15  18
ATOM     17  O   UNL     1       3.770   6.756  17.981  0.00  0.00    +0.000 OA
ATOM     18  C   UNL     1       2.572   6.715  18.226  0.00  0.00    +0.000 C 
BRANCH  18  19
ATOM     19  C   UNL     1       1.798   7.911  18.682  0.00  0.00    +0.000 A 
ATOM     20  C   UNL     1       1.298   8.809  17.724  0.00  0.00    +0.000 A 
ATOM     21  C   UNL     1       0.533   9.919  18.111  0.00  0.00    +0.000 A 
ATOM     22  C   UNL     1       0.271  10.149  19.458  0.00  0.00    +0.000 A 
ATOM     23 CL   UNL     1      -0.677  11.509  19.925  0.00  0.00    +0.000 Cl
ATOM     24  C   UNL     1       0.760   9.280  20.424  0.00  0.00    +0.000 A 
ATOM     25  C   UNL     1       1.522   8.158  20.038  0.00  0.00    +0.000 A 
ATOM     26 CL   UNL     1       1.978   7.092  21.321  0.00  0.00    +0.000 Cl
ENDBRANCH  18  19
ENDBRANCH  15  18
ENDBRANCH   1  15
TORSDOF 4
ENDMDL
MODEL 9
REMARK VINA RESULT:      -7.4      1.583      2.053
REMARK  Name = 
REMARK  4 active torsions:
REMARK  status: ('A' for Active; 'I' for Inactive)
REMARK    1  A    between atoms: C_2  and  C_3
REMARK    2  A    between atoms: C_2  and  C_19
REMARK    3  A    between atoms: C_3  and  C_5
REMARK    4  A    between atoms: C_10  and  C_11
REMARK                            x       y       z     vdW  Elec       q    Type
REMARK                         _______ _______ _______ _____ _____    ______ ____
ROOT
ATOM      1  C   UNL     1       2.278   4.070  19.545  0.00  0.00    +0.000 A 
ATOM      2  C   UNL     1       0.957   3.589  19.405  0.00  0.00    +0.000 A 
ATOM      3  C   UNL     1       0.680   2.420  18.704  0.00  0.00    +0.000 A 
ATOM      4  C   UNL     1       1.722   1.663  18.200  0.00  0.00    +0.000 A 
ATOM      5  C   UNL     1       3.034   2.106  18.366  0.00  0.00    +0.000 A 
ATOM      6  C   UNL     1       3.330   3.361  18.925  0.00  0.00    +0.000 A 
ENDROOT
BRANCH   6   7
ATOM      7  C   UNL     1       4.766   3.798  18.920  0.00  0.00    +0.000 C 
ATOM      8  O   UNL     1       5.404   3.614  19.955  0.00  0.00    +0.000 OA
ATOM      9  N   UNL     1       5.361   4.335  17.740  0.00  0.00    +0.000 N 
ATOM     10  C   UNL     1       6.824   4.460  17.744  0.00  0.00    +0.000 C 
ATOM     11  C   UNL     1       7.339   5.551  16.801  0.00  0.00    +0.000 C 
ATOM     12  C   UNL     1       6.799   5.366  15.391  0.00  0.00    +0.000 C 
ATOM     13  C   UNL     1       5.280   5.373  15.431  0.00  0.00    +0.000 C 
ATOM     14  C   UNL     1       4.734   4.340  16.409  0.00  0.00    +0.000 C 
ENDBRANCH   6   7
BRANCH   1  15
ATOM     15  C   UNL     1       2.432   5.334  20.322  0.00  0.00    +0.000 C 
ATOM     16  O   UNL     1       2.627   5.355  21.528  0.00  0.00    +0.000 OA
BRANCH  15  18
ATOM     17  O   UNL     1       3.256   6.715  18.581  0.00  0.00    +0.000 OA
ATOM     18  C   UNL     1       2.489   6.649  19.530  0.00  0.00    +0.000 C 
BRANCH  18  19
ATOM     19  C   UNL     1       1.666   7.811  19.989  0.00  0.00    +0.000 A 
ATOM     20  C   UNL     1       1.140   7.806  21.292  0.00  0.00    +0.000 A 
ATOM     21  C   UNL     1       0.399   8.895  21.771  0.00  0.00    +0.000 A 
ATOM     22  C   UNL     1       0.166   9.994  20.950  0.00  0.00    +0.000 A 
ATOM     23 CL   UNL     1      -0.739  11.333  21.549  0.00  0.00    +0.000 Cl
ATOM     24  C   UNL     1       0.668  10.020  19.657  0.00  0.00    +0.000 A 
ATOM     25  C   UNL     1       1.422   8.929  19.174  0.00  0.00    +0.000 A 
ATOM     26 CL   UNL     1       2.087   9.129  17.590  0.00  0.00    +0.000 Cl
ENDBRANCH  18  19
ENDBRANCH  15  18
ENDBRANCH   1  15
TORSDOF 4
ENDMDL
