MODEL 1
REMARK VINA RESULT:      -8.1      0.000      0.000
REMARK  Name = 
REMARK  10 active torsions:
REMARK  status: ('A' for Active; 'I' for Inactive)
REMARK    1  A    between atoms: C_1  and  C_2
REMARK    2  A    between atoms: C_2  and  C_3
REMARK    3  A    between atoms: C_2  and  C_4
REMARK    4  A    between atoms: C_2  and  O_5
REMARK    5  A    between atoms: O_5  and  C_6
REMARK    6  A    between atoms: C_6  and  C_8
REMARK    7  A    between atoms: C_11  and  N_12
REMARK    8  A    between atoms: C_14  and  C_15
REMARK    9  A    between atoms: N_19  and  C_20
REMARK   10  A    between atoms: C_28  and  C_29
REMARK                            x       y       z     vdW  Elec       q    Type
REMARK                         _______ _______ _______ _____ _____    ______ ____
ROOT
ATOM      1  N   UNL     1       2.098   7.101  19.954  0.00  0.00    +0.000 N 
ATOM      2  C   UNL     1       1.410   6.188  20.686  0.00  0.00    +0.000 A 
ATOM      3  C   UNL     1       2.157   5.021  20.637  0.00  0.00    +0.000 A 
ATOM      4  C   UNL     1       3.279   5.346  19.814  0.00  0.00    +0.000 A 
ATOM      5  N   UNL     1       4.223   4.444  19.431  0.00  0.00    +0.000 N 
ATOM      6  N   UNL     1       3.210   6.616  19.408  0.00  0.00    +0.000 NA
ATOM      7  H   UNL     1       4.191   3.523  19.867  0.00  0.00    +0.000 HD
ENDROOT
BRANCH   5   8
ATOM      8  C   UNL     1       5.082   4.499  18.307  0.00  0.00    +0.000 A 
ATOM      9  C   UNL     1       6.396   4.994  18.372  0.00  0.00    +0.000 A 
ATOM     10  C   UNL     1       7.161   5.194  17.221  0.00  0.00    +0.000 A 
ATOM     11  C   UNL     1       6.621   4.884  15.985  0.00  0.00    +0.000 A 
ATOM     12  F   UNL     1       7.340   5.101  14.876  0.00  0.00    +0.000 F 
ATOM     13  C   UNL     1       5.339   4.358  15.884  0.00  0.00    +0.000 A 
ATOM     14  C   UNL     1       4.575   4.164  17.041  0.00  0.00    +0.000 A 
ENDBRANCH   5   8
BRANCH   1  18
ATOM     15  C   UNL     1      -0.246  10.587  18.950  0.00  0.00    +0.000 C 
ATOM     16  C   UNL     1       0.729  10.023  17.916  0.00  0.00    +0.000 C 
ATOM     17  C   UNL     1       1.130   8.591  18.251  0.00  0.00    +0.000 C 
ATOM     18  C   UNL     1       1.727   8.483  19.666  0.00  0.00    +0.000 C 
ATOM     19  C   UNL     1       0.745   9.035  20.723  0.00  0.00    +0.000 C 
ATOM     20  C   UNL     1       0.327  10.470  20.370  0.00  0.00    +0.000 C 
BRANCH  15  21
ATOM     21  C   UNL     1      -0.520  12.045  18.633  0.00  0.00    +0.000 C 
ATOM     22  O   UNL     1      -1.125  12.404  17.636  0.00  0.00    +0.000 OA
BRANCH  21  23
ATOM     23  O   UNL     1      -0.037  12.860  19.612  0.00  0.00    +0.000 OA
BRANCH  23  25
ATOM     24  C   UNL     1       0.278  15.182  18.844  0.00  0.00    +0.000 C 
ATOM     25  C   UNL     1       0.953  13.872  19.269  0.00  0.00    +0.000 C 
ATOM     26  C   UNL     1       1.926  13.352  18.203  0.00  0.00    +0.000 C 
ATOM     27  C   UNL     1       1.746  14.146  20.558  0.00  0.00    +0.000 C 
ENDBRANCH  23  25
ENDBRANCH  21  23
ENDBRANCH  15  21
BRANCH  19  28
ATOM     28  C   UNL     1       1.373   9.019  22.057  0.00  0.00    +0.000 C 
ATOM     29  N   UNL     1       1.851   9.041  23.118  0.00  0.00    +0.000 NA
ENDBRANCH  19  28
ENDBRANCH   1  18
BRANCH   3  30
ATOM     30  C   UNL     1       1.832   3.759  21.263  0.00  0.00    +0.000 C 
ATOM     31  N   UNL     1       0.729   3.122  20.762  0.00  0.00    +0.000 N 
ATOM     32  O   UNL     1       2.507   3.252  22.152  0.00  0.00    +0.000 OA
ATOM     33  H   UNL     1       0.382   3.359  19.840  0.00  0.00    +0.000 HD
ATOM     34  H   UNL     1       0.554   2.187  21.101  0.00  0.00    +0.000 HD
ENDBRANCH   3  30
TORSDOF 7
ENDMDL
MODEL 2
REMARK VINA RESULT:      -8.0      0.252      1.190
REMARK  Name = 
REMARK  10 active torsions:
REMARK  status: ('A' for Active; 'I' for Inactive)
REMARK    1  A    between atoms: C_1  and  C_2
REMARK    2  A    between atoms: C_2  and  C_3
REMARK    3  A    between atoms: C_2  and  C_4
REMARK    4  A    between atoms: C_2  and  O_5
REMARK    5  A    between atoms: O_5  and  C_6
REMARK    6  A    between atoms: C_6  and  C_8
REMARK    7  A    between atoms: C_11  and  N_12
REMARK    8  A    between atoms: C_14  and  C_15
REMARK    9  A    between atoms: N_19  and  C_20
REMARK   10  A    between atoms: C_28  and  C_29
REMARK                            x       y       z     vdW  Elec       q    Type
REMARK                         _______ _______ _______ _____ _____    ______ ____
ROOT
ATOM      1  N   UNL     1       2.025   7.200  19.948  0.00  0.00    +0.000 N 
ATOM      2  C   UNL     1       1.372   6.274  20.696  0.00  0.00    +0.000 A 
ATOM      3  C   UNL     1       2.132   5.117  20.616  0.00  0.00    +0.000 A 
ATOM      4  C   UNL     1       3.223   5.460  19.760  0.00  0.00    +0.000 A 
ATOM      5  N   UNL     1       4.166   4.573  19.342  0.00  0.00    +0.000 N 
ATOM      6  N   UNL     1       3.125   6.731  19.364  0.00  0.00    +0.000 NA
ATOM      7  H   UNL     1       4.158   3.649  19.773  0.00  0.00    +0.000 HD
ENDROOT
BRANCH   5   8
ATOM      8  C   UNL     1       4.988   4.645  18.192  0.00  0.00    +0.000 A 
ATOM      9  C   UNL     1       4.503   4.433  16.890  0.00  0.00    +0.000 A 
ATOM     10  C   UNL     1       5.362   4.343  15.793  0.00  0.00    +0.000 A 
ATOM     11  C   UNL     1       6.726   4.479  15.987  0.00  0.00    +0.000 A 
ATOM     12  F   UNL     1       7.557   4.364  14.943  0.00  0.00    +0.000 F 
ATOM     13  C   UNL     1       7.240   4.724  17.254  0.00  0.00    +0.000 A 
ATOM     14  C   UNL     1       6.373   4.810  18.351  0.00  0.00    +0.000 A 
ENDBRANCH   5   8
BRANCH   1  18
ATOM     15  C   UNL     1      -0.385  10.655  18.997  0.00  0.00    +0.000 C 
ATOM     16  C   UNL     1       0.599  10.124  17.953  0.00  0.00    +0.000 C 
ATOM     17  C   UNL     1       1.026   8.695  18.268  0.00  0.00    +0.000 C 
ATOM     18  C   UNL     1       1.629   8.578  19.680  0.00  0.00    +0.000 C 
ATOM     19  C   UNL     1       0.639   9.098  20.746  0.00  0.00    +0.000 C 
ATOM     20  C   UNL     1       0.194  10.529  20.415  0.00  0.00    +0.000 C 
BRANCH  15  21
ATOM     21  C   UNL     1      -0.687  12.112  18.702  0.00  0.00    +0.000 C 
ATOM     22  O   UNL     1      -1.255  12.478  17.686  0.00  0.00    +0.000 OA
BRANCH  21  23
ATOM     23  O   UNL     1      -0.272  12.916  19.720  0.00  0.00    +0.000 OA
BRANCH  23  25
ATOM     24  C   UNL     1       1.710  13.461  18.357  0.00  0.00    +0.000 C 
ATOM     25  C   UNL     1       0.750  13.922  19.461  0.00  0.00    +0.000 C 
ATOM     26  C   UNL     1       1.491  14.299  20.750  0.00  0.00    +0.000 C 
ATOM     27  C   UNL     1       0.004  15.166  18.949  0.00  0.00    +0.000 C 
ENDBRANCH  23  25
ENDBRANCH  21  23
ENDBRANCH  15  21
BRANCH  19  28
ATOM     28  C   UNL     1       1.270   9.074  22.079  0.00  0.00    +0.000 C 
ATOM     29  N   UNL     1       1.790   9.087  23.120  0.00  0.00    +0.000 NA
ENDBRANCH  19  28
ENDBRANCH   1  18
BRANCH   3  30
ATOM     30  C   UNL     1       1.842   3.847  21.244  0.00  0.00    +0.000 C 
ATOM     31  N   UNL     1       0.758   3.179  20.744  0.00  0.00    +0.000 N 
ATOM     32  O   UNL     1       2.532   3.361  22.134  0.00  0.00    +0.000 OA
ATOM     33  H   UNL     1       0.404   3.404  19.823  0.00  0.00    +0.000 HD
ATOM     34  H   UNL     1       0.609   2.240  21.085  0.00  0.00    +0.000 HD
ENDBRANCH   3  30
TORSDOF 7
ENDMDL
MODEL 3
REMARK VINA RESULT:      -7.7      4.274      9.428
REMARK  Name = 
REMARK  10 active torsions:
REMARK  status: ('A' for Active; 'I' for Inactive)
REMARK    1  A    between atoms: C_1  and  C_2
REMARK    2  A    between atoms: C_2  and  C_3
REMARK    3  A    between atoms: C_2  and  C_4
REMARK    4  A    between atoms: C_2  and  O_5
REMARK    5  A    between atoms: O_5  and  C_6
REMARK    6  A    between atoms: C_6  and  C_8
REMARK    7  A    between atoms: C_11  and  N_12
REMARK    8  A    between atoms: C_14  and  C_15
REMARK    9  A    between atoms: N_19  and  C_20
REMARK   10  A    between atoms: C_28  and  C_29
REMARK                            x       y       z     vdW  Elec       q    Type
REMARK                         _______ _______ _______ _____ _____    ______ ____
ROOT
ATOM      1  N   UNL     1       0.593  10.307  18.957  0.00  0.00    +0.000 N 
ATOM      2  C   UNL     1       1.343  11.422  18.767  0.00  0.00    +0.000 A 
ATOM      3  C   UNL     1       0.457  12.488  18.816  0.00  0.00    +0.000 A 
ATOM      4  C   UNL     1      -0.822  11.885  19.019  0.00  0.00    +0.000 A 
ATOM      5  N   UNL     1      -1.992  12.579  19.035  0.00  0.00    +0.000 N 
ATOM      6  N   UNL     1      -0.707  10.557  19.093  0.00  0.00    +0.000 NA
ATOM      7  H   UNL     1      -1.930  13.597  19.032  0.00  0.00    +0.000 HD
ENDROOT
BRANCH   5   8
ATOM      8  C   UNL     1      -3.299  12.100  18.773  0.00  0.00    +0.000 A 
ATOM      9  C   UNL     1      -3.664  11.503  17.554  0.00  0.00    +0.000 A 
ATOM     10  C   UNL     1      -4.993  11.194  17.259  0.00  0.00    +0.000 A 
ATOM     11  C   UNL     1      -5.977  11.468  18.194  0.00  0.00    +0.000 A 
ATOM     12  F   UNL     1      -7.256  11.201  17.904  0.00  0.00    +0.000 F 
ATOM     13  C   UNL     1      -5.649  12.025  19.424  0.00  0.00    +0.000 A 
ATOM     14  C   UNL     1      -4.315  12.336  19.713  0.00  0.00    +0.000 A 
ENDBRANCH   5   8
BRANCH   1  18
ATOM     15  C   UNL     1       3.124   6.822  19.270  0.00  0.00    +0.000 C 
ATOM     16  C   UNL     1       2.628   7.260  17.891  0.00  0.00    +0.000 C 
ATOM     17  C   UNL     1       2.137   8.702  17.909  0.00  0.00    +0.000 C 
ATOM     18  C   UNL     1       1.038   8.917  18.967  0.00  0.00    +0.000 C 
ATOM     19  C   UNL     1       1.532   8.493  20.367  0.00  0.00    +0.000 C 
ATOM     20  C   UNL     1       2.046   7.046  20.341  0.00  0.00    +0.000 C 
BRANCH  15  21
ATOM     21  C   UNL     1       3.492   5.350  19.223  0.00  0.00    +0.000 C 
ATOM     22  O   UNL     1       4.142   4.859  18.315  0.00  0.00    +0.000 OA
BRANCH  21  23
ATOM     23  O   UNL     1       3.031   4.694  20.324  0.00  0.00    +0.000 OA
BRANCH  23  25
ATOM     24  C   UNL     1       3.283   2.332  19.660  0.00  0.00    +0.000 C 
ATOM     25  C   UNL     1       2.331   3.428  20.156  0.00  0.00    +0.000 C 
ATOM     26  C   UNL     1       1.112   3.590  19.238  0.00  0.00    +0.000 C 
ATOM     27  C   UNL     1       1.835   3.025  21.554  0.00  0.00    +0.000 C 
ENDBRANCH  23  25
ENDBRANCH  21  23
ENDBRANCH  15  21
BRANCH  19  28
ATOM     28  C   UNL     1       0.436   8.608  21.348  0.00  0.00    +0.000 C 
ATOM     29  N   UNL     1      -0.427   8.660  22.126  0.00  0.00    +0.000 NA
ENDBRANCH  19  28
ENDBRANCH   1  18
BRANCH   3  30
ATOM     30  C   UNL     1       0.780  13.889  18.661  0.00  0.00    +0.000 C 
ATOM     31  N   UNL     1       2.106  14.167  18.466  0.00  0.00    +0.000 N 
ATOM     32  O   UNL     1      -0.062  14.780  18.655  0.00  0.00    +0.000 OA
ATOM     33  H   UNL     1       2.734  13.442  18.142  0.00  0.00    +0.000 HD
ATOM     34  H   UNL     1       2.339  15.122  18.237  0.00  0.00    +0.000 HD
ENDBRANCH   3  30
TORSDOF 7
ENDMDL
MODEL 4
REMARK VINA RESULT:      -7.7      0.928      1.480
REMARK  Name = 
REMARK  10 active torsions:
REMARK  status: ('A' for Active; 'I' for Inactive)
REMARK    1  A    between atoms: C_1  and  C_2
REMARK    2  A    between atoms: C_2  and  C_3
REMARK    3  A    between atoms: C_2  and  C_4
REMARK    4  A    between atoms: C_2  and  O_5
REMARK    5  A    between atoms: O_5  and  C_6
REMARK    6  A    between atoms: C_6  and  C_8
REMARK    7  A    between atoms: C_11  and  N_12
REMARK    8  A    between atoms: C_14  and  C_15
REMARK    9  A    between atoms: N_19  and  C_20
REMARK   10  A    between atoms: C_28  and  C_29
REMARK                            x       y       z     vdW  Elec       q    Type
REMARK                         _______ _______ _______ _____ _____    ______ ____
ROOT
ATOM      1  N   UNL     1       2.063   7.224  19.968  0.00  0.00    +0.000 N 
ATOM      2  C   UNL     1       1.394   6.299  20.704  0.00  0.00    +0.000 A 
ATOM      3  C   UNL     1       2.134   5.131  20.609  0.00  0.00    +0.000 A 
ATOM      4  C   UNL     1       3.231   5.466  19.756  0.00  0.00    +0.000 A 
ATOM      5  N   UNL     1       4.158   4.569  19.327  0.00  0.00    +0.000 N 
ATOM      6  N   UNL     1       3.155   6.744  19.378  0.00  0.00    +0.000 NA
ATOM      7  H   UNL     1       4.135   3.639  19.746  0.00  0.00    +0.000 HD
ENDROOT
BRANCH   5   8
ATOM      8  C   UNL     1       4.982   4.642  18.177  0.00  0.00    +0.000 A 
ATOM      9  C   UNL     1       4.497   4.431  16.875  0.00  0.00    +0.000 A 
ATOM     10  C   UNL     1       5.357   4.342  15.778  0.00  0.00    +0.000 A 
ATOM     11  C   UNL     1       6.720   4.478  15.973  0.00  0.00    +0.000 A 
ATOM     12  F   UNL     1       7.552   4.364  14.930  0.00  0.00    +0.000 F 
ATOM     13  C   UNL     1       7.234   4.722  17.241  0.00  0.00    +0.000 A 
ATOM     14  C   UNL     1       6.367   4.807  18.337  0.00  0.00    +0.000 A 
ENDBRANCH   5   8
BRANCH   1  18
ATOM     15  C   UNL     1      -0.288  10.732  19.065  0.00  0.00    +0.000 C 
ATOM     16  C   UNL     1       0.685  10.198  18.013  0.00  0.00    +0.000 C 
ATOM     17  C   UNL     1       1.088   8.758  18.309  0.00  0.00    +0.000 C 
ATOM     18  C   UNL     1       1.690   8.612  19.719  0.00  0.00    +0.000 C 
ATOM     19  C   UNL     1       0.711   9.135  20.793  0.00  0.00    +0.000 C 
ATOM     20  C   UNL     1       0.290  10.578  20.480  0.00  0.00    +0.000 C 
BRANCH  15  21
ATOM     21  C   UNL     1      -0.565  12.198  18.789  0.00  0.00    +0.000 C 
ATOM     22  O   UNL     1      -1.146  12.585  17.788  0.00  0.00    +0.000 OA
BRANCH  21  23
ATOM     23  O   UNL     1      -0.113  12.984  19.806  0.00  0.00    +0.000 OA
BRANCH  23  25
ATOM     24  C   UNL     1      -2.453  13.160  20.563  0.00  0.00    +0.000 C 
ATOM     25  C   UNL     1      -1.061  13.805  20.545  0.00  0.00    +0.000 C 
ATOM     26  C   UNL     1      -1.096  15.237  19.995  0.00  0.00    +0.000 C 
ATOM     27  C   UNL     1      -0.545  13.855  21.993  0.00  0.00    +0.000 C 
ENDBRANCH  23  25
ENDBRANCH  21  23
ENDBRANCH  15  21
BRANCH  19  28
ATOM     28  C   UNL     1       1.343   9.083  22.124  0.00  0.00    +0.000 C 
ATOM     29  N   UNL     1       1.864   9.073  23.164  0.00  0.00    +0.000 NA
ENDBRANCH  19  28
ENDBRANCH   1  18
BRANCH   3  30
ATOM     30  C   UNL     1       1.823   3.858  21.221  0.00  0.00    +0.000 C 
ATOM     31  N   UNL     1       0.733   3.210  20.706  0.00  0.00    +0.000 N 
ATOM     32  O   UNL     1       2.500   3.352  22.109  0.00  0.00    +0.000 OA
ATOM     33  H   UNL     1       0.389   3.451  19.785  0.00  0.00    +0.000 HD
ATOM     34  H   UNL     1       0.569   2.270  21.035  0.00  0.00    +0.000 HD
ENDBRANCH   3  30
TORSDOF 7
ENDMDL
MODEL 5
REMARK VINA RESULT:      -7.7      1.392      2.502
REMARK  Name = 
REMARK  10 active torsions:
REMARK  status: ('A' for Active; 'I' for Inactive)
REMARK    1  A    between atoms: C_1  and  C_2
REMARK    2  A    between atoms: C_2  and  C_3
REMARK    3  A    between atoms: C_2  and  C_4
REMARK    4  A    between atoms: C_2  and  O_5
REMARK    5  A    between atoms: O_5  and  C_6
REMARK    6  A    between atoms: C_6  and  C_8
REMARK    7  A    between atoms: C_11  and  N_12
REMARK    8  A    between atoms: C_14  and  C_15
REMARK    9  A    between atoms: N_19  and  C_20
REMARK   10  A    between atoms: C_28  and  C_29
REMARK                            x       y       z     vdW  Elec       q    Type
REMARK                         _______ _______ _______ _____ _____    ______ ____
ROOT
ATOM      1  N   UNL     1       1.941   7.131  19.895  0.00  0.00    +0.000 N 
ATOM      2  C   UNL     1       1.365   6.197  20.694  0.00  0.00    +0.000 A 
ATOM      3  C   UNL     1       2.208   5.097  20.661  0.00  0.00    +0.000 A 
ATOM      4  C   UNL     1       3.263   5.477  19.776  0.00  0.00    +0.000 A 
ATOM      5  N   UNL     1       4.265   4.642  19.390  0.00  0.00    +0.000 N 
ATOM      6  N   UNL     1       3.068   6.716  19.321  0.00  0.00    +0.000 NA
ATOM      7  H   UNL     1       4.330   3.742  19.865  0.00  0.00    +0.000 HD
ENDROOT
BRANCH   5   8
ATOM      8  C   UNL     1       5.070   4.717  18.227  0.00  0.00    +0.000 A 
ATOM      9  C   UNL     1       4.550   4.593  16.928  0.00  0.00    +0.000 A 
ATOM     10  C   UNL     1       5.383   4.502  15.811  0.00  0.00    +0.000 A 
ATOM     11  C   UNL     1       6.755   4.550  15.983  0.00  0.00    +0.000 A 
ATOM     12  F   UNL     1       7.559   4.434  14.918  0.00  0.00    +0.000 F 
ATOM     13  C   UNL     1       7.305   4.708  17.249  0.00  0.00    +0.000 A 
ATOM     14  C   UNL     1       6.465   4.795  18.366  0.00  0.00    +0.000 A 
ENDBRANCH   5   8
BRANCH   1  18
ATOM     15  C   UNL     1      -0.726  10.349  18.808  0.00  0.00    +0.000 C 
ATOM     16  C   UNL     1       0.285   9.841  17.779  0.00  0.00    +0.000 C 
ATOM     17  C   UNL     1       0.820   8.465  18.157  0.00  0.00    +0.000 C 
ATOM     18  C   UNL     1       1.442   8.462  19.565  0.00  0.00    +0.000 C 
ATOM     19  C   UNL     1       0.426   8.959  20.617  0.00  0.00    +0.000 C 
ATOM     20  C   UNL     1      -0.127  10.336  20.223  0.00  0.00    +0.000 C 
BRANCH  15  21
ATOM     21  C   UNL     1      -1.137  11.764  18.446  0.00  0.00    +0.000 C 
ATOM     22  O   UNL     1      -0.332  12.634  18.160  0.00  0.00    +0.000 OA
BRANCH  21  23
ATOM     23  O   UNL     1      -2.493  11.900  18.457  0.00  0.00    +0.000 OA
BRANCH  23  25
ATOM     24  C   UNL     1      -2.562  11.281  16.071  0.00  0.00    +0.000 C 
ATOM     25  C   UNL     1      -3.281  11.241  17.425  0.00  0.00    +0.000 C 
ATOM     26  C   UNL     1      -4.693  11.838  17.345  0.00  0.00    +0.000 C 
ATOM     27  C   UNL     1      -3.401   9.769  17.853  0.00  0.00    +0.000 C 
ENDBRANCH  23  25
ENDBRANCH  21  23
ENDBRANCH  15  21
BRANCH  19  28
ATOM     28  C   UNL     1       1.068   9.047  21.942  0.00  0.00    +0.000 C 
ATOM     29  N   UNL     1       1.576   9.157  22.983  0.00  0.00    +0.000 NA
ENDBRANCH  19  28
ENDBRANCH   1  18
BRANCH   3  30
ATOM     30  C   UNL     1       2.019   3.842  21.354  0.00  0.00    +0.000 C 
ATOM     31  N   UNL     1       0.896   3.142  21.003  0.00  0.00    +0.000 N 
ATOM     32  O   UNL     1       2.817   3.393  22.170  0.00  0.00    +0.000 OA
ATOM     33  H   UNL     1       0.433   3.334  20.124  0.00  0.00    +0.000 HD
ATOM     34  H   UNL     1       0.806   2.211  21.385  0.00  0.00    +0.000 HD
ENDBRANCH   3  30
TORSDOF 7
ENDMDL
MODEL 6
REMARK VINA RESULT:      -7.7      4.373      9.376
REMARK  Name = 
REMARK  10 active torsions:
REMARK  status: ('A' for Active; 'I' for Inactive)
REMARK    1  A    between atoms: C_1  and  C_2
REMARK    2  A    between atoms: C_2  and  C_3
REMARK    3  A    between atoms: C_2  and  C_4
REMARK    4  A    between atoms: C_2  and  O_5
REMARK    5  A    between atoms: O_5  and  C_6
REMARK    6  A    between atoms: C_6  and  C_8
REMARK    7  A    between atoms: C_11  and  N_12
REMARK    8  A    between atoms: C_14  and  C_15
REMARK    9  A    between atoms: N_19  and  C_20
REMARK   10  A    between atoms: C_28  and  C_29
REMARK                            x       y       z     vdW  Elec       q    Type
REMARK                         _______ _______ _______ _____ _____    ______ ____
ROOT
ATOM      1  N   UNL     1       0.366  10.640  19.047  0.00  0.00    +0.000 N 
ATOM      2  C   UNL     1       1.069  11.796  18.934  0.00  0.00    +0.000 A 
ATOM      3  C   UNL     1       0.143  12.819  19.073  0.00  0.00    +0.000 A 
ATOM      4  C   UNL     1      -1.109  12.151  19.241  0.00  0.00    +0.000 A 
ATOM      5  N   UNL     1      -2.305  12.795  19.321  0.00  0.00    +0.000 N 
ATOM      6  N   UNL     1      -0.941  10.827  19.213  0.00  0.00    +0.000 NA
ATOM      7  H   UNL     1      -2.283  13.811  19.396  0.00  0.00    +0.000 HD
ENDROOT
BRANCH   5   8
ATOM      8  C   UNL     1      -3.595  12.285  19.036  0.00  0.00    +0.000 A 
ATOM      9  C   UNL     1      -4.680  12.412  19.919  0.00  0.00    +0.000 A 
ATOM     10  C   UNL     1      -5.892  11.757  19.691  0.00  0.00    +0.000 A 
ATOM     11  C   UNL     1      -6.036  10.973  18.559  0.00  0.00    +0.000 A 
ATOM     12  F   UNL     1      -7.186  10.319  18.350  0.00  0.00    +0.000 F 
ATOM     13  C   UNL     1      -4.997  10.852  17.644  0.00  0.00    +0.000 A 
ATOM     14  C   UNL     1      -3.783  11.509  17.881  0.00  0.00    +0.000 A 
ENDBRANCH   5   8
BRANCH   1  18
ATOM     15  C   UNL     1       3.043   7.252  19.026  0.00  0.00    +0.000 C 
ATOM     16  C   UNL     1       2.472   7.757  17.700  0.00  0.00    +0.000 C 
ATOM     17  C   UNL     1       1.926   9.173  17.834  0.00  0.00    +0.000 C 
ATOM     18  C   UNL     1       0.866   9.273  18.946  0.00  0.00    +0.000 C 
ATOM     19  C   UNL     1       1.434   8.780  20.294  0.00  0.00    +0.000 C 
ATOM     20  C   UNL     1       2.003   7.361  20.152  0.00  0.00    +0.000 C 
BRANCH  15  21
ATOM     21  C   UNL     1       3.466   5.803  18.867  0.00  0.00    +0.000 C 
ATOM     22  O   UNL     1       4.293   5.441  18.047  0.00  0.00    +0.000 OA
BRANCH  21  23
ATOM     23  O   UNL     1       2.829   5.004  19.767  0.00  0.00    +0.000 OA
BRANCH  23  25
ATOM     24  C   UNL     1       1.530   4.171  17.844  0.00  0.00    +0.000 C 
ATOM     25  C   UNL     1       1.992   3.915  19.284  0.00  0.00    +0.000 C 
ATOM     26  C   UNL     1       0.812   3.665  20.232  0.00  0.00    +0.000 C 
ATOM     27  C   UNL     1       2.882   2.661  19.279  0.00  0.00    +0.000 C 
ENDBRANCH  23  25
ENDBRANCH  21  23
ENDBRANCH  15  21
BRANCH  19  28
ATOM     28  C   UNL     1       0.378   8.786  21.324  0.00  0.00    +0.000 C 
ATOM     29  N   UNL     1      -0.480   8.808  22.109  0.00  0.00    +0.000 NA
ENDBRANCH  19  28
ENDBRANCH   1  18
BRANCH   3  30
ATOM     30  C   UNL     1       0.409  14.239  19.022  0.00  0.00    +0.000 C 
ATOM     31  N   UNL     1       1.711  14.584  18.776  0.00  0.00    +0.000 N 
ATOM     32  O   UNL     1      -0.461  15.094  19.142  0.00  0.00    +0.000 OA
ATOM     33  H   UNL     1       2.342  13.913  18.355  0.00  0.00    +0.000 HD
ATOM     34  H   UNL     1       1.897  15.563  18.618  0.00  0.00    +0.000 HD
ENDBRANCH   3  30
TORSDOF 7
ENDMDL
MODEL 7
REMARK VINA RESULT:      -7.7      1.315      2.261
REMARK  Name = 
REMARK  10 active torsions:
REMARK  status: ('A' for Active; 'I' for Inactive)
REMARK    1  A    between atoms: C_1  and  C_2
REMARK    2  A    between atoms: C_2  and  C_3
REMARK    3  A    between atoms: C_2  and  C_4
REMARK    4  A    between atoms: C_2  and  O_5
REMARK    5  A    between atoms: O_5  and  C_6
REMARK    6  A    between atoms: C_6  and  C_8
REMARK    7  A    between atoms: C_11  and  N_12
REMARK    8  A    between atoms: C_14  and  C_15
REMARK    9  A    between atoms: N_19  and  C_20
REMARK   10  A    between atoms: C_28  and  C_29
REMARK                            x       y       z     vdW  Elec       q    Type
REMARK                         _______ _______ _______ _____ _____    ______ ____
ROOT
ATOM      1  N   UNL     1       2.081   6.989  19.861  0.00  0.00    +0.000 N 
ATOM      2  C   UNL     1       1.441   6.078  20.639  0.00  0.00    +0.000 A 
ATOM      3  C   UNL     1       2.253   4.954  20.654  0.00  0.00    +0.000 A 
ATOM      4  C   UNL     1       3.359   5.297  19.818  0.00  0.00    +0.000 A 
ATOM      5  N   UNL     1       4.354   4.430  19.487  0.00  0.00    +0.000 N 
ATOM      6  N   UNL     1       3.222   6.537  19.345  0.00  0.00    +0.000 NA
ATOM      7  H   UNL     1       4.371   3.533  19.971  0.00  0.00    +0.000 HD
ENDROOT
BRANCH   5   8
ATOM      8  C   UNL     1       5.216   4.473  18.363  0.00  0.00    +0.000 A 
ATOM      9  C   UNL     1       6.520   4.995  18.419  0.00  0.00    +0.000 A 
ATOM     10  C   UNL     1       7.284   5.181  17.266  0.00  0.00    +0.000 A 
ATOM     11  C   UNL     1       6.753   4.829  16.036  0.00  0.00    +0.000 A 
ATOM     12  F   UNL     1       7.471   5.032  14.924  0.00  0.00    +0.000 F 
ATOM     13  C   UNL     1       5.482   4.277  15.946  0.00  0.00    +0.000 A 
ATOM     14  C   UNL     1       4.718   4.097  17.106  0.00  0.00    +0.000 A 
ENDBRANCH   5   8
BRANCH   1  18
ATOM     15  C   UNL     1      -0.450  10.281  18.676  0.00  0.00    +0.000 C 
ATOM     16  C   UNL     1       0.553   9.714  17.670  0.00  0.00    +0.000 C 
ATOM     17  C   UNL     1       1.031   8.327  18.083  0.00  0.00    +0.000 C 
ATOM     18  C   UNL     1       1.636   8.330  19.499  0.00  0.00    +0.000 C 
ATOM     19  C   UNL     1       0.628   8.887  20.528  0.00  0.00    +0.000 C 
ATOM     20  C   UNL     1       0.132  10.275  20.098  0.00  0.00    +0.000 C 
BRANCH  15  21
ATOM     21  C   UNL     1      -0.803  11.703  18.281  0.00  0.00    +0.000 C 
ATOM     22  O   UNL     1      -0.244  12.679  18.752  0.00  0.00    +0.000 OA
BRANCH  21  23
ATOM     23  O   UNL     1      -1.779  11.720  17.331  0.00  0.00    +0.000 OA
BRANCH  23  25
ATOM     24  C   UNL     1      -3.107   9.713  17.864  0.00  0.00    +0.000 C 
ATOM     25  C   UNL     1      -3.109  11.234  17.669  0.00  0.00    +0.000 C 
ATOM     26  C   UNL     1      -4.141  11.680  16.625  0.00  0.00    +0.000 C 
ATOM     27  C   UNL     1      -3.471  11.882  19.016  0.00  0.00    +0.000 C 
ENDBRANCH  23  25
ENDBRANCH  21  23
ENDBRANCH  15  21
BRANCH  19  28
ATOM     28  C   UNL     1       1.258   8.978  21.858  0.00  0.00    +0.000 C 
ATOM     29  N   UNL     1       1.719   9.047  22.924  0.00  0.00    +0.000 NA
ENDBRANCH  19  28
ENDBRANCH   1  18
BRANCH   3  30
ATOM     30  C   UNL     1       1.995   3.711  21.346  0.00  0.00    +0.000 C 
ATOM     31  N   UNL     1       0.835   3.074  20.996  0.00  0.00    +0.000 N 
ATOM     32  O   UNL     1       2.767   3.219  22.161  0.00  0.00    +0.000 OA
ATOM     33  H   UNL     1       0.383   3.292  20.116  0.00  0.00    +0.000 HD
ATOM     34  H   UNL     1       0.694   2.150  21.376  0.00  0.00    +0.000 HD
ENDBRANCH   3  30
TORSDOF 7
ENDMDL
MODEL 8
REMARK VINA RESULT:      -7.4      4.542      9.523
REMARK  Name = 
REMARK  10 active torsions:
REMARK  status: ('A' for Active; 'I' for Inactive)
REMARK    1  A    between atoms: C_1  and  C_2
REMARK    2  A    between atoms: C_2  and  C_3
REMARK    3  A    between atoms: C_2  and  C_4
REMARK    4  A    between atoms: C_2  and  O_5
REMARK    5  A    between atoms: O_5  and  C_6
REMARK    6  A    between atoms: C_6  and  C_8
REMARK    7  A    between atoms: C_11  and  N_12
REMARK    8  A    between atoms: C_14  and  C_15
REMARK    9  A    between atoms: N_19  and  C_20
REMARK   10  A    between atoms: C_28  and  C_29
REMARK                            x       y       z     vdW  Elec       q    Type
REMARK                         _______ _______ _______ _____ _____    ______ ____
ROOT
ATOM      1  N   UNL     1       0.006  10.903  19.364  0.00  0.00    +0.000 N 
ATOM      2  C   UNL     1       0.705  12.039  19.113  0.00  0.00    +0.000 A 
ATOM      3  C   UNL     1      -0.181  13.085  19.325  0.00  0.00    +0.000 A 
ATOM      4  C   UNL     1      -1.411  12.450  19.679  0.00  0.00    +0.000 A 
ATOM      5  N   UNL     1      -2.577  13.119  19.883  0.00  0.00    +0.000 N 
ATOM      6  N   UNL     1      -1.267  11.123  19.687  0.00  0.00    +0.000 NA
ATOM      7  H   UNL     1      -2.531  14.138  19.910  0.00  0.00    +0.000 HD
ENDROOT
BRANCH   5   8
ATOM      8  C   UNL     1      -3.900  12.624  19.786  0.00  0.00    +0.000 A 
ATOM      9  C   UNL     1      -4.832  12.723  20.834  0.00  0.00    +0.000 A 
ATOM     10  C   UNL     1      -6.070  12.080  20.775  0.00  0.00    +0.000 A 
ATOM     11  C   UNL     1      -6.397  11.337  19.654  0.00  0.00    +0.000 A 
ATOM     12  F   UNL     1      -7.571  10.695  19.605  0.00  0.00    +0.000 F 
ATOM     13  C   UNL     1      -5.515  11.246  18.584  0.00  0.00    +0.000 A 
ATOM     14  C   UNL     1      -4.274  11.890  18.649  0.00  0.00    +0.000 A 
ENDBRANCH   5   8
BRANCH   1  18
ATOM     15  C   UNL     1       2.607   7.460  19.192  0.00  0.00    +0.000 C 
ATOM     16  C   UNL     1       1.918   7.936  17.913  0.00  0.00    +0.000 C 
ATOM     17  C   UNL     1       1.412   9.368  18.053  0.00  0.00    +0.000 C 
ATOM     18  C   UNL     1       0.468   9.523  19.259  0.00  0.00    +0.000 C 
ATOM     19  C   UNL     1       1.157   9.060  20.561  0.00  0.00    +0.000 C 
ATOM     20  C   UNL     1       1.684   7.626  20.410  0.00  0.00    +0.000 C 
BRANCH  15  21
ATOM     21  C   UNL     1       2.986   5.999  19.040  0.00  0.00    +0.000 C 
ATOM     22  O   UNL     1       3.021   5.223  19.980  0.00  0.00    +0.000 OA
BRANCH  21  23
ATOM     23  O   UNL     1       3.239   5.690  17.738  0.00  0.00    +0.000 OA
BRANCH  23  25
ATOM     24  C   UNL     1       4.735   4.096  16.597  0.00  0.00    +0.000 C 
ATOM     25  C   UNL     1       4.612   5.444  17.319  0.00  0.00    +0.000 C 
ATOM     26  C   UNL     1       5.577   5.553  18.507  0.00  0.00    +0.000 C 
ATOM     27  C   UNL     1       4.956   6.553  16.311  0.00  0.00    +0.000 C 
ENDBRANCH  23  25
ENDBRANCH  21  23
ENDBRANCH  15  21
BRANCH  19  28
ATOM     28  C   UNL     1       0.207   9.119  21.688  0.00  0.00    +0.000 C 
ATOM     29  N   UNL     1      -0.512   9.164  22.601  0.00  0.00    +0.000 NA
ENDBRANCH  19  28
ENDBRANCH   1  18
BRANCH   3  30
ATOM     30  C   UNL     1       0.097  14.497  19.179  0.00  0.00    +0.000 C 
ATOM     31  N   UNL     1       1.362  14.805  18.757  0.00  0.00    +0.000 N 
ATOM     32  O   UNL     1      -0.739  15.373  19.370  0.00  0.00    +0.000 OA
ATOM     33  H   UNL     1       1.925  14.105  18.290  0.00  0.00    +0.000 HD
ATOM     34  H   UNL     1       1.541  15.773  18.534  0.00  0.00    +0.000 HD
ENDBRANCH   3  30
TORSDOF 7
ENDMDL
MODEL 9
REMARK VINA RESULT:      -7.4      4.544      9.574
REMARK  Name = 
REMARK  10 active torsions:
REMARK  status: ('A' for Active; 'I' for Inactive)
REMARK    1  A    between atoms: C_1  and  C_2
REMARK    2  A    between atoms: C_2  and  C_3
REMARK    3  A    between atoms: C_2  and  C_4
REMARK    4  A    between atoms: C_2  and  O_5
REMARK    5  A    between atoms: O_5  and  C_6
REMARK    6  A    between atoms: C_6  and  C_8
REMARK    7  A    between atoms: C_11  and  N_12
REMARK    8  A    between atoms: C_14  and  C_15
REMARK    9  A    between atoms: N_19  and  C_20
REMARK   10  A    between atoms: C_28  and  C_29
REMARK                            x       y       z     vdW  Elec       q    Type
REMARK                         _______ _______ _______ _____ _____    ______ ____
ROOT
ATOM      1  N   UNL     1       0.158  10.794  19.294  0.00  0.00    +0.000 N 
ATOM      2  C   UNL     1       0.856  11.932  19.048  0.00  0.00    +0.000 A 
ATOM      3  C   UNL     1      -0.027  12.976  19.280  0.00  0.00    +0.000 A 
ATOM      4  C   UNL     1      -1.254  12.339  19.641  0.00  0.00    +0.000 A 
ATOM      5  N   UNL     1      -2.417  13.007  19.864  0.00  0.00    +0.000 N 
ATOM      6  N   UNL     1      -1.111  11.011  19.633  0.00  0.00    +0.000 NA
ATOM      7  H   UNL     1      -2.369  14.025  19.901  0.00  0.00    +0.000 HD
ENDROOT
BRANCH   5   8
ATOM      8  C   UNL     1      -3.742  12.514  19.776  0.00  0.00    +0.000 A 
ATOM      9  C   UNL     1      -4.254  11.902  18.619  0.00  0.00    +0.000 A 
ATOM     10  C   UNL     1      -5.608  11.579  18.500  0.00  0.00    +0.000 A 
ATOM     11  C   UNL     1      -6.465  11.853  19.551  0.00  0.00    +0.000 A 
ATOM     12  F   UNL     1      -7.769  11.572  19.430  0.00  0.00    +0.000 F 
ATOM     13  C   UNL     1      -5.988  12.425  20.724  0.00  0.00    +0.000 A 
ATOM     14  C   UNL     1      -4.631  12.750  20.836  0.00  0.00    +0.000 A 
ENDBRANCH   5   8
BRANCH   1  18
ATOM     15  C   UNL     1       2.749   7.343  19.122  0.00  0.00    +0.000 C 
ATOM     16  C   UNL     1       2.103   7.854  17.833  0.00  0.00    +0.000 C 
ATOM     17  C   UNL     1       1.600   9.284  17.992  0.00  0.00    +0.000 C 
ATOM     18  C   UNL     1       0.618   9.415  19.170  0.00  0.00    +0.000 C 
ATOM     19  C   UNL     1       1.263   8.916  20.482  0.00  0.00    +0.000 C 
ATOM     20  C   UNL     1       1.788   7.483  20.312  0.00  0.00    +0.000 C 
BRANCH  15  21
ATOM     21  C   UNL     1       3.126   5.884  18.945  0.00  0.00    +0.000 C 
ATOM     22  O   UNL     1       3.153   5.091  19.871  0.00  0.00    +0.000 OA
BRANCH  21  23
ATOM     23  O   UNL     1       3.388   5.599  17.640  0.00  0.00    +0.000 OA
BRANCH  23  25
ATOM     24  C   UNL     1       5.737   5.587  18.393  0.00  0.00    +0.000 C 
ATOM     25  C   UNL     1       4.771   5.443  17.210  0.00  0.00    +0.000 C 
ATOM     26  C   UNL     1       5.106   6.413  16.070  0.00  0.00    +0.000 C 
ATOM     27  C   UNL     1       4.892   4.006  16.674  0.00  0.00    +0.000 C 
ENDBRANCH  23  25
ENDBRANCH  21  23
ENDBRANCH  15  21
BRANCH  19  28
ATOM     28  C   UNL     1       0.276   8.952  21.579  0.00  0.00    +0.000 C 
ATOM     29  N   UNL     1      -0.471   8.979  22.469  0.00  0.00    +0.000 NA
ENDBRANCH  19  28
ENDBRANCH   1  18
BRANCH   3  30
ATOM     30  C   UNL     1       0.251  14.389  19.146  0.00  0.00    +0.000 C 
ATOM     31  N   UNL     1       1.444  14.805  19.672  0.00  0.00    +0.000 N 
ATOM     32  O   UNL     1      -0.493  15.171  18.566  0.00  0.00    +0.000 OA
ATOM     33  H   UNL     1       2.184  14.135  19.841  0.00  0.00    +0.000 HD
ATOM     34  H   UNL     1       1.712  15.760  19.486  0.00  0.00    +0.000 HD
ENDBRANCH   3  30
TORSDOF 7
ENDMDL
