MODEL 1
REMARK VINA RESULT:      -8.4      0.000      0.000
REMARK  Name = 
REMARK  7 active torsions:
REMARK  status: ('A' for Active; 'I' for Inactive)
REMARK    1  A    between atoms: C_1  and  C_2
REMARK    2  A    between atoms: C_2  and  C_3
REMARK    3  A    between atoms: C_3  and  N_4
REMARK    4  A    between atoms: C_5  and  C_7
REMARK    5  A    between atoms: C_7  and  C_8
REMARK    6  A    between atoms: N_10  and  C_11
REMARK    7  A    between atoms: C_11  and  C_12
REMARK                            x       y       z     vdW  Elec       q    Type
REMARK                         _______ _______ _______ _____ _____    ______ ____
ROOT
ATOM      1  N   UNL     1       5.228   5.473  18.646  0.00  0.00    +0.000 N 
ATOM      2  C   UNL     1       6.545   5.677  18.991  0.00  0.00    +0.000 C 
ATOM      3  O   UNL     1       7.042   5.251  20.031  0.00  0.00    +0.000 OA
ATOM      4  H   UNL     1       4.878   6.075  17.901  0.00  0.00    +0.000 HD
ENDROOT
BRANCH   1   5
ATOM      5  C   UNL     1       4.233   4.940  19.551  0.00  0.00    +0.000 C 
BRANCH   5   7
ATOM      6  C   UNL     1       2.831   6.905  18.848  0.00  0.00    +0.000 C 
ATOM      7  C   UNL     1       2.792   5.389  19.184  0.00  0.00    +0.000 C 
ATOM      8  C   UNL     1       1.788   5.217  20.352  0.00  0.00    +0.000 C 
ATOM      9  C   UNL     1       1.510   3.795  20.829  0.00  0.00    +0.000 C 
ATOM     10  C   UNL     1       0.734   2.956  19.822  0.00  0.00    +0.000 C 
ATOM     11  C   UNL     1       1.589   2.277  18.762  0.00  0.00    +0.000 C 
ATOM     12  C   UNL     1       2.464   3.143  17.857  0.00  0.00    +0.000 C 
ATOM     13  C   UNL     1       2.290   4.659  17.910  0.00  0.00    +0.000 C 
ENDBRANCH   5   7
ENDBRANCH   1   5
BRANCH   2  14
ATOM     14  C   UNL     1       7.379   6.393  17.948  0.00  0.00    +0.000 C 
BRANCH  14  15
ATOM     15  C   UNL     1       6.918   6.194  16.525  0.00  0.00    +0.000 C 
ATOM     16  O   UNL     1       5.988   6.821  16.019  0.00  0.00    +0.000 OA
ATOM     17  N   UNL     1       7.591   5.238  15.803  0.00  0.00    +0.000 N 
ATOM     18  H   UNL     1       8.354   4.713  16.217  0.00  0.00    +0.000 HD
BRANCH  17  19
ATOM     19  C   UNL     1       7.202   4.994  14.412  0.00  0.00    +0.000 C 
BRANCH  19  20
ATOM     20  C   UNL     1       6.112   3.930  14.173  0.00  0.00    +0.000 C 
ATOM     21  F   UNL     1       6.007   3.047  15.192  0.00  0.00    +0.000 F 
ATOM     22  F   UNL     1       4.900   4.492  13.973  0.00  0.00    +0.000 F 
ATOM     23  F   UNL     1       6.407   3.212  13.061  0.00  0.00    +0.000 F 
ENDBRANCH  19  20
ENDBRANCH  17  19
ENDBRANCH  14  15
ENDBRANCH   2  14
TORSDOF 6
ENDMDL
MODEL 2
REMARK VINA RESULT:      -8.1      0.993      1.475
REMARK  Name = 
REMARK  7 active torsions:
REMARK  status: ('A' for Active; 'I' for Inactive)
REMARK    1  A    between atoms: C_1  and  C_2
REMARK    2  A    between atoms: C_2  and  C_3
REMARK    3  A    between atoms: C_3  and  N_4
REMARK    4  A    between atoms: C_5  and  C_7
REMARK    5  A    between atoms: C_7  and  C_8
REMARK    6  A    between atoms: N_10  and  C_11
REMARK    7  A    between atoms: C_11  and  C_12
REMARK                            x       y       z     vdW  Elec       q    Type
REMARK                         _______ _______ _______ _____ _____    ______ ____
ROOT
ATOM      1  N   UNL     1       5.104   5.556  18.472  0.00  0.00    +0.000 N 
ATOM      2  C   UNL     1       6.410   5.611  18.903  0.00  0.00    +0.000 C 
ATOM      3  O   UNL     1       6.779   5.178  19.992  0.00  0.00    +0.000 OA
ATOM      4  H   UNL     1       4.884   6.161  17.680  0.00  0.00    +0.000 HD
ENDROOT
BRANCH   1   5
ATOM      5  C   UNL     1       3.991   5.195  19.323  0.00  0.00    +0.000 C 
BRANCH   5   7
ATOM      6  C   UNL     1       3.338   4.067  17.173  0.00  0.00    +0.000 C 
ATOM      7  C   UNL     1       3.112   4.071  18.709  0.00  0.00    +0.000 C 
ATOM      8  C   UNL     1       1.595   4.297  18.936  0.00  0.00    +0.000 C 
ATOM      9  C   UNL     1       1.093   4.270  20.377  0.00  0.00    +0.000 C 
ATOM     10  C   UNL     1       1.151   2.888  21.016  0.00  0.00    +0.000 C 
ATOM     11  C   UNL     1       2.494   2.524  21.631  0.00  0.00    +0.000 C 
ATOM     12  C   UNL     1       3.734   2.521  20.739  0.00  0.00    +0.000 C 
ATOM     13  C   UNL     1       3.549   2.677  19.232  0.00  0.00    +0.000 C 
ENDBRANCH   5   7
ENDBRANCH   1   5
BRANCH   2  14
ATOM     14  C   UNL     1       7.396   6.167  17.896  0.00  0.00    +0.000 C 
BRANCH  14  15
ATOM     15  C   UNL     1       6.950   6.076  16.457  0.00  0.00    +0.000 C 
ATOM     16  O   UNL     1       6.053   6.770  15.980  0.00  0.00    +0.000 OA
ATOM     17  N   UNL     1       7.595   5.141  15.685  0.00  0.00    +0.000 N 
ATOM     18  H   UNL     1       8.330   4.561  16.075  0.00  0.00    +0.000 HD
BRANCH  17  19
ATOM     19  C   UNL     1       7.218   5.000  14.277  0.00  0.00    +0.000 C 
BRANCH  19  20
ATOM     20  C   UNL     1       6.130   3.957  13.952  0.00  0.00    +0.000 C 
ATOM     21  F   UNL     1       5.963   3.046  14.937  0.00  0.00    +0.000 F 
ATOM     22  F   UNL     1       4.935   4.538  13.707  0.00  0.00    +0.000 F 
ATOM     23  F   UNL     1       6.473   3.267  12.835  0.00  0.00    +0.000 F 
ENDBRANCH  19  20
ENDBRANCH  17  19
ENDBRANCH  14  15
ENDBRANCH   2  14
TORSDOF 6
ENDMDL
MODEL 3
REMARK VINA RESULT:      -7.9      0.913      1.781
REMARK  Name = 
REMARK  7 active torsions:
REMARK  status: ('A' for Active; 'I' for Inactive)
REMARK    1  A    between atoms: C_1  and  C_2
REMARK    2  A    between atoms: C_2  and  C_3
REMARK    3  A    between atoms: C_3  and  N_4
REMARK    4  A    between atoms: C_5  and  C_7
REMARK    5  A    between atoms: C_7  and  C_8
REMARK    6  A    between atoms: N_10  and  C_11
REMARK    7  A    between atoms: C_11  and  C_12
REMARK                            x       y       z     vdW  Elec       q    Type
REMARK                         _______ _______ _______ _____ _____    ______ ____
ROOT
ATOM      1  N   UNL     1       5.735   4.243  18.185  0.00  0.00    +0.000 N 
ATOM      2  C   UNL     1       6.563   5.205  18.719  0.00  0.00    +0.000 C 
ATOM      3  O   UNL     1       6.705   5.375  19.927  0.00  0.00    +0.000 OA
ATOM      4  H   UNL     1       5.514   4.364  17.196  0.00  0.00    +0.000 HD
ENDROOT
BRANCH   1   5
ATOM      5  C   UNL     1       4.780   3.483  18.961  0.00  0.00    +0.000 C 
BRANCH   5   7
ATOM      6  C   UNL     1       3.336   3.267  16.914  0.00  0.00    +0.000 C 
ATOM      7  C   UNL     1       3.328   3.626  18.425  0.00  0.00    +0.000 C 
ATOM      8  C   UNL     1       2.781   5.071  18.537  0.00  0.00    +0.000 C 
ATOM      9  C   UNL     1       2.604   5.644  19.940  0.00  0.00    +0.000 C 
ATOM     10  C   UNL     1       1.481   4.983  20.729  0.00  0.00    +0.000 C 
ATOM     11  C   UNL     1       1.878   3.707  21.458  0.00  0.00    +0.000 C 
ATOM     12  C   UNL     1       2.435   2.540  20.646  0.00  0.00    +0.000 C 
ATOM     13  C   UNL     1       2.377   2.618  19.123  0.00  0.00    +0.000 C 
ENDBRANCH   5   7
ENDBRANCH   1   5
BRANCH   2  14
ATOM     14  C   UNL     1       7.370   5.992  17.707  0.00  0.00    +0.000 C 
BRANCH  14  15
ATOM     15  C   UNL     1       6.857   5.913  16.290  0.00  0.00    +0.000 C 
ATOM     16  O   UNL     1       5.831   6.475  15.908  0.00  0.00    +0.000 OA
ATOM     17  N   UNL     1       7.597   5.146  15.424  0.00  0.00    +0.000 N 
ATOM     18  H   UNL     1       8.440   4.675  15.735  0.00  0.00    +0.000 HD
BRANCH  17  19
ATOM     19  C   UNL     1       7.162   5.028  14.030  0.00  0.00    +0.000 C 
BRANCH  19  20
ATOM     20  C   UNL     1       6.174   3.889  13.706  0.00  0.00    +0.000 C 
ATOM     21  F   UNL     1       6.066   2.986  14.707  0.00  0.00    +0.000 F 
ATOM     22  F   UNL     1       4.940   4.361  13.426  0.00  0.00    +0.000 F 
ATOM     23  F   UNL     1       6.599   3.210  12.611  0.00  0.00    +0.000 F 
ENDBRANCH  19  20
ENDBRANCH  17  19
ENDBRANCH  14  15
ENDBRANCH   2  14
TORSDOF 6
ENDMDL
MODEL 4
REMARK VINA RESULT:      -7.7      0.917      1.256
REMARK  Name = 
REMARK  7 active torsions:
REMARK  status: ('A' for Active; 'I' for Inactive)
REMARK    1  A    between atoms: C_1  and  C_2
REMARK    2  A    between atoms: C_2  and  C_3
REMARK    3  A    between atoms: C_3  and  N_4
REMARK    4  A    between atoms: C_5  and  C_7
REMARK    5  A    between atoms: C_7  and  C_8
REMARK    6  A    between atoms: N_10  and  C_11
REMARK    7  A    between atoms: C_11  and  C_12
REMARK                            x       y       z     vdW  Elec       q    Type
REMARK                         _______ _______ _______ _____ _____    ______ ____
ROOT
ATOM      1  N   UNL     1       5.077   5.462  18.740  0.00  0.00    +0.000 N 
ATOM      2  C   UNL     1       6.414   5.601  19.038  0.00  0.00    +0.000 C 
ATOM      3  O   UNL     1       6.913   5.209  20.090  0.00  0.00    +0.000 OA
ATOM      4  H   UNL     1       4.745   6.039  17.967  0.00  0.00    +0.000 HD
ENDROOT
BRANCH   1   5
ATOM      5  C   UNL     1       4.077   5.052  19.701  0.00  0.00    +0.000 C 
BRANCH   5   7
ATOM      6  C   UNL     1       2.645   7.022  19.078  0.00  0.00    +0.000 C 
ATOM      7  C   UNL     1       2.642   5.484  19.290  0.00  0.00    +0.000 C 
ATOM      8  C   UNL     1       1.584   5.187  20.383  0.00  0.00    +0.000 C 
ATOM      9  C   UNL     1       1.332   3.723  20.730  0.00  0.00    +0.000 C 
ATOM     10  C   UNL     1       0.641   2.944  19.618  0.00  0.00    +0.000 C 
ATOM     11  C   UNL     1       1.576   2.380  18.558  0.00  0.00    +0.000 C 
ATOM     12  C   UNL     1       2.467   3.343  17.775  0.00  0.00    +0.000 C 
ATOM     13  C   UNL     1       2.236   4.843  17.936  0.00  0.00    +0.000 C 
ENDBRANCH   5   7
ENDBRANCH   1   5
BRANCH   2  14
ATOM     14  C   UNL     1       7.261   6.196  17.932  0.00  0.00    +0.000 C 
BRANCH  14  15
ATOM     15  C   UNL     1       7.413   5.320  16.712  0.00  0.00    +0.000 C 
ATOM     16  O   UNL     1       7.967   4.222  16.730  0.00  0.00    +0.000 OA
ATOM     17  N   UNL     1       6.907   5.828  15.540  0.00  0.00    +0.000 N 
ATOM     18  H   UNL     1       6.456   6.736  15.518  0.00  0.00    +0.000 HD
BRANCH  17  19
ATOM     19  C   UNL     1       7.014   5.032  14.316  0.00  0.00    +0.000 C 
BRANCH  19  20
ATOM     20  C   UNL     1       5.853   4.062  14.016  0.00  0.00    +0.000 C 
ATOM     21  F   UNL     1       5.118   4.438  12.945  0.00  0.00    +0.000 F 
ATOM     22  F   UNL     1       6.294   2.802  13.806  0.00  0.00    +0.000 F 
ATOM     23  F   UNL     1       5.006   4.016  15.075  0.00  0.00    +0.000 F 
ENDBRANCH  19  20
ENDBRANCH  17  19
ENDBRANCH  14  15
ENDBRANCH   2  14
TORSDOF 6
ENDMDL
MODEL 5
REMARK VINA RESULT:      -7.7      1.129      1.162
REMARK  Name = 
REMARK  7 active torsions:
REMARK  status: ('A' for Active; 'I' for Inactive)
REMARK    1  A    between atoms: C_1  and  C_2
REMARK    2  A    between atoms: C_2  and  C_3
REMARK    3  A    between atoms: C_3  and  N_4
REMARK    4  A    between atoms: C_5  and  C_7
REMARK    5  A    between atoms: C_7  and  C_8
REMARK    6  A    between atoms: N_10  and  C_11
REMARK    7  A    between atoms: C_11  and  C_12
REMARK                            x       y       z     vdW  Elec       q    Type
REMARK                         _______ _______ _______ _____ _____    ______ ____
ROOT
ATOM      1  N   UNL     1       4.679   5.630  19.551  0.00  0.00    +0.000 N 
ATOM      2  C   UNL     1       5.815   5.015  19.074  0.00  0.00    +0.000 C 
ATOM      3  O   UNL     1       5.960   3.795  19.052  0.00  0.00    +0.000 OA
ATOM      4  H   UNL     1       4.778   6.627  19.747  0.00  0.00    +0.000 HD
ENDROOT
BRANCH   1   5
ATOM      5  C   UNL     1       3.636   4.941  20.278  0.00  0.00    +0.000 C 
BRANCH   5   7
ATOM      6  C   UNL     1       1.940   6.768  19.951  0.00  0.00    +0.000 C 
ATOM      7  C   UNL     1       2.217   5.257  19.727  0.00  0.00    +0.000 C 
ATOM      8  C   UNL     1       1.096   4.483  20.464  0.00  0.00    +0.000 C 
ATOM      9  C   UNL     1       1.097   2.962  20.338  0.00  0.00    +0.000 C 
ATOM     10  C   UNL     1       0.746   2.468  18.940  0.00  0.00    +0.000 C 
ATOM     11  C   UNL     1       1.918   2.404  17.972  0.00  0.00    +0.000 C 
ATOM     12  C   UNL     1       2.699   3.683  17.677  0.00  0.00    +0.000 C 
ATOM     13  C   UNL     1       2.149   5.009  18.196  0.00  0.00    +0.000 C 
ENDBRANCH   5   7
ENDBRANCH   1   5
BRANCH   2  14
ATOM     14  C   UNL     1       6.853   5.948  18.486  0.00  0.00    +0.000 C 
BRANCH  14  15
ATOM     15  C   UNL     1       6.806   6.079  16.983  0.00  0.00    +0.000 C 
ATOM     16  O   UNL     1       7.651   6.690  16.329  0.00  0.00    +0.000 OA
ATOM     17  N   UNL     1       5.736   5.485  16.360  0.00  0.00    +0.000 N 
ATOM     18  H   UNL     1       5.033   4.986  16.895  0.00  0.00    +0.000 HD
BRANCH  17  19
ATOM     19  C   UNL     1       5.628   5.566  14.902  0.00  0.00    +0.000 C 
BRANCH  19  20
ATOM     20  C   UNL     1       5.947   4.282  14.110  0.00  0.00    +0.000 C 
ATOM     21  F   UNL     1       6.184   3.217  14.909  0.00  0.00    +0.000 F 
ATOM     22  F   UNL     1       4.951   3.959  13.256  0.00  0.00    +0.000 F 
ATOM     23  F   UNL     1       7.066   4.468  13.365  0.00  0.00    +0.000 F 
ENDBRANCH  19  20
ENDBRANCH  17  19
ENDBRANCH  14  15
ENDBRANCH   2  14
TORSDOF 6
ENDMDL
MODEL 6
REMARK VINA RESULT:      -7.6      4.099      4.662
REMARK  Name = 
REMARK  7 active torsions:
REMARK  status: ('A' for Active; 'I' for Inactive)
REMARK    1  A    between atoms: C_1  and  C_2
REMARK    2  A    between atoms: C_2  and  C_3
REMARK    3  A    between atoms: C_3  and  N_4
REMARK    4  A    between atoms: C_5  and  C_7
REMARK    5  A    between atoms: C_7  and  C_8
REMARK    6  A    between atoms: N_10  and  C_11
REMARK    7  A    between atoms: C_11  and  C_12
REMARK                            x       y       z     vdW  Elec       q    Type
REMARK                         _______ _______ _______ _____ _____    ______ ____
ROOT
ATOM      1  N   UNL     1       5.456   5.608  18.627  0.00  0.00    +0.000 N 
ATOM      2  C   UNL     1       6.760   5.199  18.458  0.00  0.00    +0.000 C 
ATOM      3  O   UNL     1       7.067   4.134  17.929  0.00  0.00    +0.000 OA
ATOM      4  H   UNL     1       5.326   6.373  19.290  0.00  0.00    +0.000 HD
ENDROOT
BRANCH   1   5
ATOM      5  C   UNL     1       4.310   4.752  18.413  0.00  0.00    +0.000 C 
BRANCH   5   7
ATOM      6  C   UNL     1       3.113   6.917  17.967  0.00  0.00    +0.000 C 
ATOM      7  C   UNL     1       2.962   5.504  18.593  0.00  0.00    +0.000 C 
ATOM      8  C   UNL     1       2.579   5.713  20.080  0.00  0.00    +0.000 C 
ATOM      9  C   UNL     1       2.299   4.465  20.911  0.00  0.00    +0.000 C 
ATOM     10  C   UNL     1       1.019   3.742  20.512  0.00  0.00    +0.000 C 
ATOM     11  C   UNL     1       1.171   2.763  19.358  0.00  0.00    +0.000 C 
ATOM     12  C   UNL     1       1.682   3.281  18.015  0.00  0.00    +0.000 C 
ATOM     13  C   UNL     1       1.821   4.789  17.822  0.00  0.00    +0.000 C 
ENDBRANCH   5   7
ENDBRANCH   1   5
BRANCH   2  14
ATOM     14  C   UNL     1       7.809   6.202  18.890  0.00  0.00    +0.000 C 
BRANCH  14  15
ATOM     15  C   UNL     1       7.820   7.488  18.099  0.00  0.00    +0.000 C 
ATOM     16  O   UNL     1       7.268   7.616  17.007  0.00  0.00    +0.000 OA
ATOM     17  N   UNL     1       8.511   8.534  18.660  0.00  0.00    +0.000 N 
ATOM     18  H   UNL     1       8.974   8.431  19.557  0.00  0.00    +0.000 HD
BRANCH  17  19
ATOM     19  C   UNL     1       8.560   9.814  17.951  0.00  0.00    +0.000 C 
BRANCH  19  20
ATOM     20  C   UNL     1       9.541  10.872  18.496  0.00  0.00    +0.000 C 
ATOM     21  F   UNL     1       8.943  12.054  18.764  0.00  0.00    +0.000 F 
ATOM     22  F   UNL     1      10.163  10.447  19.618  0.00  0.00    +0.000 F 
ATOM     23  F   UNL     1      10.506  11.121  17.575  0.00  0.00    +0.000 F 
ENDBRANCH  19  20
ENDBRANCH  17  19
ENDBRANCH  14  15
ENDBRANCH   2  14
TORSDOF 6
ENDMDL
MODEL 7
REMARK VINA RESULT:      -7.6      1.358      1.614
REMARK  Name = 
REMARK  7 active torsions:
REMARK  status: ('A' for Active; 'I' for Inactive)
REMARK    1  A    between atoms: C_1  and  C_2
REMARK    2  A    between atoms: C_2  and  C_3
REMARK    3  A    between atoms: C_3  and  N_4
REMARK    4  A    between atoms: C_5  and  C_7
REMARK    5  A    between atoms: C_7  and  C_8
REMARK    6  A    between atoms: N_10  and  C_11
REMARK    7  A    between atoms: C_11  and  C_12
REMARK                            x       y       z     vdW  Elec       q    Type
REMARK                         _______ _______ _______ _____ _____    ______ ____
ROOT
ATOM      1  N   UNL     1       5.015   5.588  18.111  0.00  0.00    +0.000 N 
ATOM      2  C   UNL     1       6.294   5.096  17.979  0.00  0.00    +0.000 C 
ATOM      3  O   UNL     1       6.802   4.318  18.783  0.00  0.00    +0.000 OA
ATOM      4  H   UNL     1       4.803   6.401  17.533  0.00  0.00    +0.000 HD
ENDROOT
BRANCH   1   5
ATOM      5  C   UNL     1       4.211   5.431  19.303  0.00  0.00    +0.000 C 
BRANCH   5   7
ATOM      6  C   UNL     1       2.637   7.273  18.633  0.00  0.00    +0.000 C 
ATOM      7  C   UNL     1       2.717   5.784  19.066  0.00  0.00    +0.000 C 
ATOM      8  C   UNL     1       1.852   5.644  20.345  0.00  0.00    +0.000 C 
ATOM      9  C   UNL     1       1.704   4.247  20.939  0.00  0.00    +0.000 C 
ATOM     10  C   UNL     1       0.875   3.304  20.077  0.00  0.00    +0.000 C 
ATOM     11  C   UNL     1       1.650   2.596  18.977  0.00  0.00    +0.000 C 
ATOM     12  C   UNL     1       2.377   3.438  17.930  0.00  0.00    +0.000 C 
ATOM     13  C   UNL     1       2.126   4.943  17.903  0.00  0.00    +0.000 C 
ENDBRANCH   5   7
ENDBRANCH   1   5
BRANCH   2  14
ATOM     14  C   UNL     1       7.015   5.511  16.713  0.00  0.00    +0.000 C 
BRANCH  14  15
ATOM     15  C   UNL     1       6.243   5.271  15.438  0.00  0.00    +0.000 C 
ATOM     16  O   UNL     1       5.476   6.097  14.944  0.00  0.00    +0.000 OA
ATOM     17  N   UNL     1       6.424   4.045  14.847  0.00  0.00    +0.000 N 
ATOM     18  H   UNL     1       7.050   3.358  15.254  0.00  0.00    +0.000 HD
BRANCH  17  19
ATOM     19  C   UNL     1       5.712   3.743  13.604  0.00  0.00    +0.000 C 
BRANCH  19  20
ATOM     20  C   UNL     1       6.537   3.791  12.302  0.00  0.00    +0.000 C 
ATOM     21  F   UNL     1       7.515   4.725  12.334  0.00  0.00    +0.000 F 
ATOM     22  F   UNL     1       7.101   2.596  12.022  0.00  0.00    +0.000 F 
ATOM     23  F   UNL     1       5.730   4.105  11.257  0.00  0.00    +0.000 F 
ENDBRANCH  19  20
ENDBRANCH  17  19
ENDBRANCH  14  15
ENDBRANCH   2  14
TORSDOF 6
ENDMDL
MODEL 8
REMARK VINA RESULT:      -7.5      1.796      2.725
REMARK  Name = 
REMARK  7 active torsions:
REMARK  status: ('A' for Active; 'I' for Inactive)
REMARK    1  A    between atoms: C_1  and  C_2
REMARK    2  A    between atoms: C_2  and  C_3
REMARK    3  A    between atoms: C_3  and  N_4
REMARK    4  A    between atoms: C_5  and  C_7
REMARK    5  A    between atoms: C_7  and  C_8
REMARK    6  A    between atoms: N_10  and  C_11
REMARK    7  A    between atoms: C_11  and  C_12
REMARK                            x       y       z     vdW  Elec       q    Type
REMARK                         _______ _______ _______ _____ _____    ______ ____
ROOT
ATOM      1  N   UNL     1       5.354   3.997  18.170  0.00  0.00    +0.000 N 
ATOM      2  C   UNL     1       6.604   4.571  18.102  0.00  0.00    +0.000 C 
ATOM      3  O   UNL     1       7.180   5.046  19.078  0.00  0.00    +0.000 OA
ATOM      4  H   UNL     1       4.887   3.870  17.272  0.00  0.00    +0.000 HD
ENDROOT
BRANCH   1   5
ATOM      5  C   UNL     1       4.491   4.084  19.327  0.00  0.00    +0.000 C 
BRANCH   5   7
ATOM      6  C   UNL     1       5.094   1.830  20.264  0.00  0.00    +0.000 C 
ATOM      7  C   UNL     1       3.917   2.703  19.749  0.00  0.00    +0.000 C 
ATOM      8  C   UNL     1       3.272   1.930  18.570  0.00  0.00    +0.000 C 
ATOM      9  C   UNL     1       2.034   2.546  17.925  0.00  0.00    +0.000 C 
ATOM     10  C   UNL     1       0.806   2.526  18.826  0.00  0.00    +0.000 C 
ATOM     11  C   UNL     1       0.704   3.696  19.794  0.00  0.00    +0.000 C 
ATOM     12  C   UNL     1       1.836   3.922  20.795  0.00  0.00    +0.000 C 
ATOM     13  C   UNL     1       2.918   2.853  20.926  0.00  0.00    +0.000 C 
ENDBRANCH   5   7
ENDBRANCH   1   5
BRANCH   2  14
ATOM     14  C   UNL     1       7.272   4.497  16.744  0.00  0.00    +0.000 C 
BRANCH  14  15
ATOM     15  C   UNL     1       6.359   4.772  15.574  0.00  0.00    +0.000 C 
ATOM     16  O   UNL     1       5.784   5.846  15.400  0.00  0.00    +0.000 OA
ATOM     17  N   UNL     1       6.176   3.731  14.697  0.00  0.00    +0.000 N 
ATOM     18  H   UNL     1       6.642   2.841  14.839  0.00  0.00    +0.000 HD
BRANCH  17  19
ATOM     19  C   UNL     1       5.307   3.926  13.534  0.00  0.00    +0.000 C 
BRANCH  19  20
ATOM     20  C   UNL     1       5.813   3.368  12.189  0.00  0.00    +0.000 C 
ATOM     21  F   UNL     1       7.011   3.880  11.825  0.00  0.00    +0.000 F 
ATOM     22  F   UNL     1       5.917   2.021  12.212  0.00  0.00    +0.000 F 
ATOM     23  F   UNL     1       4.937   3.683  11.202  0.00  0.00    +0.000 F 
ENDBRANCH  19  20
ENDBRANCH  17  19
ENDBRANCH  14  15
ENDBRANCH   2  14
TORSDOF 6
ENDMDL
MODEL 9
REMARK VINA RESULT:      -7.5      1.994      2.307
REMARK  Name = 
REMARK  7 active torsions:
REMARK  status: ('A' for Active; 'I' for Inactive)
REMARK    1  A    between atoms: C_1  and  C_2
REMARK    2  A    between atoms: C_2  and  C_3
REMARK    3  A    between atoms: C_3  and  N_4
REMARK    4  A    between atoms: C_5  and  C_7
REMARK    5  A    between atoms: C_7  and  C_8
REMARK    6  A    between atoms: N_10  and  C_11
REMARK    7  A    between atoms: C_11  and  C_12
REMARK                            x       y       z     vdW  Elec       q    Type
REMARK                         _______ _______ _______ _____ _____    ______ ____
ROOT
ATOM      1  N   UNL     1       5.435   5.022  17.679  0.00  0.00    +0.000 N 
ATOM      2  C   UNL     1       5.884   4.329  16.578  0.00  0.00    +0.000 C 
ATOM      3  O   UNL     1       5.328   3.323  16.143  0.00  0.00    +0.000 OA
ATOM      4  H   UNL     1       6.108   5.674  18.083  0.00  0.00    +0.000 HD
ENDROOT
BRANCH   1   5
ATOM      5  C   UNL     1       4.409   4.535  18.573  0.00  0.00    +0.000 C 
BRANCH   5   7
ATOM      6  C   UNL     1       3.453   6.722  17.782  0.00  0.00    +0.000 C 
ATOM      7  C   UNL     1       3.121   5.404  18.535  0.00  0.00    +0.000 C 
ATOM      8  C   UNL     1       2.623   5.810  19.945  0.00  0.00    +0.000 C 
ATOM      9  C   UNL     1       2.159   4.690  20.871  0.00  0.00    +0.000 C 
ATOM     10  C   UNL     1       0.862   4.028  20.423  0.00  0.00    +0.000 C 
ATOM     11  C   UNL     1       1.032   2.915  19.400  0.00  0.00    +0.000 C 
ATOM     12  C   UNL     1       1.709   3.237  18.069  0.00  0.00    +0.000 C 
ATOM     13  C   UNL     1       1.997   4.697  17.732  0.00  0.00    +0.000 C 
ENDBRANCH   5   7
ENDBRANCH   1   5
BRANCH   2  14
ATOM     14  C   UNL     1       7.075   4.945  15.872  0.00  0.00    +0.000 C 
BRANCH  14  15
ATOM     15  C   UNL     1       7.059   4.808  14.369  0.00  0.00    +0.000 C 
ATOM     16  O   UNL     1       7.579   5.623  13.609  0.00  0.00    +0.000 OA
ATOM     17  N   UNL     1       6.400   3.710  13.872  0.00  0.00    +0.000 N 
ATOM     18  H   UNL     1       5.964   3.038  14.494  0.00  0.00    +0.000 HD
BRANCH  17  19
ATOM     19  C   UNL     1       6.348   3.509  12.422  0.00  0.00    +0.000 C 
BRANCH  19  20
ATOM     20  C   UNL     1       4.973   3.157  11.819  0.00  0.00    +0.000 C 
ATOM     21  F   UNL     1       3.985   3.137  12.742  0.00  0.00    +0.000 F 
ATOM     22  F   UNL     1       4.621   4.018  10.839  0.00  0.00    +0.000 F 
ATOM     23  F   UNL     1       5.017   1.920  11.266  0.00  0.00    +0.000 F 
ENDBRANCH  19  20
ENDBRANCH  17  19
ENDBRANCH  14  15
ENDBRANCH   2  14
TORSDOF 6
ENDMDL
