MODEL 1
REMARK VINA RESULT:      -8.5      0.000      0.000
REMARK  Name = 
REMARK  9 active torsions:
REMARK  status: ('A' for Active; 'I' for Inactive)
REMARK    1  A    between atoms: C_1  and  O_2
REMARK    2  A    between atoms: O_2  and  C_3
REMARK    3  A    between atoms: C_6  and  N_7
REMARK    4  A    between atoms: C_8  and  O_10
REMARK    5  A    between atoms: O_10  and  C_11
REMARK    6  A    between atoms: C_11  and  C_12
REMARK    7  A    between atoms: C_17  and  C_18
REMARK    8  A    between atoms: C_18  and  N_19
REMARK    9  A    between atoms: N_22  and  C_23
REMARK                            x       y       z     vdW  Elec       q    Type
REMARK                         _______ _______ _______ _____ _____    ______ ____
ROOT
ATOM      1  C   UNL     1       3.052   6.842  19.154  0.00  0.00    +0.000 C 
ATOM      2  O   UNL     1       2.220   6.455  20.262  0.00  0.00    +0.000 OA
ATOM      3  C   UNL     1       1.958   5.121  20.159  0.00  0.00    +0.000 C 
ATOM      4  O   UNL     1       1.210   4.502  20.892  0.00  0.00    +0.000 OA
ATOM      5  N   UNL     1       2.669   4.588  19.121  0.00  0.00    +0.000 N 
ATOM      6  C   UNL     1       3.629   5.529  18.638  0.00  0.00    +0.000 C 
ATOM      7  H   UNL     1       2.773   3.583  19.058  0.00  0.00    +0.000 HD
ENDROOT
BRANCH   1   8
ATOM      8  C   UNL     1       2.193   7.545  18.093  0.00  0.00    +0.000 C 
BRANCH   8   9
ATOM      9  O   UNL     1       2.221   8.980  18.248  0.00  0.00    +0.000 OA
BRANCH   9  11
ATOM     10  N   UNL     1       0.223   9.892  17.746  0.00  0.00    +0.000 N 
ATOM     11  C   UNL     1       1.051   9.469  18.755  0.00  0.00    +0.000 C 
ATOM     12  O   UNL     1       0.844   9.523  19.953  0.00  0.00    +0.000 OA
ATOM     13  H   UNL     1       0.570   9.770  16.806  0.00  0.00    +0.000 HD
BRANCH  10  17
ATOM     14  C   UNL     1      -3.661  11.490  18.285  0.00  0.00    +0.000 A 
ATOM     15  C   UNL     1      -2.590  12.017  18.991  0.00  0.00    +0.000 A 
ATOM     16  C   UNL     1      -1.309  11.509  18.805  0.00  0.00    +0.000 A 
ATOM     17  C   UNL     1      -1.064  10.446  17.929  0.00  0.00    +0.000 A 
ATOM     18  C   UNL     1      -2.150   9.911  17.221  0.00  0.00    +0.000 A 
ATOM     19  C   UNL     1      -3.442  10.429  17.404  0.00  0.00    +0.000 A 
BRANCH  14  21
ATOM     20  C   UNL     1      -5.818  12.049  17.517  0.00  0.00    +0.000 C 
ATOM     21  O   UNL     1      -4.866  12.065  18.570  0.00  0.00    +0.000 OA
ENDBRANCH  14  21
ENDBRANCH  10  17
ENDBRANCH   9  11
ENDBRANCH   8   9
ENDBRANCH   1   8
BRANCH   6  22
ATOM     22  C   UNL     1       5.048   5.280  19.202  0.00  0.00    +0.000 C 
BRANCH  22  23
ATOM     23  N   UNL     1       5.781   4.164  18.559  0.00  0.00    +0.000 NA
ATOM     24  C   UNL     1       5.017   3.497  17.479  0.00  0.00    +0.000 C 
ATOM     25  C   UNL     1       4.703   4.396  16.268  0.00  0.00    +0.000 C 
ATOM     26  N   UNL     1       5.923   5.010  15.731  0.00  0.00    +0.000 N 
ATOM     27  C   UNL     1       6.860   5.595  16.710  0.00  0.00    +0.000 C 
ATOM     28  C   UNL     1       7.041   4.670  17.947  0.00  0.00    +0.000 C 
BRANCH  26  29
ATOM     29  C   UNL     1       6.374   4.712  14.456  0.00  0.00    +0.000 A 
ATOM     30  C   UNL     1       7.467   5.400  13.905  0.00  0.00    +0.000 A 
ATOM     31  C   UNL     1       7.916   5.144  12.606  0.00  0.00    +0.000 A 
ATOM     32  C   UNL     1       7.281   4.184  11.826  0.00  0.00    +0.000 A 
ATOM     33  C   UNL     1       6.200   3.482  12.349  0.00  0.00    +0.000 A 
ATOM     34  C   UNL     1       5.757   3.747  13.647  0.00  0.00    +0.000 A 
ENDBRANCH  26  29
ENDBRANCH  22  23
ENDBRANCH   6  22
TORSDOF 8
ENDMDL
MODEL 2
REMARK VINA RESULT:      -8.3      4.938      9.231
REMARK  Name = 
REMARK  9 active torsions:
REMARK  status: ('A' for Active; 'I' for Inactive)
REMARK    1  A    between atoms: C_1  and  O_2
REMARK    2  A    between atoms: O_2  and  C_3
REMARK    3  A    between atoms: C_6  and  N_7
REMARK    4  A    between atoms: C_8  and  O_10
REMARK    5  A    between atoms: O_10  and  C_11
REMARK    6  A    between atoms: C_11  and  C_12
REMARK    7  A    between atoms: C_17  and  C_18
REMARK    8  A    between atoms: C_18  and  N_19
REMARK    9  A    between atoms: N_22  and  C_23
REMARK                            x       y       z     vdW  Elec       q    Type
REMARK                         _______ _______ _______ _____ _____    ______ ____
ROOT
ATOM      1  C   UNL     1       5.899   5.820  16.075  0.00  0.00    +0.000 C 
ATOM      2  O   UNL     1       6.063   5.471  14.689  0.00  0.00    +0.000 OA
ATOM      3  C   UNL     1       6.391   4.149  14.614  0.00  0.00    +0.000 C 
ATOM      4  O   UNL     1       6.681   3.564  13.588  0.00  0.00    +0.000 OA
ATOM      5  N   UNL     1       6.329   3.585  15.857  0.00  0.00    +0.000 N 
ATOM      6  C   UNL     1       5.716   4.483  16.784  0.00  0.00    +0.000 C 
ATOM      7  H   UNL     1       6.309   2.577  15.941  0.00  0.00    +0.000 HD
ENDROOT
BRANCH   1   8
ATOM      8  C   UNL     1       7.152   6.559  16.566  0.00  0.00    +0.000 C 
BRANCH   8   9
ATOM      9  O   UNL     1       6.834   7.873  17.073  0.00  0.00    +0.000 OA
BRANCH   9  11
ATOM     10  N   UNL     1       7.915   9.759  17.666  0.00  0.00    +0.000 N 
ATOM     11  C   UNL     1       7.847   8.398  17.825  0.00  0.00    +0.000 C 
ATOM     12  O   UNL     1       8.575   7.693  18.500  0.00  0.00    +0.000 OA
ATOM     13  H   UNL     1       7.224  10.170  17.057  0.00  0.00    +0.000 HD
BRANCH  10  17
ATOM     14  C   UNL     1      10.680  12.349  19.557  0.00  0.00    +0.000 A 
ATOM     15  C   UNL     1      10.300  11.168  20.177  0.00  0.00    +0.000 A 
ATOM     16  C   UNL     1       9.407  10.304  19.554  0.00  0.00    +0.000 A 
ATOM     17  C   UNL     1       8.848  10.605  18.307  0.00  0.00    +0.000 A 
ATOM     18  C   UNL     1       9.230  11.802  17.684  0.00  0.00    +0.000 A 
ATOM     19  C   UNL     1      10.138  12.671  18.312  0.00  0.00    +0.000 A 
BRANCH  14  21
ATOM     20  C   UNL     1      12.214  14.138  19.556  0.00  0.00    +0.000 C 
ATOM     21  O   UNL     1      11.549  13.115  20.281  0.00  0.00    +0.000 OA
ENDBRANCH  14  21
ENDBRANCH  10  17
ENDBRANCH   9  11
ENDBRANCH   8   9
ENDBRANCH   1   8
BRANCH   6  22
ATOM     22  C   UNL     1       4.219   4.173  17.016  0.00  0.00    +0.000 C 
BRANCH  22  23
ATOM     23  N   UNL     1       3.784   4.251  18.430  0.00  0.00    +0.000 NA
ATOM     24  C   UNL     1       4.388   5.381  19.175  0.00  0.00    +0.000 C 
ATOM     25  C   UNL     1       3.992   6.776  18.654  0.00  0.00    +0.000 C 
ATOM     26  N   UNL     1       2.533   6.924  18.589  0.00  0.00    +0.000 N 
ATOM     27  C   UNL     1       1.776   5.803  17.998  0.00  0.00    +0.000 C 
ATOM     28  C   UNL     1       2.306   4.431  18.498  0.00  0.00    +0.000 C 
BRANCH  26  29
ATOM     29  C   UNL     1       1.870   7.845  19.383  0.00  0.00    +0.000 A 
ATOM     30  C   UNL     1       1.605   7.566  20.733  0.00  0.00    +0.000 A 
ATOM     31  C   UNL     1       0.902   8.464  21.543  0.00  0.00    +0.000 A 
ATOM     32  C   UNL     1       0.452   9.670  21.018  0.00  0.00    +0.000 A 
ATOM     33  C   UNL     1       0.706   9.976  19.686  0.00  0.00    +0.000 A 
ATOM     34  C   UNL     1       1.406   9.071  18.883  0.00  0.00    +0.000 A 
ENDBRANCH  26  29
ENDBRANCH  22  23
ENDBRANCH   6  22
TORSDOF 8
ENDMDL
MODEL 3
REMARK VINA RESULT:      -8.2      2.030      2.861
REMARK  Name = 
REMARK  9 active torsions:
REMARK  status: ('A' for Active; 'I' for Inactive)
REMARK    1  A    between atoms: C_1  and  O_2
REMARK    2  A    between atoms: O_2  and  C_3
REMARK    3  A    between atoms: C_6  and  N_7
REMARK    4  A    between atoms: C_8  and  O_10
REMARK    5  A    between atoms: O_10  and  C_11
REMARK    6  A    between atoms: C_11  and  C_12
REMARK    7  A    between atoms: C_17  and  C_18
REMARK    8  A    between atoms: C_18  and  N_19
REMARK    9  A    between atoms: N_22  and  C_23
REMARK                            x       y       z     vdW  Elec       q    Type
REMARK                         _______ _______ _______ _____ _____    ______ ____
ROOT
ATOM      1  C   UNL     1       2.684   5.298  20.627  0.00  0.00    +0.000 C 
ATOM      2  O   UNL     1       2.550   4.409  21.752  0.00  0.00    +0.000 OA
ATOM      3  C   UNL     1       2.388   3.140  21.280  0.00  0.00    +0.000 C 
ATOM      4  O   UNL     1       2.163   2.166  21.973  0.00  0.00    +0.000 OA
ATOM      5  N   UNL     1       2.532   3.128  19.921  0.00  0.00    +0.000 N 
ATOM      6  C   UNL     1       3.038   4.383  19.461  0.00  0.00    +0.000 C 
ATOM      7  H   UNL     1       2.678   2.245  19.448  0.00  0.00    +0.000 HD
ENDROOT
BRANCH   1   8
ATOM      8  C   UNL     1       1.353   6.028  20.395  0.00  0.00    +0.000 C 
BRANCH   8   9
ATOM      9  O   UNL     1       1.294   7.275  21.121  0.00  0.00    +0.000 OA
BRANCH   9  11
ATOM     10  N   UNL     1       0.511   9.360  20.781  0.00  0.00    +0.000 N 
ATOM     11  C   UNL     1       1.311   8.359  20.291  0.00  0.00    +0.000 C 
ATOM     12  O   UNL     1       1.948   8.362  19.253  0.00  0.00    +0.000 OA
ATOM     13  H   UNL     1       0.054   9.172  21.662  0.00  0.00    +0.000 HD
BRANCH  10  17
ATOM     14  C   UNL     1      -0.153  13.108  18.926  0.00  0.00    +0.000 A 
ATOM     15  C   UNL     1       0.799  12.988  19.927  0.00  0.00    +0.000 A 
ATOM     16  C   UNL     1       1.035  11.757  20.528  0.00  0.00    +0.000 A 
ATOM     17  C   UNL     1       0.311  10.616  20.165  0.00  0.00    +0.000 A 
ATOM     18  C   UNL     1      -0.654  10.740  19.156  0.00  0.00    +0.000 A 
ATOM     19  C   UNL     1      -0.887  11.983  18.545  0.00  0.00    +0.000 A 
BRANCH  14  21
ATOM     20  C   UNL     1       0.618  15.335  18.926  0.00  0.00    +0.000 C 
ATOM     21  O   UNL     1      -0.299  14.372  18.430  0.00  0.00    +0.000 OA
ENDBRANCH  14  21
ENDBRANCH  10  17
ENDBRANCH   9  11
ENDBRANCH   8   9
ENDBRANCH   1   8
BRANCH   6  22
ATOM     22  C   UNL     1       4.565   4.357  19.213  0.00  0.00    +0.000 C 
BRANCH  22  23
ATOM     23  N   UNL     1       5.076   5.476  18.388  0.00  0.00    +0.000 NA
ATOM     24  C   UNL     1       6.483   5.301  17.957  0.00  0.00    +0.000 C 
ATOM     25  C   UNL     1       6.721   4.097  17.024  0.00  0.00    +0.000 C 
ATOM     26  N   UNL     1       5.828   4.142  15.860  0.00  0.00    +0.000 N 
ATOM     27  C   UNL     1       4.409   4.452  16.122  0.00  0.00    +0.000 C 
ATOM     28  C   UNL     1       4.258   5.608  17.149  0.00  0.00    +0.000 C 
BRANCH  26  29
ATOM     29  C   UNL     1       6.329   4.293  14.578  0.00  0.00    +0.000 A 
ATOM     30  C   UNL     1       5.836   3.510  13.522  0.00  0.00    +0.000 A 
ATOM     31  C   UNL     1       6.354   3.616  12.227  0.00  0.00    +0.000 A 
ATOM     32  C   UNL     1       7.377   4.518  11.957  0.00  0.00    +0.000 A 
ATOM     33  C   UNL     1       7.880   5.311  12.983  0.00  0.00    +0.000 A 
ATOM     34  C   UNL     1       7.359   5.195  14.275  0.00  0.00    +0.000 A 
ENDBRANCH  26  29
ENDBRANCH  22  23
ENDBRANCH   6  22
TORSDOF 8
ENDMDL
MODEL 4
REMARK VINA RESULT:      -8.1      2.287      2.947
REMARK  Name = 
REMARK  9 active torsions:
REMARK  status: ('A' for Active; 'I' for Inactive)
REMARK    1  A    between atoms: C_1  and  O_2
REMARK    2  A    between atoms: O_2  and  C_3
REMARK    3  A    between atoms: C_6  and  N_7
REMARK    4  A    between atoms: C_8  and  O_10
REMARK    5  A    between atoms: O_10  and  C_11
REMARK    6  A    between atoms: C_11  and  C_12
REMARK    7  A    between atoms: C_17  and  C_18
REMARK    8  A    between atoms: C_18  and  N_19
REMARK    9  A    between atoms: N_22  and  C_23
REMARK                            x       y       z     vdW  Elec       q    Type
REMARK                         _______ _______ _______ _____ _____    ______ ____
ROOT
ATOM      1  C   UNL     1       2.667   5.736  20.622  0.00  0.00    +0.000 C 
ATOM      2  O   UNL     1       2.341   4.639  21.493  0.00  0.00    +0.000 OA
ATOM      3  C   UNL     1       2.111   3.534  20.727  0.00  0.00    +0.000 C 
ATOM      4  O   UNL     1       1.728   2.461  21.154  0.00  0.00    +0.000 OA
ATOM      5  N   UNL     1       2.390   3.812  19.418  0.00  0.00    +0.000 N 
ATOM      6  C   UNL     1       3.052   5.073  19.305  0.00  0.00    +0.000 C 
ATOM      7  H   UNL     1       2.500   3.048  18.764  0.00  0.00    +0.000 HD
ENDROOT
BRANCH   1   8
ATOM      8  C   UNL     1       1.440   6.645  20.466  0.00  0.00    +0.000 C 
BRANCH   8   9
ATOM      9  O   UNL     1       1.576   7.864  21.228  0.00  0.00    +0.000 OA
BRANCH   9  11
ATOM     10  N   UNL     1       0.527   9.839  21.501  0.00  0.00    +0.000 N 
ATOM     11  C   UNL     1       0.375   8.477  21.445  0.00  0.00    +0.000 C 
ATOM     12  O   UNL     1      -0.653   7.840  21.591  0.00  0.00    +0.000 OA
ATOM     13  H   UNL     1       1.465  10.187  21.360  0.00  0.00    +0.000 HD
BRANCH  10  17
ATOM     14  C   UNL     1      -2.633  12.601  22.056  0.00  0.00    +0.000 A 
ATOM     15  C   UNL     1      -2.140  11.885  23.137  0.00  0.00    +0.000 A 
ATOM     16  C   UNL     1      -1.090  10.990  22.965  0.00  0.00    +0.000 A 
ATOM     17  C   UNL     1      -0.519  10.765  21.707  0.00  0.00    +0.000 A 
ATOM     18  C   UNL     1      -1.023  11.487  20.615  0.00  0.00    +0.000 A 
ATOM     19  C   UNL     1      -2.079  12.397  20.792  0.00  0.00    +0.000 A 
BRANCH  14  21
ATOM     20  C   UNL     1      -4.307  13.200  23.604  0.00  0.00    +0.000 C 
ATOM     21  O   UNL     1      -3.673  13.434  22.356  0.00  0.00    +0.000 OA
ENDBRANCH  14  21
ENDBRANCH  10  17
ENDBRANCH   9  11
ENDBRANCH   8   9
ENDBRANCH   1   8
BRANCH   6  22
ATOM     22  C   UNL     1       4.587   4.932  19.176  0.00  0.00    +0.000 C 
BRANCH  22  23
ATOM     23  N   UNL     1       5.228   5.936  18.295  0.00  0.00    +0.000 NA
ATOM     24  C   UNL     1       6.602   5.569  17.879  0.00  0.00    +0.000 C 
ATOM     25  C   UNL     1       6.691   4.298  17.012  0.00  0.00    +0.000 C 
ATOM     26  N   UNL     1       5.807   4.389  15.843  0.00  0.00    +0.000 N 
ATOM     27  C   UNL     1       4.436   4.882  16.083  0.00  0.00    +0.000 C 
ATOM     28  C   UNL     1       4.430   6.101  17.048  0.00  0.00    +0.000 C 
BRANCH  26  29
ATOM     29  C   UNL     1       6.319   4.410  14.557  0.00  0.00    +0.000 A 
ATOM     30  C   UNL     1       5.800   3.561  13.567  0.00  0.00    +0.000 A 
ATOM     31  C   UNL     1       6.327   3.537  12.272  0.00  0.00    +0.000 A 
ATOM     32  C   UNL     1       7.388   4.370  11.936  0.00  0.00    +0.000 A 
ATOM     33  C   UNL     1       7.917   5.227  12.895  0.00  0.00    +0.000 A 
ATOM     34  C   UNL     1       7.386   5.242  14.187  0.00  0.00    +0.000 A 
ENDBRANCH  26  29
ENDBRANCH  22  23
ENDBRANCH   6  22
TORSDOF 8
ENDMDL
MODEL 5
REMARK VINA RESULT:      -8.1      3.465     10.073
REMARK  Name = 
REMARK  9 active torsions:
REMARK  status: ('A' for Active; 'I' for Inactive)
REMARK    1  A    between atoms: C_1  and  O_2
REMARK    2  A    between atoms: O_2  and  C_3
REMARK    3  A    between atoms: C_6  and  N_7
REMARK    4  A    between atoms: C_8  and  O_10
REMARK    5  A    between atoms: O_10  and  C_11
REMARK    6  A    between atoms: C_11  and  C_12
REMARK    7  A    between atoms: C_17  and  C_18
REMARK    8  A    between atoms: C_18  and  N_19
REMARK    9  A    between atoms: N_22  and  C_23
REMARK                            x       y       z     vdW  Elec       q    Type
REMARK                         _______ _______ _______ _____ _____    ______ ____
ROOT
ATOM      1  C   UNL     1       0.464   8.442  20.902  0.00  0.00    +0.000 C 
ATOM      2  O   UNL     1      -0.022   8.351  22.254  0.00  0.00    +0.000 OA
ATOM      3  C   UNL     1       0.324   9.494  22.913  0.00  0.00    +0.000 C 
ATOM      4  O   UNL     1       0.136   9.695  24.097  0.00  0.00    +0.000 OA
ATOM      5  N   UNL     1       0.897  10.377  22.041  0.00  0.00    +0.000 N 
ATOM      6  C   UNL     1       0.733   9.927  20.694  0.00  0.00    +0.000 C 
ATOM      7  H   UNL     1       0.991  11.347  22.312  0.00  0.00    +0.000 HD
ENDROOT
BRANCH   1   8
ATOM      8  C   UNL     1       1.744   7.605  20.765  0.00  0.00    +0.000 C 
BRANCH   8   9
ATOM      9  O   UNL     1       1.460   6.190  20.753  0.00  0.00    +0.000 OA
BRANCH   9  11
ATOM     10  N   UNL     1       3.356   6.218  19.537  0.00  0.00    +0.000 N 
ATOM     11  C   UNL     1       2.215   5.517  19.836  0.00  0.00    +0.000 C 
ATOM     12  O   UNL     1       1.853   4.455  19.363  0.00  0.00    +0.000 OA
ATOM     13  H   UNL     1       3.484   7.089  20.031  0.00  0.00    +0.000 HD
BRANCH  10  17
ATOM     14  C   UNL     1       6.331   5.013  16.776  0.00  0.00    +0.000 A 
ATOM     15  C   UNL     1       6.473   4.713  18.122  0.00  0.00    +0.000 A 
ATOM     16  C   UNL     1       5.491   5.090  19.032  0.00  0.00    +0.000 A 
ATOM     17  C   UNL     1       4.353   5.797  18.629  0.00  0.00    +0.000 A 
ATOM     18  C   UNL     1       4.215   6.104  17.267  0.00  0.00    +0.000 A 
ATOM     19  C   UNL     1       5.204   5.716  16.348  0.00  0.00    +0.000 A 
BRANCH  14  21
ATOM     20  C   UNL     1       7.175   4.741  14.592  0.00  0.00    +0.000 C 
ATOM     21  O   UNL     1       7.371   4.603  15.991  0.00  0.00    +0.000 OA
ENDBRANCH  14  21
ENDBRANCH  10  17
ENDBRANCH   9  11
ENDBRANCH   8   9
ENDBRANCH   1   8
BRANCH   6  22
ATOM     22  C   UNL     1      -0.450  10.616  19.975  0.00  0.00    +0.000 C 
BRANCH  22  23
ATOM     23  N   UNL     1      -0.115  11.200  18.655  0.00  0.00    +0.000 NA
ATOM     24  C   UNL     1      -1.067  12.245  18.210  0.00  0.00    +0.000 C 
ATOM     25  C   UNL     1      -1.101  13.501  19.103  0.00  0.00    +0.000 C 
ATOM     26  N   UNL     1       0.242  14.068  19.274  0.00  0.00    +0.000 N 
ATOM     27  C   UNL     1       1.330  13.119  19.581  0.00  0.00    +0.000 C 
ATOM     28  C   UNL     1       1.231  11.837  18.708  0.00  0.00    +0.000 C 
BRANCH  26  29
ATOM     29  C   UNL     1       0.557  15.325  18.787  0.00  0.00    +0.000 A 
ATOM     30  C   UNL     1       1.895  15.702  18.592  0.00  0.00    +0.000 A 
ATOM     31  C   UNL     1       2.239  16.980  18.139  0.00  0.00    +0.000 A 
ATOM     32  C   UNL     1       1.245  17.912  17.864  0.00  0.00    +0.000 A 
ATOM     33  C   UNL     1      -0.090  17.564  18.042  0.00  0.00    +0.000 A 
ATOM     34  C   UNL     1      -0.423  16.286  18.499  0.00  0.00    +0.000 A 
ENDBRANCH  26  29
ENDBRANCH  22  23
ENDBRANCH   6  22
TORSDOF 8
ENDMDL
MODEL 6
REMARK VINA RESULT:      -8.0      1.172      1.574
REMARK  Name = 
REMARK  9 active torsions:
REMARK  status: ('A' for Active; 'I' for Inactive)
REMARK    1  A    between atoms: C_1  and  O_2
REMARK    2  A    between atoms: O_2  and  C_3
REMARK    3  A    between atoms: C_6  and  N_7
REMARK    4  A    between atoms: C_8  and  O_10
REMARK    5  A    between atoms: O_10  and  C_11
REMARK    6  A    between atoms: C_11  and  C_12
REMARK    7  A    between atoms: C_17  and  C_18
REMARK    8  A    between atoms: C_18  and  N_19
REMARK    9  A    between atoms: N_22  and  C_23
REMARK                            x       y       z     vdW  Elec       q    Type
REMARK                         _______ _______ _______ _____ _____    ______ ____
ROOT
ATOM      1  C   UNL     1       2.951   6.703  19.289  0.00  0.00    +0.000 C 
ATOM      2  O   UNL     1       2.197   6.261  20.432  0.00  0.00    +0.000 OA
ATOM      3  C   UNL     1       2.020   4.912  20.336  0.00  0.00    +0.000 C 
ATOM      4  O   UNL     1       1.350   4.244  21.100  0.00  0.00    +0.000 OA
ATOM      5  N   UNL     1       2.719   4.429  19.266  0.00  0.00    +0.000 N 
ATOM      6  C   UNL     1       3.591   5.432  18.743  0.00  0.00    +0.000 C 
ATOM      7  H   UNL     1       2.887   3.433  19.195  0.00  0.00    +0.000 HD
ENDROOT
BRANCH   1   8
ATOM      8  C   UNL     1       2.000   7.347  18.269  0.00  0.00    +0.000 C 
BRANCH   8   9
ATOM      9  O   UNL     1       2.599   8.495  17.630  0.00  0.00    +0.000 OA
BRANCH   9  11
ATOM     10  N   UNL     1       0.712   9.387  18.480  0.00  0.00    +0.000 N 
ATOM     11  C   UNL     1       1.936   9.653  17.920  0.00  0.00    +0.000 C 
ATOM     12  O   UNL     1       2.411  10.745  17.663  0.00  0.00    +0.000 OA
ATOM     13  H   UNL     1       0.488   8.412  18.613  0.00  0.00    +0.000 HD
BRANCH  10  17
ATOM     14  C   UNL     1      -2.128  12.279  19.701  0.00  0.00    +0.000 A 
ATOM     15  C   UNL     1      -1.044  11.985  20.514  0.00  0.00    +0.000 A 
ATOM     16  C   UNL     1      -0.098  11.050  20.112  0.00  0.00    +0.000 A 
ATOM     17  C   UNL     1      -0.219  10.364  18.898  0.00  0.00    +0.000 A 
ATOM     18  C   UNL     1      -1.319  10.659  18.080  0.00  0.00    +0.000 A 
ATOM     19  C   UNL     1      -2.270  11.610  18.485  0.00  0.00    +0.000 A 
BRANCH  14  21
ATOM     20  C   UNL     1      -4.099  12.674  20.932  0.00  0.00    +0.000 C 
ATOM     21  O   UNL     1      -2.992  13.202  20.219  0.00  0.00    +0.000 OA
ENDBRANCH  14  21
ENDBRANCH  10  17
ENDBRANCH   9  11
ENDBRANCH   8   9
ENDBRANCH   1   8
BRANCH   6  22
ATOM     22  C   UNL     1       5.047   5.279  19.242  0.00  0.00    +0.000 C 
BRANCH  22  23
ATOM     23  N   UNL     1       5.813   4.193  18.587  0.00  0.00    +0.000 NA
ATOM     24  C   UNL     1       5.057   3.493  17.522  0.00  0.00    +0.000 C 
ATOM     25  C   UNL     1       4.684   4.376  16.316  0.00  0.00    +0.000 C 
ATOM     26  N   UNL     1       5.867   5.039  15.756  0.00  0.00    +0.000 N 
ATOM     27  C   UNL     1       6.797   5.664  16.717  0.00  0.00    +0.000 C 
ATOM     28  C   UNL     1       7.040   4.750  17.951  0.00  0.00    +0.000 C 
BRANCH  26  29
ATOM     29  C   UNL     1       6.307   4.758  14.473  0.00  0.00    +0.000 A 
ATOM     30  C   UNL     1       5.654   3.794  13.689  0.00  0.00    +0.000 A 
ATOM     31  C   UNL     1       6.103   3.465  12.406  0.00  0.00    +0.000 A 
ATOM     32  C   UNL     1       7.220   4.100  11.875  0.00  0.00    +0.000 A 
ATOM     33  C   UNL     1       7.883   5.064  12.627  0.00  0.00    +0.000 A 
ATOM     34  C   UNL     1       7.428   5.384  13.909  0.00  0.00    +0.000 A 
ENDBRANCH  26  29
ENDBRANCH  22  23
ENDBRANCH   6  22
TORSDOF 8
ENDMDL
MODEL 7
REMARK VINA RESULT:      -8.0      1.217      1.934
REMARK  Name = 
REMARK  9 active torsions:
REMARK  status: ('A' for Active; 'I' for Inactive)
REMARK    1  A    between atoms: C_1  and  O_2
REMARK    2  A    between atoms: O_2  and  C_3
REMARK    3  A    between atoms: C_6  and  N_7
REMARK    4  A    between atoms: C_8  and  O_10
REMARK    5  A    between atoms: O_10  and  C_11
REMARK    6  A    between atoms: C_11  and  C_12
REMARK    7  A    between atoms: C_17  and  C_18
REMARK    8  A    between atoms: C_18  and  N_19
REMARK    9  A    between atoms: N_22  and  C_23
REMARK                            x       y       z     vdW  Elec       q    Type
REMARK                         _______ _______ _______ _____ _____    ______ ____
ROOT
ATOM      1  C   UNL     1       2.912   6.868  19.170  0.00  0.00    +0.000 C 
ATOM      2  O   UNL     1       2.044   6.236  20.128  0.00  0.00    +0.000 OA
ATOM      3  C   UNL     1       1.914   4.922  19.788  0.00  0.00    +0.000 C 
ATOM      4  O   UNL     1       1.178   4.131  20.347  0.00  0.00    +0.000 OA
ATOM      5  N   UNL     1       2.741   4.629  18.741  0.00  0.00    +0.000 N 
ATOM      6  C   UNL     1       3.642   5.711  18.498  0.00  0.00    +0.000 C 
ATOM      7  H   UNL     1       2.941   3.661  18.525  0.00  0.00    +0.000 HD
ENDROOT
BRANCH   1   8
ATOM      8  C   UNL     1       2.068   7.670  18.169  0.00  0.00    +0.000 C 
BRANCH   8   9
ATOM      9  O   UNL     1       2.690   8.928  17.831  0.00  0.00    +0.000 OA
BRANCH   9  11
ATOM     10  N   UNL     1       0.653   9.579  18.540  0.00  0.00    +0.000 N 
ATOM     11  C   UNL     1       1.894   9.997  18.131  0.00  0.00    +0.000 C 
ATOM     12  O   UNL     1       2.284  11.143  18.001  0.00  0.00    +0.000 OA
ATOM     13  H   UNL     1       0.512   8.580  18.580  0.00  0.00    +0.000 HD
BRANCH  10  17
ATOM     14  C   UNL     1      -2.470  12.182  19.724  0.00  0.00    +0.000 A 
ATOM     15  C   UNL     1      -2.607  11.409  18.581  0.00  0.00    +0.000 A 
ATOM     16  C   UNL     1      -1.594  10.539  18.196  0.00  0.00    +0.000 A 
ATOM     17  C   UNL     1      -0.404  10.433  18.926  0.00  0.00    +0.000 A 
ATOM     18  C   UNL     1      -0.266  11.220  20.078  0.00  0.00    +0.000 A 
ATOM     19  C   UNL     1      -1.293  12.093  20.470  0.00  0.00    +0.000 A 
BRANCH  14  21
ATOM     20  C   UNL     1      -4.137  12.841  21.254  0.00  0.00    +0.000 C 
ATOM     21  O   UNL     1      -3.528  13.005  19.982  0.00  0.00    +0.000 OA
ENDBRANCH  14  21
ENDBRANCH  10  17
ENDBRANCH   9  11
ENDBRANCH   8   9
ENDBRANCH   1   8
BRANCH   6  22
ATOM     22  C   UNL     1       5.035   5.484  19.131  0.00  0.00    +0.000 C 
BRANCH  22  23
ATOM     23  N   UNL     1       6.167   6.021  18.341  0.00  0.00    +0.000 NA
ATOM     24  C   UNL     1       7.088   4.975  17.836  0.00  0.00    +0.000 C 
ATOM     25  C   UNL     1       6.451   3.994  16.832  0.00  0.00    +0.000 C 
ATOM     26  N   UNL     1       5.823   4.710  15.715  0.00  0.00    +0.000 N 
ATOM     27  C   UNL     1       4.985   5.875  16.059  0.00  0.00    +0.000 C 
ATOM     28  C   UNL     1       5.654   6.756  17.151  0.00  0.00    +0.000 C 
BRANCH  26  29
ATOM     29  C   UNL     1       6.294   4.573  14.420  0.00  0.00    +0.000 A 
ATOM     30  C   UNL     1       5.703   3.656  13.537  0.00  0.00    +0.000 A 
ATOM     31  C   UNL     1       6.187   3.473  12.238  0.00  0.00    +0.000 A 
ATOM     32  C   UNL     1       7.276   4.211  11.789  0.00  0.00    +0.000 A 
ATOM     33  C   UNL     1       7.877   5.132  12.641  0.00  0.00    +0.000 A 
ATOM     34  C   UNL     1       7.389   5.306  13.938  0.00  0.00    +0.000 A 
ENDBRANCH  26  29
ENDBRANCH  22  23
ENDBRANCH   6  22
TORSDOF 8
ENDMDL
MODEL 8
REMARK VINA RESULT:      -8.0      2.357      4.201
REMARK  Name = 
REMARK  9 active torsions:
REMARK  status: ('A' for Active; 'I' for Inactive)
REMARK    1  A    between atoms: C_1  and  O_2
REMARK    2  A    between atoms: O_2  and  C_3
REMARK    3  A    between atoms: C_6  and  N_7
REMARK    4  A    between atoms: C_8  and  O_10
REMARK    5  A    between atoms: O_10  and  C_11
REMARK    6  A    between atoms: C_11  and  C_12
REMARK    7  A    between atoms: C_17  and  C_18
REMARK    8  A    between atoms: C_18  and  N_19
REMARK    9  A    between atoms: N_22  and  C_23
REMARK                            x       y       z     vdW  Elec       q    Type
REMARK                         _______ _______ _______ _____ _____    ______ ____
ROOT
ATOM      1  C   UNL     1       3.944   2.914  20.896  0.00  0.00    +0.000 C 
ATOM      2  O   UNL     1       4.764   1.829  21.365  0.00  0.00    +0.000 OA
ATOM      3  C   UNL     1       5.113   1.059  20.295  0.00  0.00    +0.000 C 
ATOM      4  O   UNL     1       5.733   0.015  20.365  0.00  0.00    +0.000 OA
ATOM      5  N   UNL     1       4.674   1.644  19.141  0.00  0.00    +0.000 N 
ATOM      6  C   UNL     1       4.213   2.972  19.397  0.00  0.00    +0.000 C 
ATOM      7  H   UNL     1       5.051   1.331  18.255  0.00  0.00    +0.000 HD
ENDROOT
BRANCH   1   8
ATOM      8  C   UNL     1       2.470   2.607  21.200  0.00  0.00    +0.000 C 
BRANCH   8   9
ATOM      9  O   UNL     1       1.806   3.732  21.814  0.00  0.00    +0.000 OA
BRANCH   9  11
ATOM     10  N   UNL     1       1.930   5.914  21.263  0.00  0.00    +0.000 N 
ATOM     11  C   UNL     1       1.444   4.682  20.902  0.00  0.00    +0.000 C 
ATOM     12  O   UNL     1       0.756   4.413  19.934  0.00  0.00    +0.000 OA
ATOM     13  H   UNL     1       2.481   5.943  22.108  0.00  0.00    +0.000 HD
BRANCH  10  17
ATOM     14  C   UNL     1       1.357   9.456  19.016  0.00  0.00    +0.000 A 
ATOM     15  C   UNL     1       0.813   9.345  20.287  0.00  0.00    +0.000 A 
ATOM     16  C   UNL     1       1.012   8.192  21.037  0.00  0.00    +0.000 A 
ATOM     17  C   UNL     1       1.739   7.108  20.533  0.00  0.00    +0.000 A 
ATOM     18  C   UNL     1       2.284   7.221  19.246  0.00  0.00    +0.000 A 
ATOM     19  C   UNL     1       2.088   8.389  18.491  0.00  0.00    +0.000 A 
BRANCH  14  21
ATOM     20  C   UNL     1      -0.303  10.911  18.192  0.00  0.00    +0.000 C 
ATOM     21  O   UNL     1       1.075  10.631  18.379  0.00  0.00    +0.000 OA
ENDBRANCH  14  21
ENDBRANCH  10  17
ENDBRANCH   9  11
ENDBRANCH   8   9
ENDBRANCH   1   8
BRANCH   6  22
ATOM     22  C   UNL     1       5.271   4.048  19.058  0.00  0.00    +0.000 C 
BRANCH  22  23
ATOM     23  N   UNL     1       4.869   4.994  17.991  0.00  0.00    +0.000 NA
ATOM     24  C   UNL     1       6.002   5.761  17.421  0.00  0.00    +0.000 C 
ATOM     25  C   UNL     1       7.053   4.903  16.691  0.00  0.00    +0.000 C 
ATOM     26  N   UNL     1       6.431   4.064  15.660  0.00  0.00    +0.000 N 
ATOM     27  C   UNL     1       5.200   3.344  16.043  0.00  0.00    +0.000 C 
ATOM     28  C   UNL     1       4.241   4.252  16.863  0.00  0.00    +0.000 C 
BRANCH  26  29
ATOM     29  C   UNL     1       6.722   4.241  14.319  0.00  0.00    +0.000 A 
ATOM     30  C   UNL     1       7.597   5.258  13.905  0.00  0.00    +0.000 A 
ATOM     31  C   UNL     1       7.876   5.482  12.553  0.00  0.00    +0.000 A 
ATOM     32  C   UNL     1       7.285   4.684  11.579  0.00  0.00    +0.000 A 
ATOM     33  C   UNL     1       6.420   3.665  11.960  0.00  0.00    +0.000 A 
ATOM     34  C   UNL     1       6.145   3.451  13.314  0.00  0.00    +0.000 A 
ENDBRANCH  26  29
ENDBRANCH  22  23
ENDBRANCH   6  22
TORSDOF 8
ENDMDL
MODEL 9
REMARK VINA RESULT:      -8.0      3.192      9.976
REMARK  Name = 
REMARK  9 active torsions:
REMARK  status: ('A' for Active; 'I' for Inactive)
REMARK    1  A    between atoms: C_1  and  O_2
REMARK    2  A    between atoms: O_2  and  C_3
REMARK    3  A    between atoms: C_6  and  N_7
REMARK    4  A    between atoms: C_8  and  O_10
REMARK    5  A    between atoms: O_10  and  C_11
REMARK    6  A    between atoms: C_11  and  C_12
REMARK    7  A    between atoms: C_17  and  C_18
REMARK    8  A    between atoms: C_18  and  N_19
REMARK    9  A    between atoms: N_22  and  C_23
REMARK                            x       y       z     vdW  Elec       q    Type
REMARK                         _______ _______ _______ _____ _____    ______ ____
ROOT
ATOM      1  C   UNL     1       1.187   4.649  19.585  0.00  0.00    +0.000 C 
ATOM      2  O   UNL     1       1.080   3.657  20.622  0.00  0.00    +0.000 OA
ATOM      3  C   UNL     1       2.056   3.892  21.545  0.00  0.00    +0.000 C 
ATOM      4  O   UNL     1       2.291   3.180  22.502  0.00  0.00    +0.000 OA
ATOM      5  N   UNL     1       2.714   5.050  21.238  0.00  0.00    +0.000 N 
ATOM      6  C   UNL     1       2.025   5.759  20.207  0.00  0.00    +0.000 C 
ATOM      7  H   UNL     1       3.298   5.487  21.941  0.00  0.00    +0.000 HD
ENDROOT
BRANCH   1   8
ATOM      8  C   UNL     1       1.877   4.032  18.359  0.00  0.00    +0.000 C 
BRANCH   8   9
ATOM      9  O   UNL     1       2.923   3.113  18.741  0.00  0.00    +0.000 OA
BRANCH   9  11
ATOM     10  N   UNL     1       4.051   3.938  16.974  0.00  0.00    +0.000 N 
ATOM     11  C   UNL     1       4.146   3.496  18.269  0.00  0.00    +0.000 C 
ATOM     12  O   UNL     1       5.153   3.402  18.947  0.00  0.00    +0.000 OA
ATOM     13  H   UNL     1       3.125   3.939  16.572  0.00  0.00    +0.000 HD
BRANCH  10  17
ATOM     14  C   UNL     1       7.325   5.365  14.699  0.00  0.00    +0.000 A 
ATOM     15  C   UNL     1       6.547   4.322  14.217  0.00  0.00    +0.000 A 
ATOM     16  C   UNL     1       5.460   3.861  14.950  0.00  0.00    +0.000 A 
ATOM     17  C   UNL     1       5.132   4.409  16.195  0.00  0.00    +0.000 A 
ATOM     18  C   UNL     1       5.923   5.460  16.682  0.00  0.00    +0.000 A 
ATOM     19  C   UNL     1       7.017   5.930  15.937  0.00  0.00    +0.000 A 
BRANCH  14  21
ATOM     20  C   UNL     1       8.125   5.623  12.497  0.00  0.00    +0.000 C 
ATOM     21  O   UNL     1       8.371   5.712  13.892  0.00  0.00    +0.000 OA
ENDBRANCH  14  21
ENDBRANCH  10  17
ENDBRANCH   9  11
ENDBRANCH   8   9
ENDBRANCH   1   8
BRANCH   6  22
ATOM     22  C   UNL     1       1.131   6.895  20.758  0.00  0.00    +0.000 C 
BRANCH  22  23
ATOM     23  N   UNL     1       1.761   8.236  20.749  0.00  0.00    +0.000 NA
ATOM     24  C   UNL     1       1.215   9.141  19.710  0.00  0.00    +0.000 C 
ATOM     25  C   UNL     1      -0.272   9.501  19.892  0.00  0.00    +0.000 C 
ATOM     26  N   UNL     1      -0.528  10.043  21.232  0.00  0.00    +0.000 N 
ATOM     27  C   UNL     1       0.079   9.322  22.368  0.00  0.00    +0.000 C 
ATOM     28  C   UNL     1       1.545   8.907  22.062  0.00  0.00    +0.000 C 
BRANCH  26  29
ATOM     29  C   UNL     1      -0.953  11.349  21.408  0.00  0.00    +0.000 A 
ATOM     30  C   UNL     1      -0.638  12.051  22.582  0.00  0.00    +0.000 A 
ATOM     31  C   UNL     1      -1.090  13.357  22.799  0.00  0.00    +0.000 A 
ATOM     32  C   UNL     1      -1.866  13.994  21.837  0.00  0.00    +0.000 A 
ATOM     33  C   UNL     1      -2.187  13.325  20.661  0.00  0.00    +0.000 A 
ATOM     34  C   UNL     1      -1.734  12.019  20.455  0.00  0.00    +0.000 A 
ENDBRANCH  26  29
ENDBRANCH  22  23
ENDBRANCH   6  22
TORSDOF 8
ENDMDL
