MODEL 1
REMARK VINA RESULT:      -7.3      0.000      0.000
REMARK  Name = 
REMARK  7 active torsions:
REMARK  status: ('A' for Active; 'I' for Inactive)
REMARK    1  A    between atoms: C_1  and  C_2
REMARK    2  A    between atoms: C_2  and  C_3
REMARK    3  A    between atoms: C_3  and  C_4
REMARK    4  A    between atoms: C_4  and  O_5
REMARK    5  A    between atoms: O_5  and  C_6
REMARK    6  A    between atoms: C_11  and  C_12
REMARK    7  A    between atoms: N_14  and  O_15
REMARK                            x       y       z     vdW  Elec       q    Type
REMARK                         _______ _______ _______ _____ _____    ______ ____
ROOT
ATOM      1  C   UNL     1       5.668   5.426  15.593  0.00  0.00    +0.000 A 
ATOM      2  C   UNL     1       5.233   6.517  16.344  0.00  0.00    +0.000 A 
ATOM      3  C   UNL     1       4.378   6.327  17.429  0.00  0.00    +0.000 A 
ATOM      4  C   UNL     1       3.931   5.048  17.790  0.00  0.00    +0.000 A 
ATOM      5  C   UNL     1       3.053   4.841  18.868  0.00  0.00    +0.000 A 
ATOM      6  C   UNL     1       2.609   3.555  19.213  0.00  0.00    +0.000 A 
ATOM      7  C   UNL     1       3.057   2.462  18.464  0.00  0.00    +0.000 A 
ATOM      8  C   UNL     1       3.932   2.657  17.387  0.00  0.00    +0.000 A 
ATOM      9  C   UNL     1       4.377   3.936  17.035  0.00  0.00    +0.000 A 
ATOM     10  C   UNL     1       5.243   4.143  15.947  0.00  0.00    +0.000 A 
ENDROOT
BRANCH   6  11
ATOM     11  C   UNL     1       1.665   3.416  20.367  0.00  0.00    +0.000 C 
ATOM     12  O   UNL     1       0.548   3.932  20.338  0.00  0.00    +0.000 OA
ATOM     13  N   UNL     1       2.084   2.693  21.459  0.00  0.00    +0.000 N 
ATOM     14  H   UNL     1       2.986   2.259  21.597  0.00  0.00    +0.000 HD
BRANCH  13  15
ATOM     15  O   UNL     1       1.168   2.585  22.529  0.00  0.00    +0.000 OA
ATOM     16  H   UNL     1       0.735   3.467  22.515  0.00  0.00    +0.000 HD
ENDBRANCH  13  15
ENDBRANCH   6  11
BRANCH   1  17
ATOM     17  O   UNL     1       6.473   5.505  14.487  0.00  0.00    +0.000 OA
BRANCH  17  18
ATOM     18  C   UNL     1       6.926   4.254  13.962  0.00  0.00    +0.000 C 
BRANCH  18  19
ATOM     19  C   UNL     1       6.611   4.204  12.470  0.00  0.00    +0.000 C 
BRANCH  19  21
ATOM     20  C   UNL     1       4.401   3.391  11.566  0.00  0.00    +0.000 C 
ATOM     21  C   UNL     1       5.758   2.989  12.120  0.00  0.00    +0.000 C 
ENDBRANCH  19  21
ENDBRANCH  18  19
ENDBRANCH  17  18
ENDBRANCH   1  17
TORSDOF 6
ENDMDL
MODEL 2
REMARK VINA RESULT:      -7.2      2.952      6.887
REMARK  Name = 
REMARK  7 active torsions:
REMARK  status: ('A' for Active; 'I' for Inactive)
REMARK    1  A    between atoms: C_1  and  C_2
REMARK    2  A    between atoms: C_2  and  C_3
REMARK    3  A    between atoms: C_3  and  C_4
REMARK    4  A    between atoms: C_4  and  O_5
REMARK    5  A    between atoms: O_5  and  C_6
REMARK    6  A    between atoms: C_11  and  C_12
REMARK    7  A    between atoms: N_14  and  O_15
REMARK                            x       y       z     vdW  Elec       q    Type
REMARK                         _______ _______ _______ _____ _____    ______ ____
ROOT
ATOM      1  C   UNL     1       2.759   5.980  18.938  0.00  0.00    +0.000 A 
ATOM      2  C   UNL     1       3.149   7.191  18.368  0.00  0.00    +0.000 A 
ATOM      3  C   UNL     1       4.037   7.208  17.292  0.00  0.00    +0.000 A 
ATOM      4  C   UNL     1       4.559   6.020  16.760  0.00  0.00    +0.000 A 
ATOM      5  C   UNL     1       5.469   6.021  15.689  0.00  0.00    +0.000 A 
ATOM      6  C   UNL     1       5.990   4.823  15.172  0.00  0.00    +0.000 A 
ATOM      7  C   UNL     1       5.586   3.610  15.739  0.00  0.00    +0.000 A 
ATOM      8  C   UNL     1       4.680   3.599  16.807  0.00  0.00    +0.000 A 
ATOM      9  C   UNL     1       4.158   4.788  17.331  0.00  0.00    +0.000 A 
ATOM     10  C   UNL     1       3.259   4.787  18.412  0.00  0.00    +0.000 A 
ENDROOT
BRANCH   6  11
ATOM     11  C   UNL     1       6.964   4.905  14.037  0.00  0.00    +0.000 C 
ATOM     12  O   UNL     1       6.797   4.248  13.010  0.00  0.00    +0.000 OA
ATOM     13  N   UNL     1       8.048   5.739  14.178  0.00  0.00    +0.000 N 
ATOM     14  H   UNL     1       8.294   6.294  14.986  0.00  0.00    +0.000 HD
BRANCH  13  15
ATOM     15  O   UNL     1       8.946   5.790  13.089  0.00  0.00    +0.000 OA
ATOM     16  H   UNL     1       9.792   5.520  13.510  0.00  0.00    +0.000 HD
ENDBRANCH  13  15
ENDBRANCH   6  11
BRANCH   1  17
ATOM     17  O   UNL     1       1.927   5.855  20.020  0.00  0.00    +0.000 OA
BRANCH  17  18
ATOM     18  C   UNL     1       2.237   4.782  20.915  0.00  0.00    +0.000 C 
BRANCH  18  19
ATOM     19  C   UNL     1       1.103   3.765  20.874  0.00  0.00    +0.000 C 
BRANCH  19  21
ATOM     20  C   UNL     1       0.792   2.304  18.840  0.00  0.00    +0.000 C 
ATOM     21  C   UNL     1       1.526   2.485  20.158  0.00  0.00    +0.000 C 
ENDBRANCH  19  21
ENDBRANCH  18  19
ENDBRANCH  17  18
ENDBRANCH   1  17
TORSDOF 6
ENDMDL
MODEL 3
REMARK VINA RESULT:      -7.2      2.908      6.855
REMARK  Name = 
REMARK  7 active torsions:
REMARK  status: ('A' for Active; 'I' for Inactive)
REMARK    1  A    between atoms: C_1  and  C_2
REMARK    2  A    between atoms: C_2  and  C_3
REMARK    3  A    between atoms: C_3  and  C_4
REMARK    4  A    between atoms: C_4  and  O_5
REMARK    5  A    between atoms: O_5  and  C_6
REMARK    6  A    between atoms: C_11  and  C_12
REMARK    7  A    between atoms: N_14  and  O_15
REMARK                            x       y       z     vdW  Elec       q    Type
REMARK                         _______ _______ _______ _____ _____    ______ ____
ROOT
ATOM      1  C   UNL     1       2.892   6.233  19.095  0.00  0.00    +0.000 A 
ATOM      2  C   UNL     1       3.108   7.375  18.325  0.00  0.00    +0.000 A 
ATOM      3  C   UNL     1       3.908   7.313  17.183  0.00  0.00    +0.000 A 
ATOM      4  C   UNL     1       4.514   6.114  16.784  0.00  0.00    +0.000 A 
ATOM      5  C   UNL     1       5.339   6.038  15.648  0.00  0.00    +0.000 A 
ATOM      6  C   UNL     1       5.946   4.831  15.264  0.00  0.00    +0.000 A 
ATOM      7  C   UNL     1       5.716   3.685  16.033  0.00  0.00    +0.000 A 
ATOM      8  C   UNL     1       4.897   3.750  17.167  0.00  0.00    +0.000 A 
ATOM      9  C   UNL     1       4.290   4.949  17.559  0.00  0.00    +0.000 A 
ATOM     10  C   UNL     1       3.478   5.027  18.703  0.00  0.00    +0.000 A 
ENDROOT
BRANCH   6  11
ATOM     11  C   UNL     1       6.820   4.833  14.049  0.00  0.00    +0.000 C 
ATOM     12  O   UNL     1       7.830   5.535  13.995  0.00  0.00    +0.000 OA
ATOM     13  N   UNL     1       6.462   4.023  12.997  0.00  0.00    +0.000 N 
ATOM     14  H   UNL     1       5.643   3.436  12.927  0.00  0.00    +0.000 HD
BRANCH  13  15
ATOM     15  O   UNL     1       7.309   4.051  11.867  0.00  0.00    +0.000 OA
ATOM     16  H   UNL     1       7.908   4.801  12.080  0.00  0.00    +0.000 HD
ENDBRANCH  13  15
ENDBRANCH   6  11
BRANCH   1  17
ATOM     17  O   UNL     1       2.159   6.195  20.252  0.00  0.00    +0.000 OA
BRANCH  17  18
ATOM     18  C   UNL     1       2.125   4.929  20.919  0.00  0.00    +0.000 C 
BRANCH  18  19
ATOM     19  C   UNL     1       0.859   4.189  20.502  0.00  0.00    +0.000 C 
BRANCH  19  21
ATOM     20  C   UNL     1       0.976   2.354  18.774  0.00  0.00    +0.000 C 
ATOM     21  C   UNL     1       1.135   2.711  20.242  0.00  0.00    +0.000 C 
ENDBRANCH  19  21
ENDBRANCH  18  19
ENDBRANCH  17  18
ENDBRANCH   1  17
TORSDOF 6
ENDMDL
MODEL 4
REMARK VINA RESULT:      -7.1      1.220      1.345
REMARK  Name = 
REMARK  7 active torsions:
REMARK  status: ('A' for Active; 'I' for Inactive)
REMARK    1  A    between atoms: C_1  and  C_2
REMARK    2  A    between atoms: C_2  and  C_3
REMARK    3  A    between atoms: C_3  and  C_4
REMARK    4  A    between atoms: C_4  and  O_5
REMARK    5  A    between atoms: O_5  and  C_6
REMARK    6  A    between atoms: C_11  and  C_12
REMARK    7  A    between atoms: N_14  and  O_15
REMARK                            x       y       z     vdW  Elec       q    Type
REMARK                         _______ _______ _______ _____ _____    ______ ____
ROOT
ATOM      1  C   UNL     1       6.769   4.429  16.091  0.00  0.00    +0.000 A 
ATOM      2  C   UNL     1       7.240   4.730  17.368  0.00  0.00    +0.000 A 
ATOM      3  C   UNL     1       6.394   4.628  18.473  0.00  0.00    +0.000 A 
ATOM      4  C   UNL     1       5.058   4.229  18.331  0.00  0.00    +0.000 A 
ATOM      5  C   UNL     1       4.186   4.141  19.430  0.00  0.00    +0.000 A 
ATOM      6  C   UNL     1       2.847   3.746  19.272  0.00  0.00    +0.000 A 
ATOM      7  C   UNL     1       2.382   3.433  17.990  0.00  0.00    +0.000 A 
ATOM      8  C   UNL     1       3.242   3.519  16.888  0.00  0.00    +0.000 A 
ATOM      9  C   UNL     1       4.577   3.914  17.036  0.00  0.00    +0.000 A 
ATOM     10  C   UNL     1       5.444   4.017  15.934  0.00  0.00    +0.000 A 
ENDROOT
BRANCH   6  11
ATOM     11  C   UNL     1       1.977   3.687  20.489  0.00  0.00    +0.000 C 
ATOM     12  O   UNL     1       1.148   4.568  20.719  0.00  0.00    +0.000 OA
ATOM     13  N   UNL     1       2.131   2.618  21.340  0.00  0.00    +0.000 N 
ATOM     14  H   UNL     1       2.798   1.864  21.261  0.00  0.00    +0.000 HD
BRANCH  13  15
ATOM     15  O   UNL     1       1.294   2.596  22.478  0.00  0.00    +0.000 OA
ATOM     16  H   UNL     1       1.854   3.045  23.150  0.00  0.00    +0.000 HD
ENDBRANCH  13  15
ENDBRANCH   6  11
BRANCH   1  17
ATOM     17  O   UNL     1       7.503   4.535  14.939  0.00  0.00    +0.000 OA
BRANCH  17  18
ATOM     18  C   UNL     1       6.781   4.980  13.786  0.00  0.00    +0.000 C 
BRANCH  18  19
ATOM     19  C   UNL     1       6.950   3.951  12.674  0.00  0.00    +0.000 C 
BRANCH  19  21
ATOM     20  C   UNL     1       5.785   2.066  11.468  0.00  0.00    +0.000 C 
ATOM     21  C   UNL     1       5.610   3.350  12.261  0.00  0.00    +0.000 C 
ENDBRANCH  19  21
ENDBRANCH  18  19
ENDBRANCH  17  18
ENDBRANCH   1  17
TORSDOF 6
ENDMDL
MODEL 5
REMARK VINA RESULT:      -6.8      2.966      7.016
REMARK  Name = 
REMARK  7 active torsions:
REMARK  status: ('A' for Active; 'I' for Inactive)
REMARK    1  A    between atoms: C_1  and  C_2
REMARK    2  A    between atoms: C_2  and  C_3
REMARK    3  A    between atoms: C_3  and  C_4
REMARK    4  A    between atoms: C_4  and  O_5
REMARK    5  A    between atoms: O_5  and  C_6
REMARK    6  A    between atoms: C_11  and  C_12
REMARK    7  A    between atoms: N_14  and  O_15
REMARK                            x       y       z     vdW  Elec       q    Type
REMARK                         _______ _______ _______ _____ _____    ______ ____
ROOT
ATOM      1  C   UNL     1       3.444   5.169  19.493  0.00  0.00    +0.000 A 
ATOM      2  C   UNL     1       2.674   5.430  18.360  0.00  0.00    +0.000 A 
ATOM      3  C   UNL     1       3.258   5.411  17.093  0.00  0.00    +0.000 A 
ATOM      4  C   UNL     1       4.622   5.136  16.924  0.00  0.00    +0.000 A 
ATOM      5  C   UNL     1       5.230   5.132  15.657  0.00  0.00    +0.000 A 
ATOM      6  C   UNL     1       6.600   4.862  15.503  0.00  0.00    +0.000 A 
ATOM      7  C   UNL     1       7.366   4.589  16.642  0.00  0.00    +0.000 A 
ATOM      8  C   UNL     1       6.770   4.591  17.909  0.00  0.00    +0.000 A 
ATOM      9  C   UNL     1       5.406   4.862  18.072  0.00  0.00    +0.000 A 
ATOM     10  C   UNL     1       4.802   4.880  19.341  0.00  0.00    +0.000 A 
ENDROOT
BRANCH   6  11
ATOM     11  C   UNL     1       7.177   4.888  14.122  0.00  0.00    +0.000 C 
ATOM     12  O   UNL     1       8.109   5.640  13.839  0.00  0.00    +0.000 OA
ATOM     13  N   UNL     1       6.636   4.044  13.182  0.00  0.00    +0.000 N 
ATOM     14  H   UNL     1       5.855   3.414  13.301  0.00  0.00    +0.000 HD
BRANCH  13  15
ATOM     15  O   UNL     1       7.205   4.096  11.890  0.00  0.00    +0.000 OA
ATOM     16  H   UNL     1       7.355   5.060  11.773  0.00  0.00    +0.000 HD
ENDBRANCH  13  15
ENDBRANCH   6  11
BRANCH   1  17
ATOM     17  O   UNL     1       2.980   5.203  20.782  0.00  0.00    +0.000 OA
BRANCH  17  18
ATOM     18  C   UNL     1       1.601   4.861  20.950  0.00  0.00    +0.000 C 
BRANCH  18  19
ATOM     19  C   UNL     1       1.487   3.350  21.120  0.00  0.00    +0.000 C 
BRANCH  19  21
ATOM     20  C   UNL     1       1.748   1.910  19.065  0.00  0.00    +0.000 C 
ATOM     21  C   UNL     1       0.784   2.705  19.930  0.00  0.00    +0.000 C 
ENDBRANCH  19  21
ENDBRANCH  18  19
ENDBRANCH  17  18
ENDBRANCH   1  17
TORSDOF 6
ENDMDL
MODEL 6
REMARK VINA RESULT:      -6.8      2.399      2.854
REMARK  Name = 
REMARK  7 active torsions:
REMARK  status: ('A' for Active; 'I' for Inactive)
REMARK    1  A    between atoms: C_1  and  C_2
REMARK    2  A    between atoms: C_2  and  C_3
REMARK    3  A    between atoms: C_3  and  C_4
REMARK    4  A    between atoms: C_4  and  O_5
REMARK    5  A    between atoms: O_5  and  C_6
REMARK    6  A    between atoms: C_11  and  C_12
REMARK    7  A    between atoms: N_14  and  O_15
REMARK                            x       y       z     vdW  Elec       q    Type
REMARK                         _______ _______ _______ _____ _____    ______ ____
ROOT
ATOM      1  C   UNL     1       5.392   4.482  15.435  0.00  0.00    +0.000 A 
ATOM      2  C   UNL     1       5.619   5.849  15.288  0.00  0.00    +0.000 A 
ATOM      3  C   UNL     1       4.989   6.762  16.135  0.00  0.00    +0.000 A 
ATOM      4  C   UNL     1       4.116   6.335  17.144  0.00  0.00    +0.000 A 
ATOM      5  C   UNL     1       3.457   7.243  17.992  0.00  0.00    +0.000 A 
ATOM      6  C   UNL     1       2.578   6.801  18.995  0.00  0.00    +0.000 A 
ATOM      7  C   UNL     1       2.363   5.427  19.147  0.00  0.00    +0.000 A 
ATOM      8  C   UNL     1       3.013   4.515  18.306  0.00  0.00    +0.000 A 
ATOM      9  C   UNL     1       3.888   4.946  17.303  0.00  0.00    +0.000 A 
ATOM     10  C   UNL     1       4.534   4.039  16.445  0.00  0.00    +0.000 A 
ENDROOT
BRANCH   6  11
ATOM     11  C   UNL     1       1.906   7.829  19.852  0.00  0.00    +0.000 C 
ATOM     12  O   UNL     1       1.405   8.838  19.356  0.00  0.00    +0.000 OA
ATOM     13  N   UNL     1       1.863   7.608  21.208  0.00  0.00    +0.000 N 
ATOM     14  H   UNL     1       2.267   6.834  21.716  0.00  0.00    +0.000 HD
BRANCH  13  15
ATOM     15  O   UNL     1       1.222   8.599  21.985  0.00  0.00    +0.000 OA
ATOM     16  H   UNL     1       1.905   8.801  22.661  0.00  0.00    +0.000 HD
ENDBRANCH  13  15
ENDBRANCH   6  11
BRANCH   1  17
ATOM     17  O   UNL     1       5.926   3.507  14.634  0.00  0.00    +0.000 OA
BRANCH  17  18
ATOM     18  C   UNL     1       6.745   3.974  13.557  0.00  0.00    +0.000 C 
BRANCH  18  19
ATOM     19  C   UNL     1       6.194   3.422  12.247  0.00  0.00    +0.000 C 
BRANCH  19  21
ATOM     20  C   UNL     1       4.019   3.371  10.969  0.00  0.00    +0.000 C 
ATOM     21  C   UNL     1       4.685   3.203  12.324  0.00  0.00    +0.000 C 
ENDBRANCH  19  21
ENDBRANCH  18  19
ENDBRANCH  17  18
ENDBRANCH   1  17
TORSDOF 6
ENDMDL
MODEL 7
REMARK VINA RESULT:      -6.8      1.777      2.179
REMARK  Name = 
REMARK  7 active torsions:
REMARK  status: ('A' for Active; 'I' for Inactive)
REMARK    1  A    between atoms: C_1  and  C_2
REMARK    2  A    between atoms: C_2  and  C_3
REMARK    3  A    between atoms: C_3  and  C_4
REMARK    4  A    between atoms: C_4  and  O_5
REMARK    5  A    between atoms: O_5  and  C_6
REMARK    6  A    between atoms: C_11  and  C_12
REMARK    7  A    between atoms: N_14  and  O_15
REMARK                            x       y       z     vdW  Elec       q    Type
REMARK                         _______ _______ _______ _____ _____    ______ ____
ROOT
ATOM      1  C   UNL     1       5.950   4.337  15.130  0.00  0.00    +0.000 A 
ATOM      2  C   UNL     1       5.773   5.720  15.173  0.00  0.00    +0.000 A 
ATOM      3  C   UNL     1       4.997   6.299  16.177  0.00  0.00    +0.000 A 
ATOM      4  C   UNL     1       4.375   5.515  17.160  0.00  0.00    +0.000 A 
ATOM      5  C   UNL     1       3.573   6.080  18.166  0.00  0.00    +0.000 A 
ATOM      6  C   UNL     1       2.950   5.282  19.139  0.00  0.00    +0.000 A 
ATOM      7  C   UNL     1       3.140   3.897  19.099  0.00  0.00    +0.000 A 
ATOM      8  C   UNL     1       3.936   3.324  18.100  0.00  0.00    +0.000 A 
ATOM      9  C   UNL     1       4.559   4.111  17.124  0.00  0.00    +0.000 A 
ATOM     10  C   UNL     1       5.348   3.544  16.109  0.00  0.00    +0.000 A 
ENDROOT
BRANCH   6  11
ATOM     11  C   UNL     1       2.102   5.956  20.173  0.00  0.00    +0.000 C 
ATOM     12  O   UNL     1       1.265   5.324  20.817  0.00  0.00    +0.000 OA
ATOM     13  N   UNL     1       2.288   7.303  20.381  0.00  0.00    +0.000 N 
ATOM     14  H   UNL     1       2.921   7.917  19.888  0.00  0.00    +0.000 HD
BRANCH  13  15
ATOM     15  O   UNL     1       1.470   7.905  21.362  0.00  0.00    +0.000 OA
ATOM     16  H   UNL     1       2.136   8.283  21.978  0.00  0.00    +0.000 HD
ENDBRANCH  13  15
ENDBRANCH   6  11
BRANCH   1  17
ATOM     17  O   UNL     1       6.656   3.667  14.166  0.00  0.00    +0.000 OA
BRANCH  17  18
ATOM     18  C   UNL     1       6.305   3.978  12.815  0.00  0.00    +0.000 C 
BRANCH  18  19
ATOM     19  C   UNL     1       4.853   3.578  12.580  0.00  0.00    +0.000 C 
BRANCH  19  21
ATOM     20  C   UNL     1       3.355   3.228  10.580  0.00  0.00    +0.000 C 
ATOM     21  C   UNL     1       4.677   2.872  11.238  0.00  0.00    +0.000 C 
ENDBRANCH  19  21
ENDBRANCH  18  19
ENDBRANCH  17  18
ENDBRANCH   1  17
TORSDOF 6
ENDMDL
MODEL 8
REMARK VINA RESULT:      -6.8      3.843      7.792
REMARK  Name = 
REMARK  7 active torsions:
REMARK  status: ('A' for Active; 'I' for Inactive)
REMARK    1  A    between atoms: C_1  and  C_2
REMARK    2  A    between atoms: C_2  and  C_3
REMARK    3  A    between atoms: C_3  and  C_4
REMARK    4  A    between atoms: C_4  and  O_5
REMARK    5  A    between atoms: O_5  and  C_6
REMARK    6  A    between atoms: C_11  and  C_12
REMARK    7  A    between atoms: N_14  and  O_15
REMARK                            x       y       z     vdW  Elec       q    Type
REMARK                         _______ _______ _______ _____ _____    ______ ____
ROOT
ATOM      1  C   UNL     1       2.207   6.834  19.672  0.00  0.00    +0.000 A 
ATOM      2  C   UNL     1       2.457   7.869  18.773  0.00  0.00    +0.000 A 
ATOM      3  C   UNL     1       3.297   7.662  17.679  0.00  0.00    +0.000 A 
ATOM      4  C   UNL     1       3.913   6.422  17.457  0.00  0.00    +0.000 A 
ATOM      5  C   UNL     1       4.779   6.204  16.372  0.00  0.00    +0.000 A 
ATOM      6  C   UNL     1       5.394   4.958  16.167  0.00  0.00    +0.000 A 
ATOM      7  C   UNL     1       5.131   3.919  17.066  0.00  0.00    +0.000 A 
ATOM      8  C   UNL     1       4.271   4.127  18.151  0.00  0.00    +0.000 A 
ATOM      9  C   UNL     1       3.656   5.366  18.365  0.00  0.00    +0.000 A 
ATOM     10  C   UNL     1       2.802   5.588  19.459  0.00  0.00    +0.000 A 
ENDROOT
BRANCH   6  11
ATOM     11  C   UNL     1       6.313   4.805  14.995  0.00  0.00    +0.000 C 
ATOM     12  O   UNL     1       6.073   3.991  14.103  0.00  0.00    +0.000 OA
ATOM     13  N   UNL     1       7.431   5.604  14.944  0.00  0.00    +0.000 N 
ATOM     14  H   UNL     1       7.735   6.277  15.633  0.00  0.00    +0.000 HD
BRANCH  13  15
ATOM     15  O   UNL     1       8.275   5.431  13.824  0.00  0.00    +0.000 OA
ATOM     16  H   UNL     1       8.021   4.534  13.515  0.00  0.00    +0.000 HD
ENDBRANCH  13  15
ENDBRANCH   6  11
BRANCH   1  17
ATOM     17  O   UNL     1       1.433   6.942  20.798  0.00  0.00    +0.000 OA
BRANCH  17  18
ATOM     18  C   UNL     1       1.343   8.254  21.361  0.00  0.00    +0.000 C 
BRANCH  18  19
ATOM     19  C   UNL     1      -0.128   8.615  21.536  0.00  0.00    +0.000 C 
BRANCH  19  21
ATOM     20  C   UNL     1      -0.708  10.638  22.927  0.00  0.00    +0.000 C 
ATOM     21  C   UNL     1      -0.335  10.127  21.546  0.00  0.00    +0.000 C 
ENDBRANCH  19  21
ENDBRANCH  18  19
ENDBRANCH  17  18
ENDBRANCH   1  17
TORSDOF 6
ENDMDL
MODEL 9
REMARK VINA RESULT:      -6.8      3.904      7.919
REMARK  Name = 
REMARK  7 active torsions:
REMARK  status: ('A' for Active; 'I' for Inactive)
REMARK    1  A    between atoms: C_1  and  C_2
REMARK    2  A    between atoms: C_2  and  C_3
REMARK    3  A    between atoms: C_3  and  C_4
REMARK    4  A    between atoms: C_4  and  O_5
REMARK    5  A    between atoms: O_5  and  C_6
REMARK    6  A    between atoms: C_11  and  C_12
REMARK    7  A    between atoms: N_14  and  O_15
REMARK                            x       y       z     vdW  Elec       q    Type
REMARK                         _______ _______ _______ _____ _____    ______ ____
ROOT
ATOM      1  C   UNL     1       2.151   7.122  19.800  0.00  0.00    +0.000 A 
ATOM      2  C   UNL     1       2.271   8.071  18.786  0.00  0.00    +0.000 A 
ATOM      3  C   UNL     1       3.099   7.827  17.689  0.00  0.00    +0.000 A 
ATOM      4  C   UNL     1       3.829   6.636  17.579  0.00  0.00    +0.000 A 
ATOM      5  C   UNL     1       4.683   6.384  16.492  0.00  0.00    +0.000 A 
ATOM      6  C   UNL     1       5.415   5.188  16.398  0.00  0.00    +0.000 A 
ATOM      7  C   UNL     1       5.281   4.234  17.412  0.00  0.00    +0.000 A 
ATOM      8  C   UNL     1       4.434   4.476  18.500  0.00  0.00    +0.000 A 
ATOM      9  C   UNL     1       3.704   5.665  18.603  0.00  0.00    +0.000 A 
ATOM     10  C   UNL     1       2.862   5.923  19.699  0.00  0.00    +0.000 A 
ENDROOT
BRANCH   6  11
ATOM     11  C   UNL     1       6.312   4.997  15.215  0.00  0.00    +0.000 C 
ATOM     12  O   UNL     1       7.416   5.540  15.162  0.00  0.00    +0.000 OA
ATOM     13  N   UNL     1       5.867   4.195  14.191  0.00  0.00    +0.000 N 
ATOM     14  H   UNL     1       4.972   3.731  14.121  0.00  0.00    +0.000 HD
BRANCH  13  15
ATOM     15  O   UNL     1       6.739   4.038  13.091  0.00  0.00    +0.000 OA
ATOM     16  H   UNL     1       6.672   3.074  12.914  0.00  0.00    +0.000 HD
ENDBRANCH  13  15
ENDBRANCH   6  11
BRANCH   1  17
ATOM     17  O   UNL     1       1.400   7.278  20.935  0.00  0.00    +0.000 OA
BRANCH  17  18
ATOM     18  C   UNL     1       1.097   8.630  21.294  0.00  0.00    +0.000 C 
BRANCH  18  19
ATOM     19  C   UNL     1      -0.335   8.691  21.814  0.00  0.00    +0.000 C 
BRANCH  19  21
ATOM     20  C   UNL     1      -0.765  10.992  22.754  0.00  0.00    +0.000 C 
ATOM     21  C   UNL     1      -0.435   9.544  23.075  0.00  0.00    +0.000 C 
ENDBRANCH  19  21
ENDBRANCH  18  19
ENDBRANCH  17  18
ENDBRANCH   1  17
TORSDOF 6
ENDMDL
