MODEL 1
REMARK VINA RESULT:      -7.6      0.000      0.000
REMARK  Name = 
REMARK  14 active torsions:
REMARK  status: ('A' for Active; 'I' for Inactive)
REMARK    1  A    between atoms: C_1  and  O_2
REMARK    2  A    between atoms: O_2  and  C_3
REMARK    3  A    between atoms: C_5  and  C_6
REMARK    4  A    between atoms: C_7  and  C_8
REMARK    5  A    between atoms: C_8  and  C_10
REMARK    6  A    between atoms: C_10  and  C_11
REMARK    7  A    between atoms: C_11  and  C_13
REMARK    8  A    between atoms: C_14  and  C_15
REMARK    9  A    between atoms: C_17  and  C_18
REMARK   10  A    between atoms: C_19  and  O_20
REMARK   11  A    between atoms: C_21  and  O_22
REMARK   12  A    between atoms: O_22  and  C_23
REMARK   13  A    between atoms: C_26  and  C_27
REMARK   14  A    between atoms: C_28  and  O_29
REMARK                            x       y       z     vdW  Elec       q    Type
REMARK                         _______ _______ _______ _____ _____    ______ ____
ROOT
ATOM      1  C   UNL     1       2.100   1.969  19.932  0.00  0.00    +0.000 C 
ENDROOT
BRANCH   1   2
ATOM      2  C   UNL     1       1.523   2.852  21.005  0.00  0.00    +0.000 C 
ATOM      3  O   UNL     1       1.341   2.425  22.145  0.00  0.00    +0.000 OA
BRANCH   2   5
ATOM      4  C   UNL     1       2.052   5.240  20.765  0.00  0.00    +0.000 C 
ATOM      5  C   UNL     1       1.157   4.250  20.632  0.00  0.00    +0.000 C 
BRANCH   4   8
ATOM      6  C   UNL     1       2.044   8.457  18.801  0.00  0.00    +0.000 A 
ATOM      7  C   UNL     1       2.286   7.136  19.193  0.00  0.00    +0.000 A 
ATOM      8  C   UNL     1       1.799   6.648  20.415  0.00  0.00    +0.000 A 
ATOM      9  C   UNL     1       1.047   7.501  21.232  0.00  0.00    +0.000 A 
ATOM     10  C   UNL     1       0.799   8.835  20.868  0.00  0.00    +0.000 A 
ATOM     11  C   UNL     1      -0.002   9.703  21.796  0.00  0.00    +0.000 C 
ATOM     12  C   UNL     1       1.308   9.301  19.647  0.00  0.00    +0.000 A 
BRANCH   6  14
ATOM     13  C   UNL     1       3.486   8.251  16.921  0.00  0.00    +0.000 C 
ATOM     14  O   UNL     1       2.529   9.014  17.643  0.00  0.00    +0.000 OA
ENDBRANCH   6  14
BRANCH  12  15
ATOM     15  O   UNL     1       1.092  10.590  19.228  0.00  0.00    +0.000 OA
ATOM     16  H   UNL     1       0.351  10.618  18.609  0.00  0.00    +0.000 HD
ENDBRANCH  12  15
ENDBRANCH   4   8
ENDBRANCH   2   5
ENDBRANCH   1   2
BRANCH   1  17
ATOM     17  C   UNL     1       1.641   2.341  18.550  0.00  0.00    +0.000 C 
ATOM     18  O   UNL     1       0.518   2.033  18.149  0.00  0.00    +0.000 OA
BRANCH  17  19
ATOM     19  C   UNL     1       2.579   3.129  17.702  0.00  0.00    +0.000 C 
ATOM     20  C   UNL     1       3.891   3.135  17.985  0.00  0.00    +0.000 C 
BRANCH  20  21
ATOM     21  C   UNL     1       4.911   3.860  17.210  0.00  0.00    +0.000 A 
ATOM     22  C   UNL     1       5.598   4.966  17.727  0.00  0.00    +0.000 A 
ATOM     23  C   UNL     1       6.576   5.637  16.975  0.00  0.00    +0.000 A 
ATOM     24  C   UNL     1       7.267   6.826  17.577  0.00  0.00    +0.000 C 
ATOM     25  C   UNL     1       6.866   5.166  15.685  0.00  0.00    +0.000 A 
ATOM     26  C   UNL     1       6.208   4.043  15.155  0.00  0.00    +0.000 A 
ATOM     27  C   UNL     1       5.239   3.394  15.927  0.00  0.00    +0.000 A 
BRANCH  25  28
ATOM     28  O   UNL     1       7.803   5.784  14.896  0.00  0.00    +0.000 OA
ATOM     29  H   UNL     1       8.334   5.123  14.431  0.00  0.00    +0.000 HD
ENDBRANCH  25  28
BRANCH  26  30
ATOM     30  O   UNL     1       6.580   3.667  13.889  0.00  0.00    +0.000 OA
ATOM     31  C   UNL     1       5.562   3.567  12.903  0.00  0.00    +0.000 C 
ENDBRANCH  26  30
ENDBRANCH  20  21
ENDBRANCH  17  19
ENDBRANCH   1  17
TORSDOF 10
ENDMDL
MODEL 2
REMARK VINA RESULT:      -7.6      1.543      7.691
REMARK  Name = 
REMARK  14 active torsions:
REMARK  status: ('A' for Active; 'I' for Inactive)
REMARK    1  A    between atoms: C_1  and  O_2
REMARK    2  A    between atoms: O_2  and  C_3
REMARK    3  A    between atoms: C_5  and  C_6
REMARK    4  A    between atoms: C_7  and  C_8
REMARK    5  A    between atoms: C_8  and  C_10
REMARK    6  A    between atoms: C_10  and  C_11
REMARK    7  A    between atoms: C_11  and  C_13
REMARK    8  A    between atoms: C_14  and  C_15
REMARK    9  A    between atoms: C_17  and  C_18
REMARK   10  A    between atoms: C_19  and  O_20
REMARK   11  A    between atoms: C_21  and  O_22
REMARK   12  A    between atoms: O_22  and  C_23
REMARK   13  A    between atoms: C_26  and  C_27
REMARK   14  A    between atoms: C_28  and  O_29
REMARK                            x       y       z     vdW  Elec       q    Type
REMARK                         _______ _______ _______ _____ _____    ______ ____
ROOT
ATOM      1  C   UNL     1       1.021   3.818  19.556  0.00  0.00    +0.000 C 
ENDROOT
BRANCH   1   2
ATOM      2  C   UNL     1       1.862   2.986  18.627  0.00  0.00    +0.000 C 
ATOM      3  O   UNL     1       1.804   1.758  18.651  0.00  0.00    +0.000 OA
BRANCH   2   5
ATOM      4  C   UNL     1       4.014   3.221  17.463  0.00  0.00    +0.000 C 
ATOM      5  C   UNL     1       2.784   3.702  17.697  0.00  0.00    +0.000 C 
BRANCH   4   8
ATOM      6  C   UNL     1       6.797   5.452  16.245  0.00  0.00    +0.000 A 
ATOM      7  C   UNL     1       5.827   4.854  17.057  0.00  0.00    +0.000 A 
ATOM      8  C   UNL     1       4.995   3.841  16.557  0.00  0.00    +0.000 A 
ATOM      9  C   UNL     1       5.165   3.420  15.232  0.00  0.00    +0.000 A 
ATOM     10  C   UNL     1       6.124   4.010  14.391  0.00  0.00    +0.000 A 
ATOM     11  C   UNL     1       6.246   3.523  12.976  0.00  0.00    +0.000 C 
ATOM     12  C   UNL     1       6.933   5.030  14.913  0.00  0.00    +0.000 A 
BRANCH   6  14
ATOM     13  C   UNL     1       7.637   6.758  18.046  0.00  0.00    +0.000 C 
ATOM     14  O   UNL     1       7.611   6.480  16.653  0.00  0.00    +0.000 OA
ENDBRANCH   6  14
BRANCH  12  15
ATOM     15  O   UNL     1       7.895   5.641  14.148  0.00  0.00    +0.000 OA
ATOM     16  H   UNL     1       7.552   6.465  13.779  0.00  0.00    +0.000 HD
ENDBRANCH  12  15
ENDBRANCH   4   8
ENDBRANCH   2   5
ENDBRANCH   1   2
BRANCH   1  17
ATOM     17  C   UNL     1       1.801   4.394  20.705  0.00  0.00    +0.000 C 
ATOM     18  O   UNL     1       2.613   3.709  21.328  0.00  0.00    +0.000 OA
BRANCH  17  19
ATOM     19  C   UNL     1       1.584   5.831  21.032  0.00  0.00    +0.000 C 
ATOM     20  C   UNL     1       1.650   6.755  20.061  0.00  0.00    +0.000 C 
BRANCH  20  21
ATOM     21  C   UNL     1       1.437   8.197  20.262  0.00  0.00    +0.000 A 
ATOM     22  C   UNL     1       1.645   9.135  19.243  0.00  0.00    +0.000 A 
ATOM     23  C   UNL     1       1.425  10.506  19.452  0.00  0.00    +0.000 A 
ATOM     24  C   UNL     1       1.682  11.464  18.326  0.00  0.00    +0.000 C 
ATOM     25  C   UNL     1       0.973  10.924  20.713  0.00  0.00    +0.000 A 
ATOM     26  C   UNL     1       0.732  10.000  21.744  0.00  0.00    +0.000 A 
ATOM     27  C   UNL     1       0.959   8.640  21.506  0.00  0.00    +0.000 A 
BRANCH  25  28
ATOM     28  O   UNL     1       0.748  12.250  20.984  0.00  0.00    +0.000 OA
ATOM     29  H   UNL     1       0.632  12.380  21.935  0.00  0.00    +0.000 HD
ENDBRANCH  25  28
BRANCH  26  30
ATOM     30  O   UNL     1       0.282  10.521  22.931  0.00  0.00    +0.000 OA
ATOM     31  C   UNL     1      -1.106  10.421  23.213  0.00  0.00    +0.000 C 
ENDBRANCH  26  30
ENDBRANCH  20  21
ENDBRANCH  17  19
ENDBRANCH   1  17
TORSDOF 10
ENDMDL
MODEL 3
REMARK VINA RESULT:      -7.5      1.136      6.972
REMARK  Name = 
REMARK  14 active torsions:
REMARK  status: ('A' for Active; 'I' for Inactive)
REMARK    1  A    between atoms: C_1  and  O_2
REMARK    2  A    between atoms: O_2  and  C_3
REMARK    3  A    between atoms: C_5  and  C_6
REMARK    4  A    between atoms: C_7  and  C_8
REMARK    5  A    between atoms: C_8  and  C_10
REMARK    6  A    between atoms: C_10  and  C_11
REMARK    7  A    between atoms: C_11  and  C_13
REMARK    8  A    between atoms: C_14  and  C_15
REMARK    9  A    between atoms: C_17  and  C_18
REMARK   10  A    between atoms: C_19  and  O_20
REMARK   11  A    between atoms: C_21  and  O_22
REMARK   12  A    between atoms: O_22  and  C_23
REMARK   13  A    between atoms: C_26  and  C_27
REMARK   14  A    between atoms: C_28  and  O_29
REMARK                            x       y       z     vdW  Elec       q    Type
REMARK                         _______ _______ _______ _____ _____    ______ ____
ROOT
ATOM      1  C   UNL     1       1.218   2.415  20.146  0.00  0.00    +0.000 C 
ENDROOT
BRANCH   1   2
ATOM      2  C   UNL     1       1.317   2.822  18.701  0.00  0.00    +0.000 C 
ATOM      3  O   UNL     1       0.314   2.883  17.992  0.00  0.00    +0.000 OA
BRANCH   2   5
ATOM      4  C   UNL     1       2.949   4.339  17.664  0.00  0.00    +0.000 C 
ATOM      5  C   UNL     1       2.673   3.121  18.155  0.00  0.00    +0.000 C 
BRANCH   4   8
ATOM      6  C   UNL     1       5.780   4.775  15.215  0.00  0.00    +0.000 A 
ATOM      7  C   UNL     1       4.566   4.388  15.793  0.00  0.00    +0.000 A 
ATOM      8  C   UNL     1       4.254   4.742  17.115  0.00  0.00    +0.000 A 
ATOM      9  C   UNL     1       5.171   5.510  17.843  0.00  0.00    +0.000 A 
ATOM     10  C   UNL     1       6.402   5.903  17.291  0.00  0.00    +0.000 A 
ATOM     11  C   UNL     1       7.348   6.713  18.130  0.00  0.00    +0.000 C 
ATOM     12  C   UNL     1       6.694   5.525  15.972  0.00  0.00    +0.000 A 
BRANCH   6  14
ATOM     13  C   UNL     1       5.287   3.586  13.216  0.00  0.00    +0.000 C 
ATOM     14  O   UNL     1       6.171   4.425  13.946  0.00  0.00    +0.000 OA
ENDBRANCH   6  14
BRANCH  12  15
ATOM     15  O   UNL     1       7.874   5.885  15.370  0.00  0.00    +0.000 OA
ATOM     16  H   UNL     1       8.480   5.132  15.350  0.00  0.00    +0.000 HD
ENDBRANCH  12  15
ENDBRANCH   4   8
ENDBRANCH   2   5
ENDBRANCH   1   2
BRANCH   1  17
ATOM     17  C   UNL     1       1.564   3.526  21.098  0.00  0.00    +0.000 C 
ATOM     18  O   UNL     1       2.181   3.301  22.139  0.00  0.00    +0.000 OA
BRANCH  17  19
ATOM     19  C   UNL     1       1.168   4.910  20.713  0.00  0.00    +0.000 C 
ATOM     20  C   UNL     1       1.975   5.942  21.004  0.00  0.00    +0.000 C 
BRANCH  20  21
ATOM     21  C   UNL     1       1.698   7.345  20.659  0.00  0.00    +0.000 A 
ATOM     22  C   UNL     1       1.830   7.836  19.354  0.00  0.00    +0.000 A 
ATOM     23  C   UNL     1       1.550   9.176  19.043  0.00  0.00    +0.000 A 
ATOM     24  C   UNL     1       1.727   9.647  17.629  0.00  0.00    +0.000 C 
ATOM     25  C   UNL     1       1.115  10.023  20.074  0.00  0.00    +0.000 A 
ATOM     26  C   UNL     1       0.949   9.548  21.386  0.00  0.00    +0.000 A 
ATOM     27  C   UNL     1       1.236   8.208  21.666  0.00  0.00    +0.000 A 
BRANCH  25  28
ATOM     28  O   UNL     1       0.834  11.346  19.838  0.00  0.00    +0.000 OA
ATOM     29  H   UNL     1      -0.076  11.543  20.096  0.00  0.00    +0.000 HD
ENDBRANCH  25  28
BRANCH  26  30
ATOM     30  O   UNL     1       0.510  10.463  22.310  0.00  0.00    +0.000 OA
ATOM     31  C   UNL     1      -0.796  10.290  22.841  0.00  0.00    +0.000 C 
ENDBRANCH  26  30
ENDBRANCH  20  21
ENDBRANCH  17  19
ENDBRANCH   1  17
TORSDOF 10
ENDMDL
MODEL 4
REMARK VINA RESULT:      -7.4      1.337      2.532
REMARK  Name = 
REMARK  14 active torsions:
REMARK  status: ('A' for Active; 'I' for Inactive)
REMARK    1  A    between atoms: C_1  and  O_2
REMARK    2  A    between atoms: O_2  and  C_3
REMARK    3  A    between atoms: C_5  and  C_6
REMARK    4  A    between atoms: C_7  and  C_8
REMARK    5  A    between atoms: C_8  and  C_10
REMARK    6  A    between atoms: C_10  and  C_11
REMARK    7  A    between atoms: C_11  and  C_13
REMARK    8  A    between atoms: C_14  and  C_15
REMARK    9  A    between atoms: C_17  and  C_18
REMARK   10  A    between atoms: C_19  and  O_20
REMARK   11  A    between atoms: C_21  and  O_22
REMARK   12  A    between atoms: O_22  and  C_23
REMARK   13  A    between atoms: C_26  and  C_27
REMARK   14  A    between atoms: C_28  and  O_29
REMARK                            x       y       z     vdW  Elec       q    Type
REMARK                         _______ _______ _______ _____ _____    ______ ____
ROOT
ATOM      1  C   UNL     1       1.870   2.996  19.998  0.00  0.00    +0.000 C 
ENDROOT
BRANCH   1   2
ATOM      2  C   UNL     1       2.689   4.187  20.413  0.00  0.00    +0.000 C 
ATOM      3  O   UNL     1       3.914   4.113  20.498  0.00  0.00    +0.000 OA
BRANCH   2   5
ATOM      4  C   UNL     1       2.274   6.591  20.109  0.00  0.00    +0.000 C 
ATOM      5  C   UNL     1       1.963   5.449  20.741  0.00  0.00    +0.000 C 
BRANCH   4   8
ATOM      6  C   UNL     1       0.951  10.062  19.477  0.00  0.00    +0.000 A 
ATOM      7  C   UNL     1       1.593   8.830  19.311  0.00  0.00    +0.000 A 
ATOM      8  C   UNL     1       1.614   7.885  20.347  0.00  0.00    +0.000 A 
ATOM      9  C   UNL     1       0.961   8.185  21.549  0.00  0.00    +0.000 A 
ATOM     10  C   UNL     1       0.317   9.418  21.747  0.00  0.00    +0.000 A 
ATOM     11  C   UNL     1      -0.352   9.685  23.064  0.00  0.00    +0.000 C 
ATOM     12  C   UNL     1       0.323  10.351  20.699  0.00  0.00    +0.000 A 
BRANCH   6  14
ATOM     13  C   UNL     1       2.185  11.615  18.165  0.00  0.00    +0.000 C 
ATOM     14  O   UNL     1       0.931  11.051  18.524  0.00  0.00    +0.000 OA
ENDBRANCH   6  14
BRANCH  12  15
ATOM     15  O   UNL     1      -0.296  11.569  20.823  0.00  0.00    +0.000 OA
ATOM     16  H   UNL     1      -0.363  11.997  19.959  0.00  0.00    +0.000 HD
ENDBRANCH  12  15
ENDBRANCH   4   8
ENDBRANCH   2   5
ENDBRANCH   1   2
BRANCH   1  17
ATOM     17  C   UNL     1       1.770   2.838  18.506  0.00  0.00    +0.000 C 
ATOM     18  O   UNL     1       0.687   2.615  17.962  0.00  0.00    +0.000 OA
BRANCH  17  19
ATOM     19  C   UNL     1       3.019   3.001  17.712  0.00  0.00    +0.000 C 
ATOM     20  C   UNL     1       3.349   4.207  17.224  0.00  0.00    +0.000 C 
BRANCH  20  21
ATOM     21  C   UNL     1       4.563   4.491  16.443  0.00  0.00    +0.000 A 
ATOM     22  C   UNL     1       4.784   3.939  15.174  0.00  0.00    +0.000 A 
ATOM     23  C   UNL     1       5.946   4.231  14.441  0.00  0.00    +0.000 A 
ATOM     24  C   UNL     1       6.134   3.596  13.094  0.00  0.00    +0.000 C 
ATOM     25  C   UNL     1       6.886   5.109  15.002  0.00  0.00    +0.000 A 
ATOM     26  C   UNL     1       6.674   5.696  16.261  0.00  0.00    +0.000 A 
ATOM     27  C   UNL     1       5.508   5.386  16.968  0.00  0.00    +0.000 A 
BRANCH  25  28
ATOM     28  O   UNL     1       8.045   5.427  14.340  0.00  0.00    +0.000 OA
ATOM     29  H   UNL     1       8.715   4.748  14.495  0.00  0.00    +0.000 HD
ENDBRANCH  25  28
BRANCH  26  30
ATOM     30  O   UNL     1       7.656   6.545  16.705  0.00  0.00    +0.000 OA
ATOM     31  C   UNL     1       7.265   7.636  17.527  0.00  0.00    +0.000 C 
ENDBRANCH  26  30
ENDBRANCH  20  21
ENDBRANCH  17  19
ENDBRANCH   1  17
TORSDOF 10
ENDMDL
MODEL 5
REMARK VINA RESULT:      -7.4      1.078      6.996
REMARK  Name = 
REMARK  14 active torsions:
REMARK  status: ('A' for Active; 'I' for Inactive)
REMARK    1  A    between atoms: C_1  and  O_2
REMARK    2  A    between atoms: O_2  and  C_3
REMARK    3  A    between atoms: C_5  and  C_6
REMARK    4  A    between atoms: C_7  and  C_8
REMARK    5  A    between atoms: C_8  and  C_10
REMARK    6  A    between atoms: C_10  and  C_11
REMARK    7  A    between atoms: C_11  and  C_13
REMARK    8  A    between atoms: C_14  and  C_15
REMARK    9  A    between atoms: C_17  and  C_18
REMARK   10  A    between atoms: C_19  and  O_20
REMARK   11  A    between atoms: C_21  and  O_22
REMARK   12  A    between atoms: O_22  and  C_23
REMARK   13  A    between atoms: C_26  and  C_27
REMARK   14  A    between atoms: C_28  and  O_29
REMARK                            x       y       z     vdW  Elec       q    Type
REMARK                         _______ _______ _______ _____ _____    ______ ____
ROOT
ATOM      1  C   UNL     1       1.640   2.219  20.282  0.00  0.00    +0.000 C 
ENDROOT
BRANCH   1   2
ATOM      2  C   UNL     1       1.617   2.629  18.834  0.00  0.00    +0.000 C 
ATOM      3  O   UNL     1       0.560   2.670  18.206  0.00  0.00    +0.000 OA
BRANCH   2   5
ATOM      4  C   UNL     1       3.022   4.026  17.379  0.00  0.00    +0.000 C 
ATOM      5  C   UNL     1       2.920   2.958  18.185  0.00  0.00    +0.000 C 
BRANCH   4   8
ATOM      6  C   UNL     1       6.319   5.744  16.769  0.00  0.00    +0.000 A 
ATOM      7  C   UNL     1       5.117   5.340  17.358  0.00  0.00    +0.000 A 
ATOM      8  C   UNL     1       4.259   4.446  16.700  0.00  0.00    +0.000 A 
ATOM      9  C   UNL     1       4.636   3.945  15.448  0.00  0.00    +0.000 A 
ATOM     10  C   UNL     1       5.832   4.342  14.829  0.00  0.00    +0.000 A 
ATOM     11  C   UNL     1       6.171   3.780  13.478  0.00  0.00    +0.000 C 
ATOM     12  C   UNL     1       6.665   5.248  15.502  0.00  0.00    +0.000 A 
BRANCH   6  14
ATOM     13  C   UNL     1       7.726   6.311  18.600  0.00  0.00    +0.000 C 
ATOM     14  O   UNL     1       7.183   6.651  17.333  0.00  0.00    +0.000 OA
ENDBRANCH   6  14
BRANCH  12  15
ATOM     15  O   UNL     1       7.852   5.668  14.957  0.00  0.00    +0.000 OA
ATOM     16  H   UNL     1       8.594   5.314  15.465  0.00  0.00    +0.000 HD
ENDBRANCH  12  15
ENDBRANCH   4   8
ENDBRANCH   2   5
ENDBRANCH   1   2
BRANCH   1  17
ATOM     17  C   UNL     1       2.412   3.169  21.153  0.00  0.00    +0.000 C 
ATOM     18  O   UNL     1       2.986   2.776  22.170  0.00  0.00    +0.000 OA
BRANCH  17  19
ATOM     19  C   UNL     1       2.489   4.593  20.720  0.00  0.00    +0.000 C 
ATOM     20  C   UNL     1       1.424   5.395  20.868  0.00  0.00    +0.000 C 
BRANCH  20  21
ATOM     21  C   UNL     1       1.389   6.818  20.494  0.00  0.00    +0.000 A 
ATOM     22  C   UNL     1       1.920   7.288  19.285  0.00  0.00    +0.000 A 
ATOM     23  C   UNL     1       1.867   8.648  18.942  0.00  0.00    +0.000 A 
ATOM     24  C   UNL     1       2.468   9.093  17.640  0.00  0.00    +0.000 C 
ATOM     25  C   UNL     1       1.253   9.539  19.835  0.00  0.00    +0.000 A 
ATOM     26  C   UNL     1       0.689   9.088  21.041  0.00  0.00    +0.000 A 
ATOM     27  C   UNL     1       0.757   7.727  21.357  0.00  0.00    +0.000 A 
BRANCH  25  28
ATOM     28  O   UNL     1       1.177  10.882  19.562  0.00  0.00    +0.000 OA
ATOM     29  H   UNL     1       1.993  11.182  19.139  0.00  0.00    +0.000 HD
ENDBRANCH  25  28
BRANCH  26  30
ATOM     30  O   UNL     1       0.106  10.046  21.832  0.00  0.00    +0.000 OA
ATOM     31  C   UNL     1      -0.214   9.693  23.170  0.00  0.00    +0.000 C 
ENDBRANCH  26  30
ENDBRANCH  20  21
ENDBRANCH  17  19
ENDBRANCH   1  17
TORSDOF 10
ENDMDL
MODEL 6
REMARK VINA RESULT:      -7.2      1.581      3.271
REMARK  Name = 
REMARK  14 active torsions:
REMARK  status: ('A' for Active; 'I' for Inactive)
REMARK    1  A    between atoms: C_1  and  O_2
REMARK    2  A    between atoms: O_2  and  C_3
REMARK    3  A    between atoms: C_5  and  C_6
REMARK    4  A    between atoms: C_7  and  C_8
REMARK    5  A    between atoms: C_8  and  C_10
REMARK    6  A    between atoms: C_10  and  C_11
REMARK    7  A    between atoms: C_11  and  C_13
REMARK    8  A    between atoms: C_14  and  C_15
REMARK    9  A    between atoms: C_17  and  C_18
REMARK   10  A    between atoms: C_19  and  O_20
REMARK   11  A    between atoms: C_21  and  O_22
REMARK   12  A    between atoms: O_22  and  C_23
REMARK   13  A    between atoms: C_26  and  C_27
REMARK   14  A    between atoms: C_28  and  O_29
REMARK                            x       y       z     vdW  Elec       q    Type
REMARK                         _______ _______ _______ _____ _____    ______ ____
ROOT
ATOM      1  C   UNL     1       1.515   3.666  19.644  0.00  0.00    +0.000 C 
ENDROOT
BRANCH   1   2
ATOM      2  C   UNL     1       2.011   4.252  20.938  0.00  0.00    +0.000 C 
ATOM      3  O   UNL     1       2.339   3.526  21.876  0.00  0.00    +0.000 OA
BRANCH   2   5
ATOM      4  C   UNL     1       1.050   6.489  20.601  0.00  0.00    +0.000 C 
ATOM      5  C   UNL     1       2.068   5.739  21.050  0.00  0.00    +0.000 C 
BRANCH   4   8
ATOM      6  C   UNL     1       0.527   9.951  21.996  0.00  0.00    +0.000 A 
ATOM      7  C   UNL     1       0.563   8.558  21.866  0.00  0.00    +0.000 A 
ATOM      8  C   UNL     1       0.999   7.958  20.675  0.00  0.00    +0.000 A 
ATOM      9  C   UNL     1       1.420   8.778  19.620  0.00  0.00    +0.000 A 
ATOM     10  C   UNL     1       1.384  10.179  19.720  0.00  0.00    +0.000 A 
ATOM     11  C   UNL     1       1.835  11.002  18.548  0.00  0.00    +0.000 C 
ATOM     12  C   UNL     1       0.931  10.753  20.917  0.00  0.00    +0.000 A 
BRANCH   6  14
ATOM     13  C   UNL     1      -1.337  10.790  23.210  0.00  0.00    +0.000 C 
ATOM     14  O   UNL     1       0.068  10.604  23.113  0.00  0.00    +0.000 OA
ENDBRANCH   6  14
BRANCH  12  15
ATOM     15  O   UNL     1       0.881  12.114  21.084  0.00  0.00    +0.000 OA
ATOM     16  H   UNL     1       0.926  12.555  20.225  0.00  0.00    +0.000 HD
ENDBRANCH  12  15
ENDBRANCH   4   8
ENDBRANCH   2   5
ENDBRANCH   1   2
BRANCH   1  17
ATOM     17  C   UNL     1       2.336   2.499  19.170  0.00  0.00    +0.000 C 
ATOM     18  O   UNL     1       2.018   1.343  19.451  0.00  0.00    +0.000 OA
BRANCH  17  19
ATOM     19  C   UNL     1       3.520   2.793  18.316  0.00  0.00    +0.000 C 
ATOM     20  C   UNL     1       3.574   3.939  17.618  0.00  0.00    +0.000 C 
BRANCH  20  21
ATOM     21  C   UNL     1       4.697   4.344  16.758  0.00  0.00    +0.000 A 
ATOM     22  C   UNL     1       4.876   3.829  15.467  0.00  0.00    +0.000 A 
ATOM     23  C   UNL     1       5.949   4.236  14.658  0.00  0.00    +0.000 A 
ATOM     24  C   UNL     1       6.096   3.636  13.290  0.00  0.00    +0.000 C 
ATOM     25  C   UNL     1       6.843   5.191  15.167  0.00  0.00    +0.000 A 
ATOM     26  C   UNL     1       6.669   5.742  16.448  0.00  0.00    +0.000 A 
ATOM     27  C   UNL     1       5.591   5.317  17.231  0.00  0.00    +0.000 A 
BRANCH  25  28
ATOM     28  O   UNL     1       7.916   5.624  14.429  0.00  0.00    +0.000 OA
ATOM     29  H   UNL     1       8.327   6.387  14.857  0.00  0.00    +0.000 HD
ENDBRANCH  25  28
BRANCH  26  30
ATOM     30  O   UNL     1       7.598   6.674  16.836  0.00  0.00    +0.000 OA
ATOM     31  C   UNL     1       7.777   6.890  18.228  0.00  0.00    +0.000 C 
ENDBRANCH  26  30
ENDBRANCH  20  21
ENDBRANCH  17  19
ENDBRANCH   1  17
TORSDOF 10
ENDMDL
MODEL 7
REMARK VINA RESULT:      -7.1      0.952      6.913
REMARK  Name = 
REMARK  14 active torsions:
REMARK  status: ('A' for Active; 'I' for Inactive)
REMARK    1  A    between atoms: C_1  and  O_2
REMARK    2  A    between atoms: O_2  and  C_3
REMARK    3  A    between atoms: C_5  and  C_6
REMARK    4  A    between atoms: C_7  and  C_8
REMARK    5  A    between atoms: C_8  and  C_10
REMARK    6  A    between atoms: C_10  and  C_11
REMARK    7  A    between atoms: C_11  and  C_13
REMARK    8  A    between atoms: C_14  and  C_15
REMARK    9  A    between atoms: C_17  and  C_18
REMARK   10  A    between atoms: C_19  and  O_20
REMARK   11  A    between atoms: C_21  and  O_22
REMARK   12  A    between atoms: O_22  and  C_23
REMARK   13  A    between atoms: C_26  and  C_27
REMARK   14  A    between atoms: C_28  and  O_29
REMARK                            x       y       z     vdW  Elec       q    Type
REMARK                         _______ _______ _______ _____ _____    ______ ____
ROOT
ATOM      1  C   UNL     1       3.092   2.549  20.769  0.00  0.00    +0.000 C 
ENDROOT
BRANCH   1   2
ATOM      2  C   UNL     1       2.754   2.183  19.350  0.00  0.00    +0.000 C 
ATOM      3  O   UNL     1       1.758   1.508  19.092  0.00  0.00    +0.000 OA
BRANCH   2   5
ATOM      4  C   UNL     1       4.352   3.797  18.410  0.00  0.00    +0.000 C 
ATOM      5  C   UNL     1       3.679   2.643  18.274  0.00  0.00    +0.000 C 
BRANCH   4   8
ATOM      6  C   UNL     1       6.274   4.177  15.190  0.00  0.00    +0.000 A 
ATOM      7  C   UNL     1       5.414   3.686  16.179  0.00  0.00    +0.000 A 
ATOM      8  C   UNL     1       5.296   4.335  17.417  0.00  0.00    +0.000 A 
ATOM      9  C   UNL     1       6.039   5.500  17.642  0.00  0.00    +0.000 A 
ATOM     10  C   UNL     1       6.918   6.009  16.672  0.00  0.00    +0.000 A 
ATOM     11  C   UNL     1       7.698   7.255  16.981  0.00  0.00    +0.000 C 
ATOM     12  C   UNL     1       7.027   5.333  15.448  0.00  0.00    +0.000 A 
BRANCH   6  14
ATOM     13  C   UNL     1       5.422   3.674  13.028  0.00  0.00    +0.000 C 
ATOM     14  O   UNL     1       6.474   3.567  13.977  0.00  0.00    +0.000 OA
ENDBRANCH   6  14
BRANCH  12  15
ATOM     15  O   UNL     1       7.859   5.784  14.454  0.00  0.00    +0.000 OA
ATOM     16  H   UNL     1       7.538   5.486  13.592  0.00  0.00    +0.000 HD
ENDBRANCH  12  15
ENDBRANCH   4   8
ENDBRANCH   2   5
ENDBRANCH   1   2
BRANCH   1  17
ATOM     17  C   UNL     1       1.904   3.027  21.556  0.00  0.00    +0.000 C 
ATOM     18  O   UNL     1       1.318   2.279  22.340  0.00  0.00    +0.000 OA
BRANCH  17  19
ATOM     19  C   UNL     1       1.489   4.447  21.382  0.00  0.00    +0.000 C 
ATOM     20  C   UNL     1       2.148   5.235  20.518  0.00  0.00    +0.000 C 
BRANCH  20  21
ATOM     21  C   UNL     1       1.818   6.644  20.250  0.00  0.00    +0.000 A 
ATOM     22  C   UNL     1       2.267   7.314  19.105  0.00  0.00    +0.000 A 
ATOM     23  C   UNL     1       1.931   8.656  18.863  0.00  0.00    +0.000 A 
ATOM     24  C   UNL     1       2.456   9.326  17.626  0.00  0.00    +0.000 C 
ATOM     25  C   UNL     1       1.116   9.319  19.794  0.00  0.00    +0.000 A 
ATOM     26  C   UNL     1       0.632   8.660  20.937  0.00  0.00    +0.000 A 
ATOM     27  C   UNL     1       0.982   7.323  21.151  0.00  0.00    +0.000 A 
BRANCH  25  28
ATOM     28  O   UNL     1       0.760  10.633  19.620  0.00  0.00    +0.000 OA
ATOM     29  H   UNL     1       0.129  10.900  20.302  0.00  0.00    +0.000 HD
ENDBRANCH  25  28
BRANCH  26  30
ATOM     30  O   UNL     1      -0.165   9.403  21.771  0.00  0.00    +0.000 OA
ATOM     31  C   UNL     1       0.204   9.483  23.140  0.00  0.00    +0.000 C 
ENDBRANCH  26  30
ENDBRANCH  20  21
ENDBRANCH  17  19
ENDBRANCH   1  17
TORSDOF 10
ENDMDL
MODEL 8
REMARK VINA RESULT:      -7.0      4.758      9.693
REMARK  Name = 
REMARK  14 active torsions:
REMARK  status: ('A' for Active; 'I' for Inactive)
REMARK    1  A    between atoms: C_1  and  O_2
REMARK    2  A    between atoms: O_2  and  C_3
REMARK    3  A    between atoms: C_5  and  C_6
REMARK    4  A    between atoms: C_7  and  C_8
REMARK    5  A    between atoms: C_8  and  C_10
REMARK    6  A    between atoms: C_10  and  C_11
REMARK    7  A    between atoms: C_11  and  C_13
REMARK    8  A    between atoms: C_14  and  C_15
REMARK    9  A    between atoms: C_17  and  C_18
REMARK   10  A    between atoms: C_19  and  O_20
REMARK   11  A    between atoms: C_21  and  O_22
REMARK   12  A    between atoms: O_22  and  C_23
REMARK   13  A    between atoms: C_26  and  C_27
REMARK   14  A    between atoms: C_28  and  O_29
REMARK                            x       y       z     vdW  Elec       q    Type
REMARK                         _______ _______ _______ _____ _____    ______ ____
ROOT
ATOM      1  C   UNL     1       0.172   9.862  18.312  0.00  0.00    +0.000 C 
ENDROOT
BRANCH   1   2
ATOM      2  C   UNL     1       1.633   9.557  18.121  0.00  0.00    +0.000 C 
ATOM      3  O   UNL     1       2.371  10.343  17.529  0.00  0.00    +0.000 OA
BRANCH   2   5
ATOM      4  C   UNL     1       2.719   7.372  17.824  0.00  0.00    +0.000 C 
ATOM      5  C   UNL     1       2.146   8.259  18.651  0.00  0.00    +0.000 C 
BRANCH   4   8
ATOM      6  C   UNL     1       5.224   4.742  18.829  0.00  0.00    +0.000 A 
ATOM      7  C   UNL     1       4.657   5.948  18.401  0.00  0.00    +0.000 A 
ATOM      8  C   UNL     1       3.268   6.072  18.243  0.00  0.00    +0.000 A 
ATOM      9  C   UNL     1       2.453   4.973  18.541  0.00  0.00    +0.000 A 
ATOM     10  C   UNL     1       2.997   3.748  18.961  0.00  0.00    +0.000 A 
ATOM     11  C   UNL     1       2.069   2.603  19.250  0.00  0.00    +0.000 C 
ATOM     12  C   UNL     1       4.389   3.646  19.098  0.00  0.00    +0.000 A 
BRANCH   6  14
ATOM     13  C   UNL     1       7.366   5.670  19.284  0.00  0.00    +0.000 C 
ATOM     14  O   UNL     1       6.575   4.535  18.960  0.00  0.00    +0.000 OA
ENDBRANCH   6  14
BRANCH  12  15
ATOM     15  O   UNL     1       4.983   2.482  19.515  0.00  0.00    +0.000 OA
ATOM     16  H   UNL     1       5.694   2.677  20.141  0.00  0.00    +0.000 HD
ENDBRANCH  12  15
ENDBRANCH   4   8
ENDBRANCH   2   5
ENDBRANCH   1   2
BRANCH   1  17
ATOM     17  C   UNL     1      -0.076  10.974  19.293  0.00  0.00    +0.000 C 
ATOM     18  O   UNL     1      -0.284  10.736  20.484  0.00  0.00    +0.000 OA
BRANCH  17  19
ATOM     19  C   UNL     1      -0.021  12.371  18.779  0.00  0.00    +0.000 C 
ATOM     20  C   UNL     1       0.831  13.252  19.325  0.00  0.00    +0.000 C 
BRANCH  20  21
ATOM     21  C   UNL     1       0.985  14.648  18.889  0.00  0.00    +0.000 A 
ATOM     22  C   UNL     1      -0.103  15.525  18.784  0.00  0.00    +0.000 A 
ATOM     23  C   UNL     1       0.067  16.858  18.376  0.00  0.00    +0.000 A 
ATOM     24  C   UNL     1      -1.140  17.744  18.268  0.00  0.00    +0.000 C 
ATOM     25  C   UNL     1       1.364  17.306  18.084  0.00  0.00    +0.000 A 
ATOM     26  C   UNL     1       2.474  16.454  18.207  0.00  0.00    +0.000 A 
ATOM     27  C   UNL     1       2.275  15.131  18.616  0.00  0.00    +0.000 A 
BRANCH  25  28
ATOM     28  O   UNL     1       1.595  18.595  17.672  0.00  0.00    +0.000 OA
ATOM     29  H   UNL     1       1.922  19.127  18.410  0.00  0.00    +0.000 HD
ENDBRANCH  25  28
BRANCH  26  30
ATOM     30  O   UNL     1       3.695  17.003  17.905  0.00  0.00    +0.000 OA
ATOM     31  C   UNL     1       4.757  16.801  18.827  0.00  0.00    +0.000 C 
ENDBRANCH  26  30
ENDBRANCH  20  21
ENDBRANCH  17  19
ENDBRANCH   1  17
TORSDOF 10
ENDMDL
MODEL 9
REMARK VINA RESULT:      -7.0      1.447      3.160
REMARK  Name = 
REMARK  14 active torsions:
REMARK  status: ('A' for Active; 'I' for Inactive)
REMARK    1  A    between atoms: C_1  and  O_2
REMARK    2  A    between atoms: O_2  and  C_3
REMARK    3  A    between atoms: C_5  and  C_6
REMARK    4  A    between atoms: C_7  and  C_8
REMARK    5  A    between atoms: C_8  and  C_10
REMARK    6  A    between atoms: C_10  and  C_11
REMARK    7  A    between atoms: C_11  and  C_13
REMARK    8  A    between atoms: C_14  and  C_15
REMARK    9  A    between atoms: C_17  and  C_18
REMARK   10  A    between atoms: C_19  and  O_20
REMARK   11  A    between atoms: C_21  and  O_22
REMARK   12  A    between atoms: O_22  and  C_23
REMARK   13  A    between atoms: C_26  and  C_27
REMARK   14  A    between atoms: C_28  and  O_29
REMARK                            x       y       z     vdW  Elec       q    Type
REMARK                         _______ _______ _______ _____ _____    ______ ____
ROOT
ATOM      1  C   UNL     1       1.133   3.446  20.303  0.00  0.00    +0.000 C 
ENDROOT
BRANCH   1   2
ATOM      2  C   UNL     1       2.071   4.546  20.721  0.00  0.00    +0.000 C 
ATOM      3  O   UNL     1       3.236   4.299  21.029  0.00  0.00    +0.000 OA
BRANCH   2   5
ATOM      4  C   UNL     1       2.021   6.880  19.954  0.00  0.00    +0.000 C 
ATOM      5  C   UNL     1       1.532   5.936  20.773  0.00  0.00    +0.000 C 
BRANCH   4   8
ATOM      6  C   UNL     1       0.217  10.041  20.933  0.00  0.00    +0.000 A 
ATOM      7  C   UNL     1       0.666   8.716  20.908  0.00  0.00    +0.000 A 
ATOM      8  C   UNL     1       1.553   8.276  19.915  0.00  0.00    +0.000 A 
ATOM      9  C   UNL     1       2.002   9.192  18.955  0.00  0.00    +0.000 A 
ATOM     10  C   UNL     1       1.560  10.525  18.950  0.00  0.00    +0.000 A 
ATOM     11  C   UNL     1       2.068  11.454  17.885  0.00  0.00    +0.000 C 
ATOM     12  C   UNL     1       0.662  10.936  19.946  0.00  0.00    +0.000 A 
BRANCH   6  14
ATOM     13  C   UNL     1      -0.558  10.061  23.180  0.00  0.00    +0.000 C 
ATOM     14  O   UNL     1      -0.686  10.528  21.845  0.00  0.00    +0.000 OA
ENDBRANCH   6  14
BRANCH  12  15
ATOM     15  O   UNL     1       0.200  12.227  20.004  0.00  0.00    +0.000 OA
ATOM     16  H   UNL     1       0.940  12.839  20.115  0.00  0.00    +0.000 HD
ENDBRANCH  12  15
ENDBRANCH   4   8
ENDBRANCH   2   5
ENDBRANCH   1   2
BRANCH   1  17
ATOM     17  C   UNL     1       1.307   3.033  18.868  0.00  0.00    +0.000 C 
ATOM     18  O   UNL     1       0.584   2.175  18.362  0.00  0.00    +0.000 OA
BRANCH  17  19
ATOM     19  C   UNL     1       2.357   3.730  18.075  0.00  0.00    +0.000 C 
ATOM     20  C   UNL     1       3.511   3.104  17.796  0.00  0.00    +0.000 C 
BRANCH  20  21
ATOM     21  C   UNL     1       4.610   3.684  17.008  0.00  0.00    +0.000 A 
ATOM     22  C   UNL     1       4.690   3.543  15.616  0.00  0.00    +0.000 A 
ATOM     23  C   UNL     1       5.742   4.114  14.882  0.00  0.00    +0.000 A 
ATOM     24  C   UNL     1       5.782   3.914  13.395  0.00  0.00    +0.000 C 
ATOM     25  C   UNL     1       6.716   4.850  15.573  0.00  0.00    +0.000 A 
ATOM     26  C   UNL     1       6.642   5.029  16.965  0.00  0.00    +0.000 A 
ATOM     27  C   UNL     1       5.583   4.448  17.671  0.00  0.00    +0.000 A 
BRANCH  25  28
ATOM     28  O   UNL     1       7.773   5.426  14.914  0.00  0.00    +0.000 OA
ATOM     29  H   UNL     1       7.566   6.343  14.689  0.00  0.00    +0.000 HD
ENDBRANCH  25  28
BRANCH  26  30
ATOM     30  O   UNL     1       7.644   5.776  17.533  0.00  0.00    +0.000 OA
ATOM     31  C   UNL     1       7.403   7.161  17.734  0.00  0.00    +0.000 C 
ENDBRANCH  26  30
ENDBRANCH  20  21
ENDBRANCH  17  19
ENDBRANCH   1  17
TORSDOF 10
ENDMDL
