MODEL 1
REMARK VINA RESULT:      -8.5      0.000      0.000
REMARK  Name = 
REMARK  8 active torsions:
REMARK  status: ('A' for Active; 'I' for Inactive)
REMARK    1  A    between atoms: C_1  and  C_2
REMARK    2  A    between atoms: C_7  and  N_8
REMARK    3  A    between atoms: N_11  and  C_12
REMARK    4  A    between atoms: C_12  and  C_13
REMARK    5  A    between atoms: C_13  and  C_14
REMARK    6  A    between atoms: C_14  and  C_15
REMARK    7  A    between atoms: C_15  and  O_16
REMARK    8  A    between atoms: O_16  and  C_17
REMARK                            x       y       z     vdW  Elec       q    Type
REMARK                         _______ _______ _______ _____ _____    ______ ____
ROOT
ATOM      1  C   UNL     1       7.844   7.455  18.048  0.00  0.00    +0.000 C 
ENDROOT
BRANCH   1   2
ATOM      2  C   UNL     1       7.444   6.643  16.804  0.00  0.00    +0.000 C 
BRANCH   2   6
ATOM      3  N   UNL     1       4.778   4.387  17.682  0.00  0.00    +0.000 N 
ATOM      4  C   UNL     1       5.619   5.016  18.706  0.00  0.00    +0.000 C 
ATOM      5  C   UNL     1       7.116   4.804  18.390  0.00  0.00    +0.000 C 
ATOM      6  N   UNL     1       7.526   5.192  17.019  0.00  0.00    +0.000 NA
ATOM      7  C   UNL     1       6.655   4.456  16.070  0.00  0.00    +0.000 C 
ATOM      8  C   UNL     1       5.138   4.675  16.284  0.00  0.00    +0.000 C 
BRANCH   3  15
ATOM      9  C   UNL     1       2.207   5.937  18.175  0.00  0.00    +0.000 C 
ATOM     10  C   UNL     1       2.372   4.442  18.279  0.00  0.00    +0.000 A 
ATOM     11  C   UNL     1       1.230   3.706  18.662  0.00  0.00    +0.000 A 
ATOM     12  C   UNL     1       1.247   2.315  18.713  0.00  0.00    +0.000 A 
ATOM     13  C   UNL     1       2.409   1.637  18.390  0.00  0.00    +0.000 A 
ATOM     14  C   UNL     1       3.553   2.356  18.040  0.00  0.00    +0.000 A 
ATOM     15  C   UNL     1       3.577   3.766  17.983  0.00  0.00    +0.000 A 
ENDBRANCH   3  15
ENDBRANCH   2   6
ENDBRANCH   1   2
BRANCH   1  16
ATOM     16  C   UNL     1       7.826   8.977  17.836  0.00  0.00    +0.000 C 
BRANCH  16  17
ATOM     17  C   UNL     1       8.907   9.625  18.689  0.00  0.00    +0.000 C 
BRANCH  17  18
ATOM     18  O   UNL     1       9.730  10.529  17.946  0.00  0.00    +0.000 OA
BRANCH  18  19
ATOM     19  C   UNL     1      10.065  11.637  18.690  0.00  0.00    +0.000 A 
ATOM     20  C   UNL     1      10.211  11.607  20.082  0.00  0.00    +0.000 A 
ATOM     21  C   UNL     1      10.466  12.773  20.790  0.00  0.00    +0.000 A 
ATOM     22  C   UNL     1      10.619  13.989  20.121  0.00  0.00    +0.000 A 
ATOM     23  C   UNL     1      10.537  14.008  18.730  0.00  0.00    +0.000 A 
ATOM     24  C   UNL     1      10.261  12.836  18.009  0.00  0.00    +0.000 A 
ATOM     25  N   UNL     1      10.729  15.209  18.046  0.00  0.00    +0.000 N 
ATOM     26  C   UNL     1      11.022  16.405  18.624  0.00  0.00    +0.000 C 
ATOM     27  O   UNL     1      11.212  17.400  17.922  0.00  0.00    +0.000 OA
ATOM     28  C   UNL     1      11.125  16.490  20.127  0.00  0.00    +0.000 C 
ATOM     29  C   UNL     1      10.828  15.229  20.920  0.00  0.00    +0.000 C 
ATOM     30  H   UNL     1      10.682  15.219  17.034  0.00  0.00    +0.000 HD
ENDBRANCH  18  19
ENDBRANCH  17  18
ENDBRANCH  16  17
ENDBRANCH   1  16
TORSDOF 7
ENDMDL
MODEL 2
REMARK VINA RESULT:      -8.4      1.530      1.855
REMARK  Name = 
REMARK  8 active torsions:
REMARK  status: ('A' for Active; 'I' for Inactive)
REMARK    1  A    between atoms: C_1  and  C_2
REMARK    2  A    between atoms: C_7  and  N_8
REMARK    3  A    between atoms: N_11  and  C_12
REMARK    4  A    between atoms: C_12  and  C_13
REMARK    5  A    between atoms: C_13  and  C_14
REMARK    6  A    between atoms: C_14  and  C_15
REMARK    7  A    between atoms: C_15  and  O_16
REMARK    8  A    between atoms: O_16  and  C_17
REMARK                            x       y       z     vdW  Elec       q    Type
REMARK                         _______ _______ _______ _____ _____    ______ ____
ROOT
ATOM      1  C   UNL     1       6.915   7.744  17.581  0.00  0.00    +0.000 C 
ENDROOT
BRANCH   1   2
ATOM      2  C   UNL     1       6.804   6.289  17.092  0.00  0.00    +0.000 C 
BRANCH   2   6
ATOM      3  N   UNL     1       3.953   4.583  18.483  0.00  0.00    +0.000 N 
ATOM      4  C   UNL     1       4.983   3.864  17.725  0.00  0.00    +0.000 C 
ATOM      5  C   UNL     1       5.240   4.549  16.365  0.00  0.00    +0.000 C 
ATOM      6  N   UNL     1       5.518   6.003  16.440  0.00  0.00    +0.000 NA
ATOM      7  C   UNL     1       4.392   6.635  17.170  0.00  0.00    +0.000 C 
ATOM      8  C   UNL     1       4.119   6.043  18.573  0.00  0.00    +0.000 C 
BRANCH   3  15
ATOM      9  C   UNL     1       1.094   4.077  17.577  0.00  0.00    +0.000 C 
ATOM     10  C   UNL     1       1.669   3.727  18.925  0.00  0.00    +0.000 A 
ATOM     11  C   UNL     1       0.786   3.132  19.852  0.00  0.00    +0.000 A 
ATOM     12  C   UNL     1       1.229   2.696  21.098  0.00  0.00    +0.000 A 
ATOM     13  C   UNL     1       2.560   2.857  21.442  0.00  0.00    +0.000 A 
ATOM     14  C   UNL     1       3.434   3.473  20.545  0.00  0.00    +0.000 A 
ATOM     15  C   UNL     1       3.022   3.933  19.275  0.00  0.00    +0.000 A 
ENDBRANCH   3  15
ENDBRANCH   2   6
ENDBRANCH   1   2
BRANCH   1  16
ATOM     16  C   UNL     1       8.352   8.289  17.605  0.00  0.00    +0.000 C 
BRANCH  16  17
ATOM     17  C   UNL     1       8.335   9.758  18.000  0.00  0.00    +0.000 C 
BRANCH  17  18
ATOM     18  O   UNL     1       8.843   9.982  19.319  0.00  0.00    +0.000 OA
BRANCH  18  19
ATOM     19  C   UNL     1       9.651  11.094  19.369  0.00  0.00    +0.000 A 
ATOM     20  C   UNL     1      10.563  11.330  20.405  0.00  0.00    +0.000 A 
ATOM     21  C   UNL     1      11.291  12.511  20.449  0.00  0.00    +0.000 A 
ATOM     22  C   UNL     1      11.155  13.465  19.438  0.00  0.00    +0.000 A 
ATOM     23  C   UNL     1      10.295  13.201  18.374  0.00  0.00    +0.000 A 
ATOM     24  C   UNL     1       9.542  12.018  18.333  0.00  0.00    +0.000 A 
ATOM     25  N   UNL     1      10.180  14.128  17.337  0.00  0.00    +0.000 N 
ATOM     26  C   UNL     1      10.868  15.298  17.248  0.00  0.00    +0.000 C 
ATOM     27  O   UNL     1      10.720  16.028  16.266  0.00  0.00    +0.000 OA
ATOM     28  C   UNL     1      11.820  15.678  18.356  0.00  0.00    +0.000 C 
ATOM     29  C   UNL     1      11.905  14.748  19.553  0.00  0.00    +0.000 C 
ATOM     30  H   UNL     1       9.565  13.930  16.558  0.00  0.00    +0.000 HD
ENDBRANCH  18  19
ENDBRANCH  17  18
ENDBRANCH  16  17
ENDBRANCH   1  16
TORSDOF 7
ENDMDL
MODEL 3
REMARK VINA RESULT:      -8.4      2.587      3.480
REMARK  Name = 
REMARK  8 active torsions:
REMARK  status: ('A' for Active; 'I' for Inactive)
REMARK    1  A    between atoms: C_1  and  C_2
REMARK    2  A    between atoms: C_7  and  N_8
REMARK    3  A    between atoms: N_11  and  C_12
REMARK    4  A    between atoms: C_12  and  C_13
REMARK    5  A    between atoms: C_13  and  C_14
REMARK    6  A    between atoms: C_14  and  C_15
REMARK    7  A    between atoms: C_15  and  O_16
REMARK    8  A    between atoms: O_16  and  C_17
REMARK                            x       y       z     vdW  Elec       q    Type
REMARK                         _______ _______ _______ _____ _____    ______ ____
ROOT
ATOM      1  C   UNL     1       7.990   7.657  18.173  0.00  0.00    +0.000 C 
ENDROOT
BRANCH   1   2
ATOM      2  C   UNL     1       6.692   7.307  17.425  0.00  0.00    +0.000 C 
BRANCH   2   6
ATOM      3  N   UNL     1       4.220   4.948  18.565  0.00  0.00    +0.000 N 
ATOM      4  C   UNL     1       5.490   5.131  19.275  0.00  0.00    +0.000 C 
ATOM      5  C   UNL     1       6.683   5.018  18.300  0.00  0.00    +0.000 C 
ATOM      6  N   UNL     1       6.590   5.878  17.096  0.00  0.00    +0.000 NA
ATOM      7  C   UNL     1       5.303   5.569  16.427  0.00  0.00    +0.000 C 
ATOM      8  C   UNL     1       4.054   5.727  17.327  0.00  0.00    +0.000 C 
BRANCH   3  15
ATOM      9  C   UNL     1       3.659   1.999  18.071  0.00  0.00    +0.000 C 
ATOM     10  C   UNL     1       2.804   2.938  18.883  0.00  0.00    +0.000 A 
ATOM     11  C   UNL     1       1.626   2.396  19.441  0.00  0.00    +0.000 A 
ATOM     12  C   UNL     1       0.803   3.151  20.273  0.00  0.00    +0.000 A 
ATOM     13  C   UNL     1       1.140   4.464  20.553  0.00  0.00    +0.000 A 
ATOM     14  C   UNL     1       2.285   5.019  19.980  0.00  0.00    +0.000 A 
ATOM     15  C   UNL     1       3.141   4.288  19.128  0.00  0.00    +0.000 A 
ENDBRANCH   3  15
ENDBRANCH   2   6
ENDBRANCH   1   2
BRANCH   1  16
ATOM     16  C   UNL     1       8.534   9.061  17.863  0.00  0.00    +0.000 C 
BRANCH  16  17
ATOM     17  C   UNL     1       9.017   9.718  19.147  0.00  0.00    +0.000 C 
BRANCH  17  18
ATOM     18  O   UNL     1       9.772  10.909  18.910  0.00  0.00    +0.000 OA
BRANCH  18  19
ATOM     19  C   UNL     1       9.578  11.839  19.905  0.00  0.00    +0.000 A 
ATOM     20  C   UNL     1       9.845  13.203  19.738  0.00  0.00    +0.000 A 
ATOM     21  C   UNL     1       9.713  14.083  20.804  0.00  0.00    +0.000 A 
ATOM     22  C   UNL     1       9.274  13.627  22.049  0.00  0.00    +0.000 A 
ATOM     23  C   UNL     1       8.947  12.281  22.197  0.00  0.00    +0.000 A 
ATOM     24  C   UNL     1       9.097  11.383  21.129  0.00  0.00    +0.000 A 
ATOM     25  N   UNL     1       8.469  11.820  23.424  0.00  0.00    +0.000 N 
ATOM     26  C   UNL     1       8.261  12.591  24.526  0.00  0.00    +0.000 C 
ATOM     27  O   UNL     1       7.796  12.088  25.551  0.00  0.00    +0.000 OA
ATOM     28  C   UNL     1       8.591  14.062  24.468  0.00  0.00    +0.000 C 
ATOM     29  C   UNL     1       9.206  14.589  23.185  0.00  0.00    +0.000 C 
ATOM     30  H   UNL     1       8.220  10.844  23.527  0.00  0.00    +0.000 HD
ENDBRANCH  18  19
ENDBRANCH  17  18
ENDBRANCH  16  17
ENDBRANCH   1  16
TORSDOF 7
ENDMDL
MODEL 4
REMARK VINA RESULT:      -8.3      2.871     11.824
REMARK  Name = 
REMARK  8 active torsions:
REMARK  status: ('A' for Active; 'I' for Inactive)
REMARK    1  A    between atoms: C_1  and  C_2
REMARK    2  A    between atoms: C_7  and  N_8
REMARK    3  A    between atoms: N_11  and  C_12
REMARK    4  A    between atoms: C_12  and  C_13
REMARK    5  A    between atoms: C_13  and  C_14
REMARK    6  A    between atoms: C_14  and  C_15
REMARK    7  A    between atoms: C_15  and  O_16
REMARK    8  A    between atoms: O_16  and  C_17
REMARK                            x       y       z     vdW  Elec       q    Type
REMARK                         _______ _______ _______ _____ _____    ______ ____
ROOT
ATOM      1  C   UNL     1       8.184   9.257  17.903  0.00  0.00    +0.000 C 
ENDROOT
BRANCH   1   2
ATOM      2  C   UNL     1       9.016  10.102  18.883  0.00  0.00    +0.000 C 
BRANCH   2   6
ATOM      3  N   UNL     1      10.091  13.303  20.139  0.00  0.00    +0.000 N 
ATOM      4  C   UNL     1       8.868  13.163  19.342  0.00  0.00    +0.000 C 
ATOM      5  C   UNL     1       9.153  12.396  18.032  0.00  0.00    +0.000 C 
ATOM      6  N   UNL     1       9.854  11.102  18.205  0.00  0.00    +0.000 NA
ATOM      7  C   UNL     1      11.099  11.368  18.968  0.00  0.00    +0.000 C 
ATOM      8  C   UNL     1      10.883  12.076  20.327  0.00  0.00    +0.000 C 
BRANCH   3  15
ATOM      9  C   UNL     1      12.022  15.451  19.185  0.00  0.00    +0.000 C 
ATOM     10  C   UNL     1      11.304  15.433  20.510  0.00  0.00    +0.000 A 
ATOM     11  C   UNL     1      11.576  16.503  21.390  0.00  0.00    +0.000 A 
ATOM     12  C   UNL     1      10.910  16.630  22.605  0.00  0.00    +0.000 A 
ATOM     13  C   UNL     1       9.966  15.683  22.966  0.00  0.00    +0.000 A 
ATOM     14  C   UNL     1       9.713  14.604  22.118  0.00  0.00    +0.000 A 
ATOM     15  C   UNL     1      10.372  14.438  20.880  0.00  0.00    +0.000 A 
ENDBRANCH   3  15
ENDBRANCH   2   6
ENDBRANCH   1   2
BRANCH   1  16
ATOM     16  C   UNL     1       8.135   7.760  18.252  0.00  0.00    +0.000 C 
BRANCH  16  17
ATOM     17  C   UNL     1       7.352   7.012  17.184  0.00  0.00    +0.000 C 
BRANCH  17  18
ATOM     18  O   UNL     1       5.952   7.305  17.217  0.00  0.00    +0.000 OA
BRANCH  18  19
ATOM     19  C   UNL     1       5.196   6.157  17.286  0.00  0.00    +0.000 A 
ATOM     20  C   UNL     1       5.411   5.050  16.457  0.00  0.00    +0.000 A 
ATOM     21  C   UNL     1       4.563   3.952  16.512  0.00  0.00    +0.000 A 
ATOM     22  C   UNL     1       3.506   3.919  17.424  0.00  0.00    +0.000 A 
ATOM     23  C   UNL     1       3.332   4.994  18.294  0.00  0.00    +0.000 A 
ATOM     24  C   UNL     1       4.173   6.114  18.230  0.00  0.00    +0.000 A 
ATOM     25  N   UNL     1       2.304   4.956  19.237  0.00  0.00    +0.000 N 
ATOM     26  C   UNL     1       1.437   3.922  19.414  0.00  0.00    +0.000 C 
ATOM     27  O   UNL     1       0.589   3.975  20.306  0.00  0.00    +0.000 OA
ATOM     28  C   UNL     1       1.540   2.714  18.515  0.00  0.00    +0.000 C 
ATOM     29  C   UNL     1       2.579   2.752  17.410  0.00  0.00    +0.000 C 
ATOM     30  H   UNL     1       2.186   5.731  19.877  0.00  0.00    +0.000 HD
ENDBRANCH  18  19
ENDBRANCH  17  18
ENDBRANCH  16  17
ENDBRANCH   1  16
TORSDOF 7
ENDMDL
MODEL 5
REMARK VINA RESULT:      -8.2      1.609      2.141
REMARK  Name = 
REMARK  8 active torsions:
REMARK  status: ('A' for Active; 'I' for Inactive)
REMARK    1  A    between atoms: C_1  and  C_2
REMARK    2  A    between atoms: C_7  and  N_8
REMARK    3  A    between atoms: N_11  and  C_12
REMARK    4  A    between atoms: C_12  and  C_13
REMARK    5  A    between atoms: C_13  and  C_14
REMARK    6  A    between atoms: C_14  and  C_15
REMARK    7  A    between atoms: C_15  and  O_16
REMARK    8  A    between atoms: O_16  and  C_17
REMARK                            x       y       z     vdW  Elec       q    Type
REMARK                         _______ _______ _______ _____ _____    ______ ____
ROOT
ATOM      1  C   UNL     1       7.672   7.068  17.795  0.00  0.00    +0.000 C 
ENDROOT
BRANCH   1   2
ATOM      2  C   UNL     1       7.083   6.297  16.601  0.00  0.00    +0.000 C 
BRANCH   2   6
ATOM      3  N   UNL     1       4.497   4.573  18.420  0.00  0.00    +0.000 N 
ATOM      4  C   UNL     1       5.728   5.022  19.078  0.00  0.00    +0.000 C 
ATOM      5  C   UNL     1       6.972   4.537  18.302  0.00  0.00    +0.000 C 
ATOM      6  N   UNL     1       6.968   4.854  16.854  0.00  0.00    +0.000 NA
ATOM      7  C   UNL     1       5.714   4.304  16.282  0.00  0.00    +0.000 C 
ATOM      8  C   UNL     1       4.420   4.801  16.968  0.00  0.00    +0.000 C 
BRANCH   3  15
ATOM      9  C   UNL     1       3.452   1.716  18.412  0.00  0.00    +0.000 C 
ATOM     10  C   UNL     1       2.813   2.888  19.110  0.00  0.00    +0.000 A 
ATOM     11  C   UNL     1       1.609   2.632  19.801  0.00  0.00    +0.000 A 
ATOM     12  C   UNL     1       0.976   3.623  20.547  0.00  0.00    +0.000 A 
ATOM     13  C   UNL     1       1.531   4.889  20.606  0.00  0.00    +0.000 A 
ATOM     14  C   UNL     1       2.704   5.162  19.900  0.00  0.00    +0.000 A 
ATOM     15  C   UNL     1       3.372   4.186  19.130  0.00  0.00    +0.000 A 
ENDBRANCH   3  15
ENDBRANCH   2   6
ENDBRANCH   1   2
BRANCH   1  16
ATOM     16  C   UNL     1       7.291   8.557  17.829  0.00  0.00    +0.000 C 
BRANCH  16  17
ATOM     17  C   UNL     1       8.538   9.408  17.643  0.00  0.00    +0.000 C 
BRANCH  17  18
ATOM     18  O   UNL     1       8.704  10.379  18.680  0.00  0.00    +0.000 OA
BRANCH  18  19
ATOM     19  C   UNL     1       9.431  11.464  18.246  0.00  0.00    +0.000 A 
ATOM     20  C   UNL     1      10.748  11.365  17.784  0.00  0.00    +0.000 A 
ATOM     21  C   UNL     1      11.463  12.504  17.439  0.00  0.00    +0.000 A 
ATOM     22  C   UNL     1      10.865  13.765  17.512  0.00  0.00    +0.000 A 
ATOM     23  C   UNL     1       9.533  13.856  17.911  0.00  0.00    +0.000 A 
ATOM     24  C   UNL     1       8.811  12.711  18.279  0.00  0.00    +0.000 A 
ATOM     25  N   UNL     1       8.911  15.105  17.949  0.00  0.00    +0.000 N 
ATOM     26  C   UNL     1       9.493  16.284  17.599  0.00  0.00    +0.000 C 
ATOM     27  O   UNL     1       8.839  17.328  17.632  0.00  0.00    +0.000 OA
ATOM     28  C   UNL     1      10.937  16.290  17.159  0.00  0.00    +0.000 C 
ATOM     29  C   UNL     1      11.683  14.969  17.196  0.00  0.00    +0.000 C 
ATOM     30  H   UNL     1       7.940  15.170  18.227  0.00  0.00    +0.000 HD
ENDBRANCH  18  19
ENDBRANCH  17  18
ENDBRANCH  16  17
ENDBRANCH   1  16
TORSDOF 7
ENDMDL
MODEL 6
REMARK VINA RESULT:      -8.2      1.504      1.860
REMARK  Name = 
REMARK  8 active torsions:
REMARK  status: ('A' for Active; 'I' for Inactive)
REMARK    1  A    between atoms: C_1  and  C_2
REMARK    2  A    between atoms: C_7  and  N_8
REMARK    3  A    between atoms: N_11  and  C_12
REMARK    4  A    between atoms: C_12  and  C_13
REMARK    5  A    between atoms: C_13  and  C_14
REMARK    6  A    between atoms: C_14  and  C_15
REMARK    7  A    between atoms: C_15  and  O_16
REMARK    8  A    between atoms: O_16  and  C_17
REMARK                            x       y       z     vdW  Elec       q    Type
REMARK                         _______ _______ _______ _____ _____    ______ ____
ROOT
ATOM      1  C   UNL     1       7.578   8.705  17.612  0.00  0.00    +0.000 C 
ENDROOT
BRANCH   1   2
ATOM      2  C   UNL     1       7.752   7.206  17.910  0.00  0.00    +0.000 C 
BRANCH   2   6
ATOM      3  N   UNL     1       4.845   5.080  17.822  0.00  0.00    +0.000 N 
ATOM      4  C   UNL     1       6.155   4.571  18.241  0.00  0.00    +0.000 C 
ATOM      5  C   UNL     1       7.238   4.919  17.196  0.00  0.00    +0.000 C 
ATOM      6  N   UNL     1       7.295   6.348  16.807  0.00  0.00    +0.000 NA
ATOM      7  C   UNL     1       5.941   6.739  16.346  0.00  0.00    +0.000 C 
ATOM      8  C   UNL     1       4.811   6.481  17.372  0.00  0.00    +0.000 C 
BRANCH   3  15
ATOM      9  C   UNL     1       2.544   6.263  19.421  0.00  0.00    +0.000 C 
ATOM     10  C   UNL     1       2.596   4.872  18.844  0.00  0.00    +0.000 A 
ATOM     11  C   UNL     1       1.482   4.043  19.094  0.00  0.00    +0.000 A 
ATOM     12  C   UNL     1       1.388   2.767  18.544  0.00  0.00    +0.000 A 
ATOM     13  C   UNL     1       2.413   2.296  17.741  0.00  0.00    +0.000 A 
ATOM     14  C   UNL     1       3.535   3.096  17.515  0.00  0.00    +0.000 A 
ATOM     15  C   UNL     1       3.668   4.391  18.059  0.00  0.00    +0.000 A 
ENDBRANCH   3  15
ENDBRANCH   2   6
ENDBRANCH   1   2
BRANCH   1  16
ATOM     16  C   UNL     1       8.858   9.535  17.800  0.00  0.00    +0.000 C 
BRANCH  16  17
ATOM     17  C   UNL     1       8.906  10.088  19.216  0.00  0.00    +0.000 C 
BRANCH  17  18
ATOM     18  O   UNL     1      10.181  10.642  19.550  0.00  0.00    +0.000 OA
BRANCH  18  19
ATOM     19  C   UNL     1      10.436  11.793  18.840  0.00  0.00    +0.000 A 
ATOM     20  C   UNL     1      11.527  11.929  17.974  0.00  0.00    +0.000 A 
ATOM     21  C   UNL     1      11.784  13.142  17.349  0.00  0.00    +0.000 A 
ATOM     22  C   UNL     1      10.935  14.233  17.543  0.00  0.00    +0.000 A 
ATOM     23  C   UNL     1       9.813  14.078  18.355  0.00  0.00    +0.000 A 
ATOM     24  C   UNL     1       9.558  12.861  19.005  0.00  0.00    +0.000 A 
ATOM     25  N   UNL     1       8.934  15.148  18.526  0.00  0.00    +0.000 N 
ATOM     26  C   UNL     1       9.058  16.369  17.937  0.00  0.00    +0.000 C 
ATOM     27  O   UNL     1       8.200  17.233  18.125  0.00  0.00    +0.000 OA
ATOM     28  C   UNL     1      10.244  16.638  17.045  0.00  0.00    +0.000 C 
ATOM     29  C   UNL     1      11.279  15.536  16.907  0.00  0.00    +0.000 C 
ATOM     30  H   UNL     1       8.113  15.030  19.106  0.00  0.00    +0.000 HD
ENDBRANCH  18  19
ENDBRANCH  17  18
ENDBRANCH  16  17
ENDBRANCH   1  16
TORSDOF 7
ENDMDL
MODEL 7
REMARK VINA RESULT:      -8.2      1.222      1.270
REMARK  Name = 
REMARK  8 active torsions:
REMARK  status: ('A' for Active; 'I' for Inactive)
REMARK    1  A    between atoms: C_1  and  C_2
REMARK    2  A    between atoms: C_7  and  N_8
REMARK    3  A    between atoms: N_11  and  C_12
REMARK    4  A    between atoms: C_12  and  C_13
REMARK    5  A    between atoms: C_13  and  C_14
REMARK    6  A    between atoms: C_14  and  C_15
REMARK    7  A    between atoms: C_15  and  O_16
REMARK    8  A    between atoms: O_16  and  C_17
REMARK                            x       y       z     vdW  Elec       q    Type
REMARK                         _______ _______ _______ _____ _____    ______ ____
ROOT
ATOM      1  C   UNL     1       8.290   8.349  18.220  0.00  0.00    +0.000 C 
ENDROOT
BRANCH   1   2
ATOM      2  C   UNL     1       7.360   7.614  17.240  0.00  0.00    +0.000 C 
BRANCH   2   6
ATOM      3  N   UNL     1       4.926   4.999  17.699  0.00  0.00    +0.000 N 
ATOM      4  C   UNL     1       5.699   5.533  18.825  0.00  0.00    +0.000 C 
ATOM      5  C   UNL     1       7.210   5.521  18.506  0.00  0.00    +0.000 C 
ATOM      6  N   UNL     1       7.583   6.161  17.222  0.00  0.00    +0.000 NA
ATOM      7  C   UNL     1       6.790   5.507  16.152  0.00  0.00    +0.000 C 
ATOM      8  C   UNL     1       5.259   5.541  16.372  0.00  0.00    +0.000 C 
BRANCH   3  15
ATOM      9  C   UNL     1       2.175   6.206  18.179  0.00  0.00    +0.000 C 
ATOM     10  C   UNL     1       2.504   4.735  18.160  0.00  0.00    +0.000 A 
ATOM     11  C   UNL     1       1.437   3.846  18.413  0.00  0.00    +0.000 A 
ATOM     12  C   UNL     1       1.610   2.467  18.342  0.00  0.00    +0.000 A 
ATOM     13  C   UNL     1       2.856   1.952  18.027  0.00  0.00    +0.000 A 
ATOM     14  C   UNL     1       3.925   2.822  17.808  0.00  0.00    +0.000 A 
ATOM     15  C   UNL     1       3.791   4.226  17.876  0.00  0.00    +0.000 A 
ENDBRANCH   3  15
ENDBRANCH   2   6
ENDBRANCH   1   2
BRANCH   1  16
ATOM     16  C   UNL     1       8.288   9.877  18.060  0.00  0.00    +0.000 C 
BRANCH  16  17
ATOM     17  C   UNL     1       9.606  10.446  18.563  0.00  0.00    +0.000 C 
BRANCH  17  18
ATOM     18  O   UNL     1      10.044  11.579  17.806  0.00  0.00    +0.000 OA
BRANCH  18  19
ATOM     19  C   UNL     1      10.057  12.723  18.569  0.00  0.00    +0.000 A 
ATOM     20  C   UNL     1      10.556  12.764  19.877  0.00  0.00    +0.000 A 
ATOM     21  C   UNL     1      10.466  13.926  20.630  0.00  0.00    +0.000 A 
ATOM     22  C   UNL     1       9.910  15.085  20.082  0.00  0.00    +0.000 A 
ATOM     23  C   UNL     1       9.473  15.062  18.760  0.00  0.00    +0.000 A 
ATOM     24  C   UNL     1       9.544  13.885  17.999  0.00  0.00    +0.000 A 
ATOM     25  N   UNL     1       8.953  16.223  18.187  0.00  0.00    +0.000 N 
ATOM     26  C   UNL     1       8.849  17.429  18.810  0.00  0.00    +0.000 C 
ATOM     27  O   UNL     1       8.411  18.403  18.197  0.00  0.00    +0.000 OA
ATOM     28  C   UNL     1       9.291  17.554  20.247  0.00  0.00    +0.000 C 
ATOM     29  C   UNL     1       9.772  16.293  20.943  0.00  0.00    +0.000 C 
ATOM     30  H   UNL     1       8.646  16.209  17.222  0.00  0.00    +0.000 HD
ENDBRANCH  18  19
ENDBRANCH  17  18
ENDBRANCH  16  17
ENDBRANCH   1  16
TORSDOF 7
ENDMDL
MODEL 8
REMARK VINA RESULT:      -8.1      1.031      1.625
REMARK  Name = 
REMARK  8 active torsions:
REMARK  status: ('A' for Active; 'I' for Inactive)
REMARK    1  A    between atoms: C_1  and  C_2
REMARK    2  A    between atoms: C_7  and  N_8
REMARK    3  A    between atoms: N_11  and  C_12
REMARK    4  A    between atoms: C_12  and  C_13
REMARK    5  A    between atoms: C_13  and  C_14
REMARK    6  A    between atoms: C_14  and  C_15
REMARK    7  A    between atoms: C_15  and  O_16
REMARK    8  A    between atoms: O_16  and  C_17
REMARK                            x       y       z     vdW  Elec       q    Type
REMARK                         _______ _______ _______ _____ _____    ______ ____
ROOT
ATOM      1  C   UNL     1       8.012   7.957  17.476  0.00  0.00    +0.000 C 
ENDROOT
BRANCH   1   2
ATOM      2  C   UNL     1       6.897   7.101  18.101  0.00  0.00    +0.000 C 
BRANCH   2   6
ATOM      3  N   UNL     1       4.152   4.822  18.599  0.00  0.00    +0.000 N 
ATOM      4  C   UNL     1       5.502   4.512  19.079  0.00  0.00    +0.000 C 
ATOM      5  C   UNL     1       6.538   4.682  17.945  0.00  0.00    +0.000 C 
ATOM      6  N   UNL     1       6.484   5.984  17.239  0.00  0.00    +0.000 NA
ATOM      7  C   UNL     1       5.097   6.166  16.747  0.00  0.00    +0.000 C 
ATOM      8  C   UNL     1       4.007   6.077  17.842  0.00  0.00    +0.000 C 
BRANCH   3  15
ATOM      9  C   UNL     1       3.488   2.016  17.629  0.00  0.00    +0.000 C 
ATOM     10  C   UNL     1       2.649   2.851  18.562  0.00  0.00    +0.000 A 
ATOM     11  C   UNL     1       1.435   2.279  19.002  0.00  0.00    +0.000 A 
ATOM     12  C   UNL     1       0.621   2.927  19.927  0.00  0.00    +0.000 A 
ATOM     13  C   UNL     1       1.001   4.163  20.420  0.00  0.00    +0.000 A 
ATOM     14  C   UNL     1       2.183   4.752  19.967  0.00  0.00    +0.000 A 
ATOM     15  C   UNL     1       3.032   4.129  19.027  0.00  0.00    +0.000 A 
ENDBRANCH   3  15
ENDBRANCH   2   6
ENDBRANCH   1   2
BRANCH   1  16
ATOM     16  C   UNL     1       7.887   9.460  17.770  0.00  0.00    +0.000 C 
BRANCH  16  17
ATOM     17  C   UNL     1       9.093   9.926  18.572  0.00  0.00    +0.000 C 
BRANCH  17  18
ATOM     18  O   UNL     1      10.024  10.675  17.786  0.00  0.00    +0.000 OA
BRANCH  18  19
ATOM     19  C   UNL     1      10.330  11.881  18.375  0.00  0.00    +0.000 A 
ATOM     20  C   UNL     1      10.777  11.995  19.696  0.00  0.00    +0.000 A 
ATOM     21  C   UNL     1      10.988  13.243  20.265  0.00  0.00    +0.000 A 
ATOM     22  C   UNL     1      10.795  14.405  19.515  0.00  0.00    +0.000 A 
ATOM     23  C   UNL     1      10.412  14.289  18.180  0.00  0.00    +0.000 A 
ATOM     24  C   UNL     1      10.178  13.031  17.605  0.00  0.00    +0.000 A 
ATOM     25  N   UNL     1      10.255  15.441  17.407  0.00  0.00    +0.000 N 
ATOM     26  C   UNL     1      10.470  16.713  17.839  0.00  0.00    +0.000 C 
ATOM     27  O   UNL     1      10.340  17.659  17.060  0.00  0.00    +0.000 OA
ATOM     28  C   UNL     1      10.881  16.943  19.273  0.00  0.00    +0.000 C 
ATOM     29  C   UNL     1      10.969  15.728  20.178  0.00  0.00    +0.000 C 
ATOM     30  H   UNL     1       9.989  15.355  16.434  0.00  0.00    +0.000 HD
ENDBRANCH  18  19
ENDBRANCH  17  18
ENDBRANCH  16  17
ENDBRANCH   1  16
TORSDOF 7
ENDMDL
MODEL 9
REMARK VINA RESULT:      -8.1      1.043      1.174
REMARK  Name = 
REMARK  8 active torsions:
REMARK  status: ('A' for Active; 'I' for Inactive)
REMARK    1  A    between atoms: C_1  and  C_2
REMARK    2  A    between atoms: C_7  and  N_8
REMARK    3  A    between atoms: N_11  and  C_12
REMARK    4  A    between atoms: C_12  and  C_13
REMARK    5  A    between atoms: C_13  and  C_14
REMARK    6  A    between atoms: C_14  and  C_15
REMARK    7  A    between atoms: C_15  and  O_16
REMARK    8  A    between atoms: O_16  and  C_17
REMARK                            x       y       z     vdW  Elec       q    Type
REMARK                         _______ _______ _______ _____ _____    ______ ____
ROOT
ATOM      1  C   UNL     1       8.113   7.764  17.723  0.00  0.00    +0.000 C 
ENDROOT
BRANCH   1   2
ATOM      2  C   UNL     1       6.883   6.976  18.208  0.00  0.00    +0.000 C 
BRANCH   2   6
ATOM      3  N   UNL     1       4.021   4.801  18.437  0.00  0.00    +0.000 N 
ATOM      4  C   UNL     1       5.327   4.411  18.980  0.00  0.00    +0.000 C 
ATOM      5  C   UNL     1       6.435   4.585  17.918  0.00  0.00    +0.000 C 
ATOM      6  N   UNL     1       6.478   5.918  17.272  0.00  0.00    +0.000 NA
ATOM      7  C   UNL     1       5.132   6.183  16.709  0.00  0.00    +0.000 C 
ATOM      8  C   UNL     1       3.975   6.093  17.733  0.00  0.00    +0.000 C 
BRANCH   3  15
ATOM      9  C   UNL     1       2.091   5.831  20.551  0.00  0.00    +0.000 C 
ATOM     10  C   UNL     1       1.953   4.544  19.779  0.00  0.00    +0.000 A 
ATOM     11  C   UNL     1       0.835   3.739  20.089  0.00  0.00    +0.000 A 
ATOM     12  C   UNL     1       0.566   2.569  19.385  0.00  0.00    +0.000 A 
ATOM     13  C   UNL     1       1.415   2.179  18.363  0.00  0.00    +0.000 A 
ATOM     14  C   UNL     1       2.540   2.951  18.070  0.00  0.00    +0.000 A 
ATOM     15  C   UNL     1       2.850   4.140  18.766  0.00  0.00    +0.000 A 
ENDBRANCH   3  15
ENDBRANCH   2   6
ENDBRANCH   1   2
BRANCH   1  16
ATOM     16  C   UNL     1       7.894   9.283  17.645  0.00  0.00    +0.000 C 
BRANCH  16  17
ATOM     17  C   UNL     1       8.929   9.994  18.503  0.00  0.00    +0.000 C 
BRANCH  17  18
ATOM     18  O   UNL     1       9.924  10.667  17.725  0.00  0.00    +0.000 OA
BRANCH  18  19
ATOM     19  C   UNL     1      10.348  11.824  18.337  0.00  0.00    +0.000 A 
ATOM     20  C   UNL     1      10.861  11.856  19.639  0.00  0.00    +0.000 A 
ATOM     21  C   UNL     1      11.194  13.064  20.236  0.00  0.00    +0.000 A 
ATOM     22  C   UNL     1      11.058  14.263  19.534  0.00  0.00    +0.000 A 
ATOM     23  C   UNL     1      10.608  14.225  18.216  0.00  0.00    +0.000 A 
ATOM     24  C   UNL     1      10.252  13.009  17.612  0.00  0.00    +0.000 A 
ATOM     25  N   UNL     1      10.506  15.412  17.489  0.00  0.00    +0.000 N 
ATOM     26  C   UNL     1      10.839  16.648  17.951  0.00  0.00    +0.000 C 
ATOM     27  O   UNL     1      10.748  17.628  17.210  0.00  0.00    +0.000 OA
ATOM     28  C   UNL     1      11.330  16.795  19.370  0.00  0.00    +0.000 C 
ATOM     29  C   UNL     1      11.364  15.544  20.230  0.00  0.00    +0.000 C 
ATOM     30  H   UNL     1      10.191  15.381  16.527  0.00  0.00    +0.000 HD
ENDBRANCH  18  19
ENDBRANCH  17  18
ENDBRANCH  16  17
ENDBRANCH   1  16
TORSDOF 7
ENDMDL
