MODEL 1
REMARK VINA RESULT:      -7.8      0.000      0.000
REMARK  Name = 
REMARK  5 active torsions:
REMARK  status: ('A' for Active; 'I' for Inactive)
REMARK    1  A    between atoms: C_1  and  C_2
REMARK    2  A    between atoms: C_4  and  N_5
REMARK    3  A    between atoms: C_6  and  C_8
REMARK    4  A    between atoms: C_12  and  C_13
REMARK    5  A    between atoms: C_21  and  C_22
REMARK                            x       y       z     vdW  Elec       q    Type
REMARK                         _______ _______ _______ _____ _____    ______ ____
ROOT
ATOM      1  C   UNL     1      -0.769  16.883  25.298  0.00  0.00    +0.000 C 
ATOM      2  C   UNL     1      -1.407  15.929  24.361  0.00  0.00    +0.000 A 
ATOM      3  C   UNL     1      -0.801  14.906  23.604  0.00  0.00    +0.000 A 
ATOM      4  C   UNL     1      -1.826  14.296  22.908  0.00  0.00    +0.000 A 
ATOM      5  N   UNL     1      -2.985  14.950  23.319  0.00  0.00    +0.000 N 
ATOM      6  C   UNL     1      -4.302  14.646  22.973  0.00  0.00    +0.000 A 
ATOM      7  N   UNL     1      -4.612  13.633  22.194  0.00  0.00    +0.000 NA
ATOM      8  C   UNL     1      -5.999  13.602  22.045  0.00  0.00    +0.000 A 
ATOM      9  C   UNL     1      -6.689  14.590  22.723  0.00  0.00    +0.000 A 
ATOM     10  S   UNL     1      -5.587  15.594  23.566  0.00  0.00    +0.000 S 
ATOM     11  N   UNL     1      -2.724  15.975  24.162  0.00  0.00    +0.000 NA
ENDROOT
BRANCH   8  12
ATOM     12  C   UNL     1      -6.602  12.650  21.127  0.00  0.00    +0.000 A 
ATOM     13  C   UNL     1      -6.327  12.684  19.739  0.00  0.00    +0.000 A 
ATOM     14  C   UNL     1      -6.604  11.583  18.924  0.00  0.00    +0.000 A 
ATOM     15  C   UNL     1      -7.129  10.470  19.541  0.00  0.00    +0.000 A 
ATOM     16  C   UNL     1      -7.507  10.486  20.863  0.00  0.00    +0.000 A 
ATOM     17  C   UNL     1      -7.296  11.567  21.678  0.00  0.00    +0.000 A 
ATOM     18  O   UNL     1      -7.916   9.261  21.278  0.00  0.00    +0.000 OA
ATOM     19  C   UNL     1      -7.286   8.477  20.240  0.00  0.00    +0.000 C 
ATOM     20  O   UNL     1      -7.199   9.218  19.009  0.00  0.00    +0.000 OA
ENDBRANCH   8  12
BRANCH   4  21
ATOM     21  N   UNL     1      -1.742  13.230  21.987  0.00  0.00    +0.000 N 
ATOM     22  C   UNL     1      -1.504  13.430  20.585  0.00  0.00    +0.000 C 
ATOM     23  O   UNL     1      -1.316  14.545  20.133  0.00  0.00    +0.000 OA
ATOM     24  H   UNL     1      -1.822  12.298  22.387  0.00  0.00    +0.000 HD
BRANCH  22  25
ATOM     25  C   UNL     1      -1.437  12.249  19.683  0.00  0.00    +0.000 A 
ATOM     26  C   UNL     1      -0.360  11.369  19.880  0.00  0.00    +0.000 A 
ATOM     27  C   UNL     1      -0.171  10.275  19.042  0.00  0.00    +0.000 A 
ATOM     28  C   UNL     1      -1.037  10.068  17.978  0.00  0.00    +0.000 A 
ATOM     29  C   UNL     1      -2.100  10.953  17.738  0.00  0.00    +0.000 A 
ATOM     30  C   UNL     1      -2.317  12.041  18.617  0.00  0.00    +0.000 A 
BRANCH  29  31
ATOM     31  C   UNL     1      -2.988  10.721  16.542  0.00  0.00    +0.000 C 
ATOM     32  F   UNL     1      -2.424  11.066  15.353  0.00  0.00    +0.000 F 
ATOM     33  F   UNL     1      -3.312   9.418  16.420  0.00  0.00    +0.000 F 
ATOM     34  F   UNL     1      -4.165  11.396  16.619  0.00  0.00    +0.000 F 
ENDBRANCH  29  31
ENDBRANCH  22  25
ENDBRANCH   4  21
TORSDOF 4
ENDMDL
MODEL 2
REMARK VINA RESULT:      -7.7      1.060      1.282
REMARK  Name = 
REMARK  5 active torsions:
REMARK  status: ('A' for Active; 'I' for Inactive)
REMARK    1  A    between atoms: C_1  and  C_2
REMARK    2  A    between atoms: C_4  and  N_5
REMARK    3  A    between atoms: C_6  and  C_8
REMARK    4  A    between atoms: C_12  and  C_13
REMARK    5  A    between atoms: C_21  and  C_22
REMARK                            x       y       z     vdW  Elec       q    Type
REMARK                         _______ _______ _______ _____ _____    ______ ____
ROOT
ATOM      1  C   UNL     1       0.032  17.297  24.742  0.00  0.00    +0.000 C 
ATOM      2  C   UNL     1      -0.642  16.379  23.795  0.00  0.00    +0.000 A 
ATOM      3  C   UNL     1      -0.057  15.509  22.852  0.00  0.00    +0.000 A 
ATOM      4  C   UNL     1      -1.110  14.863  22.233  0.00  0.00    +0.000 A 
ATOM      5  N   UNL     1      -2.254  15.342  22.866  0.00  0.00    +0.000 N 
ATOM      6  C   UNL     1      -3.572  14.932  22.666  0.00  0.00    +0.000 A 
ATOM      7  N   UNL     1      -3.894  13.974  21.824  0.00  0.00    +0.000 NA
ATOM      8  C   UNL     1      -5.279  13.807  21.858  0.00  0.00    +0.000 A 
ATOM      9  C   UNL     1      -5.954  14.641  22.730  0.00  0.00    +0.000 A 
ATOM     10  S   UNL     1      -4.842  15.669  23.529  0.00  0.00    +0.000 S 
ATOM     11  N   UNL     1      -1.972  16.300  23.779  0.00  0.00    +0.000 NA
ENDROOT
BRANCH   8  12
ATOM     12  C   UNL     1      -5.915  12.892  20.925  0.00  0.00    +0.000 A 
ATOM     13  C   UNL     1      -5.425  12.716  19.609  0.00  0.00    +0.000 A 
ATOM     14  C   UNL     1      -5.794  11.604  18.847  0.00  0.00    +0.000 A 
ATOM     15  C   UNL     1      -6.630  10.690  19.447  0.00  0.00    +0.000 A 
ATOM     16  C   UNL     1      -7.199  10.927  20.676  0.00  0.00    +0.000 A 
ATOM     17  C   UNL     1      -6.897  12.032  21.428  0.00  0.00    +0.000 A 
ATOM     18  O   UNL     1      -7.915   9.858  21.107  0.00  0.00    +0.000 OA
ATOM     19  C   UNL     1      -7.307   8.856  20.261  0.00  0.00    +0.000 C 
ATOM     20  O   UNL     1      -6.875   9.423  19.010  0.00  0.00    +0.000 OA
ENDBRANCH   8  12
BRANCH   4  21
ATOM     21  N   UNL     1      -1.059  13.911  21.193  0.00  0.00    +0.000 N 
ATOM     22  C   UNL     1      -0.790  12.520  21.423  0.00  0.00    +0.000 C 
ATOM     23  O   UNL     1      -0.639  12.089  22.552  0.00  0.00    +0.000 OA
ATOM     24  H   UNL     1      -1.265  14.267  20.262  0.00  0.00    +0.000 HD
BRANCH  22  25
ATOM     25  C   UNL     1      -0.747  11.585  20.267  0.00  0.00    +0.000 A 
ATOM     26  C   UNL     1       0.442  10.856  20.093  0.00  0.00    +0.000 A 
ATOM     27  C   UNL     1       0.606  10.010  19.002  0.00  0.00    +0.000 A 
ATOM     28  C   UNL     1      -0.405   9.907  18.055  0.00  0.00    +0.000 A 
ATOM     29  C   UNL     1      -1.588  10.651  18.189  0.00  0.00    +0.000 A 
ATOM     30  C   UNL     1      -1.771  11.479  19.321  0.00  0.00    +0.000 A 
BRANCH  29  31
ATOM     31  C   UNL     1      -2.639  10.549  17.113  0.00  0.00    +0.000 C 
ATOM     32  F   UNL     1      -3.601   9.619  17.357  0.00  0.00    +0.000 F 
ATOM     33  F   UNL     1      -3.300  11.716  16.963  0.00  0.00    +0.000 F 
ATOM     34  F   UNL     1      -2.119  10.253  15.893  0.00  0.00    +0.000 F 
ENDBRANCH  29  31
ENDBRANCH  22  25
ENDBRANCH   4  21
TORSDOF 4
ENDMDL
MODEL 3
REMARK VINA RESULT:      -7.4      4.504      6.870
REMARK  Name = 
REMARK  5 active torsions:
REMARK  status: ('A' for Active; 'I' for Inactive)
REMARK    1  A    between atoms: C_1  and  C_2
REMARK    2  A    between atoms: C_4  and  N_5
REMARK    3  A    between atoms: C_6  and  C_8
REMARK    4  A    between atoms: C_12  and  C_13
REMARK    5  A    between atoms: C_21  and  C_22
REMARK                            x       y       z     vdW  Elec       q    Type
REMARK                         _______ _______ _______ _____ _____    ______ ____
ROOT
ATOM      1  C   UNL     1       2.652   7.718  17.775  0.00  0.00    +0.000 C 
ATOM      2  C   UNL     1       1.980   8.889  18.386  0.00  0.00    +0.000 A 
ATOM      3  C   UNL     1       1.751  10.160  17.823  0.00  0.00    +0.000 A 
ATOM      4  C   UNL     1       1.076  10.882  18.788  0.00  0.00    +0.000 A 
ATOM      5  N   UNL     1       0.897   9.996  19.848  0.00  0.00    +0.000 N 
ATOM      6  C   UNL     1       0.191  10.215  21.030  0.00  0.00    +0.000 A 
ATOM      7  N   UNL     1      -0.442  11.341  21.277  0.00  0.00    +0.000 NA
ATOM      8  C   UNL     1      -1.044  11.242  22.532  0.00  0.00    +0.000 A 
ATOM      9  C   UNL     1      -0.849  10.039  23.187  0.00  0.00    +0.000 A 
ATOM     10  S   UNL     1       0.114   9.002  22.223  0.00  0.00    +0.000 S 
ATOM     11  N   UNL     1       1.491   8.802  19.623  0.00  0.00    +0.000 NA
ENDROOT
BRANCH   8  12
ATOM     12  C   UNL     1      -1.706  12.401  23.106  0.00  0.00    +0.000 A 
ATOM     13  C   UNL     1      -1.106  13.682  23.087  0.00  0.00    +0.000 A 
ATOM     14  C   UNL     1      -1.866  14.835  23.300  0.00  0.00    +0.000 A 
ATOM     15  C   UNL     1      -3.216  14.661  23.503  0.00  0.00    +0.000 A 
ATOM     16  C   UNL     1      -3.770  13.411  23.642  0.00  0.00    +0.000 A 
ATOM     17  C   UNL     1      -3.044  12.259  23.489  0.00  0.00    +0.000 A 
ATOM     18  O   UNL     1      -5.121  13.476  23.749  0.00  0.00    +0.000 OA
ATOM     19  C   UNL     1      -5.304  14.792  23.179  0.00  0.00    +0.000 C 
ATOM     20  O   UNL     1      -4.166  15.634  23.440  0.00  0.00    +0.000 OA
ENDBRANCH   8  12
BRANCH   4  21
ATOM     21  N   UNL     1       0.640  12.223  18.728  0.00  0.00    +0.000 N 
ATOM     22  C   UNL     1       1.476  13.331  19.095  0.00  0.00    +0.000 C 
ATOM     23  O   UNL     1       2.632  13.158  19.435  0.00  0.00    +0.000 OA
ATOM     24  H   UNL     1      -0.302  12.362  18.368  0.00  0.00    +0.000 HD
BRANCH  22  25
ATOM     25  C   UNL     1       0.933  14.713  19.009  0.00  0.00    +0.000 A 
ATOM     26  C   UNL     1       1.815  15.707  18.552  0.00  0.00    +0.000 A 
ATOM     27  C   UNL     1       1.424  17.040  18.504  0.00  0.00    +0.000 A 
ATOM     28  C   UNL     1       0.156  17.400  18.942  0.00  0.00    +0.000 A 
ATOM     29  C   UNL     1      -0.732  16.430  19.435  0.00  0.00    +0.000 A 
ATOM     30  C   UNL     1      -0.347  15.068  19.444  0.00  0.00    +0.000 A 
BRANCH  29  31
ATOM     31  C   UNL     1      -2.080  16.869  19.948  0.00  0.00    +0.000 C 
ATOM     32  F   UNL     1      -2.817  17.575  19.049  0.00  0.00    +0.000 F 
ATOM     33  F   UNL     1      -2.844  15.808  20.283  0.00  0.00    +0.000 F 
ATOM     34  F   UNL     1      -1.994  17.638  21.064  0.00  0.00    +0.000 F 
ENDBRANCH  29  31
ENDBRANCH  22  25
ENDBRANCH   4  21
TORSDOF 4
ENDMDL
MODEL 4
REMARK VINA RESULT:      -7.3      5.039      7.412
REMARK  Name = 
REMARK  5 active torsions:
REMARK  status: ('A' for Active; 'I' for Inactive)
REMARK    1  A    between atoms: C_1  and  C_2
REMARK    2  A    between atoms: C_4  and  N_5
REMARK    3  A    between atoms: C_6  and  C_8
REMARK    4  A    between atoms: C_12  and  C_13
REMARK    5  A    between atoms: C_21  and  C_22
REMARK                            x       y       z     vdW  Elec       q    Type
REMARK                         _______ _______ _______ _____ _____    ______ ____
ROOT
ATOM      1  C   UNL     1       2.657   7.569  17.847  0.00  0.00    +0.000 C 
ATOM      2  C   UNL     1       2.010   8.775  18.416  0.00  0.00    +0.000 A 
ATOM      3  C   UNL     1       1.851  10.044  17.826  0.00  0.00    +0.000 A 
ATOM      4  C   UNL     1       1.172  10.808  18.756  0.00  0.00    +0.000 A 
ATOM      5  N   UNL     1       0.922   9.947  19.822  0.00  0.00    +0.000 N 
ATOM      6  C   UNL     1       0.183  10.213  20.975  0.00  0.00    +0.000 A 
ATOM      7  N   UNL     1      -0.413  11.367  21.183  0.00  0.00    +0.000 NA
ATOM      8  C   UNL     1      -1.061  11.311  22.417  0.00  0.00    +0.000 A 
ATOM      9  C   UNL     1      -0.936  10.113  23.096  0.00  0.00    +0.000 A 
ATOM     10  S   UNL     1       0.018   9.024  22.183  0.00  0.00    +0.000 S 
ATOM     11  N   UNL     1       1.476   8.727  19.637  0.00  0.00    +0.000 NA
ENDROOT
BRANCH   8  12
ATOM     12  C   UNL     1      -1.697  12.504  22.949  0.00  0.00    +0.000 A 
ATOM     13  C   UNL     1      -3.039  12.492  23.397  0.00  0.00    +0.000 A 
ATOM     14  C   UNL     1      -3.531  13.506  24.223  0.00  0.00    +0.000 A 
ATOM     15  C   UNL     1      -2.644  14.491  24.592  0.00  0.00    +0.000 A 
ATOM     16  C   UNL     1      -1.380  14.564  24.056  0.00  0.00    +0.000 A 
ATOM     17  C   UNL     1      -0.884  13.614  23.204  0.00  0.00    +0.000 A 
ATOM     18  O   UNL     1      -0.656  15.561  24.625  0.00  0.00    +0.000 OA
ATOM     19  C   UNL     1      -1.437  15.712  25.832  0.00  0.00    +0.000 C 
ATOM     20  O   UNL     1      -2.821  15.391  25.600  0.00  0.00    +0.000 OA
ENDBRANCH   8  12
BRANCH   4  21
ATOM     21  N   UNL     1       0.791  12.163  18.660  0.00  0.00    +0.000 N 
ATOM     22  C   UNL     1       1.561  13.231  19.233  0.00  0.00    +0.000 C 
ATOM     23  O   UNL     1       2.619  13.010  19.794  0.00  0.00    +0.000 OA
ATOM     24  H   UNL     1      -0.054  12.344  18.121  0.00  0.00    +0.000 HD
BRANCH  22  25
ATOM     25  C   UNL     1       1.082  14.632  19.091  0.00  0.00    +0.000 A 
ATOM     26  C   UNL     1       1.919  15.513  18.386  0.00  0.00    +0.000 A 
ATOM     27  C   UNL     1       1.593  16.859  18.260  0.00  0.00    +0.000 A 
ATOM     28  C   UNL     1       0.443  17.346  18.866  0.00  0.00    +0.000 A 
ATOM     29  C   UNL     1      -0.392  16.493  19.606  0.00  0.00    +0.000 A 
ATOM     30  C   UNL     1      -0.081  15.115  19.697  0.00  0.00    +0.000 A 
BRANCH  29  31
ATOM     31  C   UNL     1      -1.604  17.071  20.290  0.00  0.00    +0.000 C 
ATOM     32  F   UNL     1      -1.558  18.420  20.463  0.00  0.00    +0.000 F 
ATOM     33  F   UNL     1      -2.725  16.839  19.577  0.00  0.00    +0.000 F 
ATOM     34  F   UNL     1      -1.822  16.534  21.519  0.00  0.00    +0.000 F 
ENDBRANCH  29  31
ENDBRANCH  22  25
ENDBRANCH   4  21
TORSDOF 4
ENDMDL
MODEL 5
REMARK VINA RESULT:      -7.3      4.146      6.649
REMARK  Name = 
REMARK  5 active torsions:
REMARK  status: ('A' for Active; 'I' for Inactive)
REMARK    1  A    between atoms: C_1  and  C_2
REMARK    2  A    between atoms: C_4  and  N_5
REMARK    3  A    between atoms: C_6  and  C_8
REMARK    4  A    between atoms: C_12  and  C_13
REMARK    5  A    between atoms: C_21  and  C_22
REMARK                            x       y       z     vdW  Elec       q    Type
REMARK                         _______ _______ _______ _____ _____    ______ ____
ROOT
ATOM      1  C   UNL     1       2.427   8.854  17.781  0.00  0.00    +0.000 C 
ATOM      2  C   UNL     1       1.231   9.604  18.229  0.00  0.00    +0.000 A 
ATOM      3  C   UNL     1       1.104  10.475  19.330  0.00  0.00    +0.000 A 
ATOM      4  C   UNL     1      -0.202  10.927  19.302  0.00  0.00    +0.000 A 
ATOM      5  N   UNL     1      -0.765  10.346  18.169  0.00  0.00    +0.000 N 
ATOM      6  C   UNL     1      -2.040  10.560  17.647  0.00  0.00    +0.000 A 
ATOM      7  N   UNL     1      -2.893  11.404  18.188  0.00  0.00    +0.000 NA
ATOM      8  C   UNL     1      -4.067  11.386  17.434  0.00  0.00    +0.000 A 
ATOM      9  C   UNL     1      -4.057  10.533  16.345  0.00  0.00    +0.000 A 
ATOM     10  S   UNL     1      -2.552   9.723  16.255  0.00  0.00    +0.000 S 
ATOM     11  N   UNL     1       0.090   9.502  17.546  0.00  0.00    +0.000 NA
ENDROOT
BRANCH   8  12
ATOM     12  C   UNL     1      -5.224  12.138  17.889  0.00  0.00    +0.000 A 
ATOM     13  C   UNL     1      -5.362  12.542  19.238  0.00  0.00    +0.000 A 
ATOM     14  C   UNL     1      -6.262  13.548  19.599  0.00  0.00    +0.000 A 
ATOM     15  C   UNL     1      -6.980  14.134  18.581  0.00  0.00    +0.000 A 
ATOM     16  C   UNL     1      -6.932  13.654  17.294  0.00  0.00    +0.000 A 
ATOM     17  C   UNL     1      -6.097  12.636  16.916  0.00  0.00    +0.000 A 
ATOM     18  O   UNL     1      -7.650  14.434  16.446  0.00  0.00    +0.000 OA
ATOM     19  C   UNL     1      -7.694  15.627  17.261  0.00  0.00    +0.000 C 
ATOM     20  O   UNL     1      -7.677  15.301  18.663  0.00  0.00    +0.000 OA
ENDBRANCH   8  12
BRANCH   4  21
ATOM     21  N   UNL     1      -0.841  11.801  20.206  0.00  0.00    +0.000 N 
ATOM     22  C   UNL     1      -1.145  11.434  21.561  0.00  0.00    +0.000 C 
ATOM     23  O   UNL     1      -0.814  10.349  22.006  0.00  0.00    +0.000 OA
ATOM     24  H   UNL     1      -1.042  12.733  19.849  0.00  0.00    +0.000 HD
BRANCH  22  25
ATOM     25  C   UNL     1      -1.828  12.415  22.446  0.00  0.00    +0.000 A 
ATOM     26  C   UNL     1      -1.007  13.355  23.093  0.00  0.00    +0.000 A 
ATOM     27  C   UNL     1      -1.542  14.267  23.994  0.00  0.00    +0.000 A 
ATOM     28  C   UNL     1      -2.900  14.231  24.285  0.00  0.00    +0.000 A 
ATOM     29  C   UNL     1      -3.735  13.279  23.677  0.00  0.00    +0.000 A 
ATOM     30  C   UNL     1      -3.196  12.378  22.728  0.00  0.00    +0.000 A 
BRANCH  29  31
ATOM     31  C   UNL     1      -5.193  13.239  24.058  0.00  0.00    +0.000 C 
ATOM     32  F   UNL     1      -5.478  12.405  25.094  0.00  0.00    +0.000 F 
ATOM     33  F   UNL     1      -5.630  14.455  24.446  0.00  0.00    +0.000 F 
ATOM     34  F   UNL     1      -5.997  12.862  23.029  0.00  0.00    +0.000 F 
ENDBRANCH  29  31
ENDBRANCH  22  25
ENDBRANCH   4  21
TORSDOF 4
ENDMDL
MODEL 6
REMARK VINA RESULT:      -7.3      4.297      6.656
REMARK  Name = 
REMARK  5 active torsions:
REMARK  status: ('A' for Active; 'I' for Inactive)
REMARK    1  A    between atoms: C_1  and  C_2
REMARK    2  A    between atoms: C_4  and  N_5
REMARK    3  A    between atoms: C_6  and  C_8
REMARK    4  A    between atoms: C_12  and  C_13
REMARK    5  A    between atoms: C_21  and  C_22
REMARK                            x       y       z     vdW  Elec       q    Type
REMARK                         _______ _______ _______ _____ _____    ______ ____
ROOT
ATOM      1  C   UNL     1       2.541   8.572  17.832  0.00  0.00    +0.000 C 
ATOM      2  C   UNL     1       1.353   9.215  18.438  0.00  0.00    +0.000 A 
ATOM      3  C   UNL     1       1.199   9.715  19.747  0.00  0.00    +0.000 A 
ATOM      4  C   UNL     1      -0.083  10.227  19.806  0.00  0.00    +0.000 A 
ATOM      5  N   UNL     1      -0.604  10.051  18.527  0.00  0.00    +0.000 N 
ATOM      6  C   UNL     1      -1.839  10.485  18.044  0.00  0.00    +0.000 A 
ATOM      7  N   UNL     1      -2.685  11.170  18.782  0.00  0.00    +0.000 NA
ATOM      8  C   UNL     1      -3.815  11.448  18.012  0.00  0.00    +0.000 A 
ATOM      9  C   UNL     1      -3.779  10.969  16.715  0.00  0.00    +0.000 A 
ATOM     10  S   UNL     1      -2.304  10.142  16.442  0.00  0.00    +0.000 S 
ATOM     11  N   UNL     1       0.249   9.391  17.711  0.00  0.00    +0.000 NA
ENDROOT
BRANCH   8  12
ATOM     12  C   UNL     1      -4.964  12.090  18.628  0.00  0.00    +0.000 A 
ATOM     13  C   UNL     1      -6.288  11.740  18.270  0.00  0.00    +0.000 A 
ATOM     14  C   UNL     1      -7.368  12.077  19.090  0.00  0.00    +0.000 A 
ATOM     15  C   UNL     1      -7.075  12.738  20.262  0.00  0.00    +0.000 A 
ATOM     16  C   UNL     1      -5.805  13.181  20.544  0.00  0.00    +0.000 A 
ATOM     17  C   UNL     1      -4.732  12.912  19.735  0.00  0.00    +0.000 A 
ATOM     18  O   UNL     1      -5.733  13.728  21.784  0.00  0.00    +0.000 OA
ATOM     19  C   UNL     1      -6.922  13.121  22.339  0.00  0.00    +0.000 C 
ATOM     20  O   UNL     1      -7.916  12.898  21.321  0.00  0.00    +0.000 OA
ENDBRANCH   8  12
BRANCH   4  21
ATOM     21  N   UNL     1      -0.736  10.817  20.908  0.00  0.00    +0.000 N 
ATOM     22  C   UNL     1      -0.621  12.213  21.226  0.00  0.00    +0.000 C 
ATOM     23  O   UNL     1       0.020  12.967  20.517  0.00  0.00    +0.000 OA
ATOM     24  H   UNL     1      -1.333  10.195  21.449  0.00  0.00    +0.000 HD
BRANCH  22  25
ATOM     25  C   UNL     1      -1.339  12.751  22.412  0.00  0.00    +0.000 A 
ATOM     26  C   UNL     1      -2.509  12.076  22.798  0.00  0.00    +0.000 A 
ATOM     27  C   UNL     1      -3.288  12.543  23.850  0.00  0.00    +0.000 A 
ATOM     28  C   UNL     1      -2.925  13.711  24.508  0.00  0.00    +0.000 A 
ATOM     29  C   UNL     1      -1.779  14.423  24.119  0.00  0.00    +0.000 A 
ATOM     30  C   UNL     1      -0.963  13.923  23.076  0.00  0.00    +0.000 A 
BRANCH  29  31
ATOM     31  C   UNL     1      -1.446  15.713  24.825  0.00  0.00    +0.000 C 
ATOM     32  F   UNL     1      -2.204  16.774  24.438  0.00  0.00    +0.000 F 
ATOM     33  F   UNL     1      -1.637  15.603  26.156  0.00  0.00    +0.000 F 
ATOM     34  F   UNL     1      -0.150  16.086  24.660  0.00  0.00    +0.000 F 
ENDBRANCH  29  31
ENDBRANCH  22  25
ENDBRANCH   4  21
TORSDOF 4
ENDMDL
MODEL 7
REMARK VINA RESULT:      -7.2      4.892      8.276
REMARK  Name = 
REMARK  5 active torsions:
REMARK  status: ('A' for Active; 'I' for Inactive)
REMARK    1  A    between atoms: C_1  and  C_2
REMARK    2  A    between atoms: C_4  and  N_5
REMARK    3  A    between atoms: C_6  and  C_8
REMARK    4  A    between atoms: C_12  and  C_13
REMARK    5  A    between atoms: C_21  and  C_22
REMARK                            x       y       z     vdW  Elec       q    Type
REMARK                         _______ _______ _______ _____ _____    ______ ____
ROOT
ATOM      1  C   UNL     1      -3.807  13.189  24.571  0.00  0.00    +0.000 C 
ATOM      2  C   UNL     1      -2.681  12.994  23.628  0.00  0.00    +0.000 A 
ATOM      3  C   UNL     1      -2.411  11.884  22.803  0.00  0.00    +0.000 A 
ATOM      4  C   UNL     1      -1.261  12.203  22.108  0.00  0.00    +0.000 A 
ATOM      5  N   UNL     1      -0.936  13.495  22.515  0.00  0.00    +0.000 N 
ATOM      6  C   UNL     1       0.093  14.305  22.034  0.00  0.00    +0.000 A 
ATOM      7  N   UNL     1       0.903  13.922  21.071  0.00  0.00    +0.000 NA
ATOM      8  C   UNL     1       1.812  14.952  20.826  0.00  0.00    +0.000 A 
ATOM      9  C   UNL     1       1.654  16.079  21.611  0.00  0.00    +0.000 A 
ATOM     10  S   UNL     1       0.343  15.857  22.690  0.00  0.00    +0.000 S 
ATOM     11  N   UNL     1      -1.769  13.955  23.476  0.00  0.00    +0.000 NA
ENDROOT
BRANCH   8  12
ATOM     12  C   UNL     1       2.902  14.740  19.889  0.00  0.00    +0.000 A 
ATOM     13  C   UNL     1       2.724  14.908  18.495  0.00  0.00    +0.000 A 
ATOM     14  C   UNL     1       3.822  15.059  17.643  0.00  0.00    +0.000 A 
ATOM     15  C   UNL     1       5.067  15.060  18.229  0.00  0.00    +0.000 A 
ATOM     16  C   UNL     1       5.239  14.774  19.562  0.00  0.00    +0.000 A 
ATOM     17  C   UNL     1       4.187  14.571  20.416  0.00  0.00    +0.000 A 
ATOM     18  O   UNL     1       6.536  14.915  19.937  0.00  0.00    +0.000 OA
ATOM     19  C   UNL     1       6.970  15.756  18.844  0.00  0.00    +0.000 C 
ATOM     20  O   UNL     1       6.225  15.475  17.644  0.00  0.00    +0.000 OA
ENDBRANCH   8  12
BRANCH   4  21
ATOM     21  N   UNL     1      -0.559  11.413  21.173  0.00  0.00    +0.000 N 
ATOM     22  C   UNL     1       0.308  10.336  21.558  0.00  0.00    +0.000 C 
ATOM     23  O   UNL     1       0.440  10.025  22.728  0.00  0.00    +0.000 OA
ATOM     24  H   UNL     1      -0.738  11.630  20.194  0.00  0.00    +0.000 HD
BRANCH  22  25
ATOM     25  C   UNL     1       1.015   9.558  20.506  0.00  0.00    +0.000 A 
ATOM     26  C   UNL     1       1.140  10.172  19.248  0.00  0.00    +0.000 A 
ATOM     27  C   UNL     1       1.721   9.498  18.181  0.00  0.00    +0.000 A 
ATOM     28  C   UNL     1       2.157   8.190  18.349  0.00  0.00    +0.000 A 
ATOM     29  C   UNL     1       2.012   7.543  19.587  0.00  0.00    +0.000 A 
ATOM     30  C   UNL     1       1.458   8.244  20.684  0.00  0.00    +0.000 A 
BRANCH  29  31
ATOM     31  C   UNL     1       2.451   6.106  19.714  0.00  0.00    +0.000 C 
ATOM     32  F   UNL     1       2.018   5.488  20.846  0.00  0.00    +0.000 F 
ATOM     33  F   UNL     1       1.978   5.359  18.695  0.00  0.00    +0.000 F 
ATOM     34  F   UNL     1       3.802   5.963  19.690  0.00  0.00    +0.000 F 
ENDBRANCH  29  31
ENDBRANCH  22  25
ENDBRANCH   4  21
TORSDOF 4
ENDMDL
MODEL 8
REMARK VINA RESULT:      -7.2      4.560      6.901
REMARK  Name = 
REMARK  5 active torsions:
REMARK  status: ('A' for Active; 'I' for Inactive)
REMARK    1  A    between atoms: C_1  and  C_2
REMARK    2  A    between atoms: C_4  and  N_5
REMARK    3  A    between atoms: C_6  and  C_8
REMARK    4  A    between atoms: C_12  and  C_13
REMARK    5  A    between atoms: C_21  and  C_22
REMARK                            x       y       z     vdW  Elec       q    Type
REMARK                         _______ _______ _______ _____ _____    ______ ____
ROOT
ATOM      1  C   UNL     1       2.284   8.844  17.892  0.00  0.00    +0.000 C 
ATOM      2  C   UNL     1       1.054   9.482  18.416  0.00  0.00    +0.000 A 
ATOM      3  C   UNL     1       0.820  10.014  19.700  0.00  0.00    +0.000 A 
ATOM      4  C   UNL     1      -0.471  10.504  19.675  0.00  0.00    +0.000 A 
ATOM      5  N   UNL     1      -0.919  10.284  18.375  0.00  0.00    +0.000 N 
ATOM      6  C   UNL     1      -2.132  10.683  17.814  0.00  0.00    +0.000 A 
ATOM      7  N   UNL     1      -3.029  11.372  18.485  0.00  0.00    +0.000 NA
ATOM      8  C   UNL     1      -4.119  11.609  17.647  0.00  0.00    +0.000 A 
ATOM      9  C   UNL     1      -4.004  11.096  16.368  0.00  0.00    +0.000 A 
ATOM     10  S   UNL     1      -2.503  10.288  16.199  0.00  0.00    +0.000 S 
ATOM     11  N   UNL     1      -0.011   9.618  17.625  0.00  0.00    +0.000 NA
ENDROOT
BRANCH   8  12
ATOM     12  C   UNL     1      -5.311  12.246  18.181  0.00  0.00    +0.000 A 
ATOM     13  C   UNL     1      -5.483  12.448  19.572  0.00  0.00    +0.000 A 
ATOM     14  C   UNL     1      -6.427  13.358  20.054  0.00  0.00    +0.000 A 
ATOM     15  C   UNL     1      -7.153  14.056  19.116  0.00  0.00    +0.000 A 
ATOM     16  C   UNL     1      -7.068  13.768  17.774  0.00  0.00    +0.000 A 
ATOM     17  C   UNL     1      -6.189  12.845  17.272  0.00  0.00    +0.000 A 
ATOM     18  O   UNL     1      -7.804  14.633  17.033  0.00  0.00    +0.000 OA
ATOM     19  C   UNL     1      -7.906  15.695  18.007  0.00  0.00    +0.000 C 
ATOM     20  O   UNL     1      -7.896  15.173  19.349  0.00  0.00    +0.000 OA
ENDBRANCH   8  12
BRANCH   4  21
ATOM     21  N   UNL     1      -1.194  11.111  20.723  0.00  0.00    +0.000 N 
ATOM     22  C   UNL     1      -0.685  12.220  21.479  0.00  0.00    +0.000 C 
ATOM     23  O   UNL     1       0.393  12.721  21.211  0.00  0.00    +0.000 OA
ATOM     24  H   UNL     1      -2.126  10.737  20.888  0.00  0.00    +0.000 HD
BRANCH  22  25
ATOM     25  C   UNL     1      -1.511  12.797  22.574  0.00  0.00    +0.000 A 
ATOM     26  C   UNL     1      -2.802  12.264  22.733  0.00  0.00    +0.000 A 
ATOM     27  C   UNL     1      -3.675  12.784  23.681  0.00  0.00    +0.000 A 
ATOM     28  C   UNL     1      -3.281  13.864  24.459  0.00  0.00    +0.000 A 
ATOM     29  C   UNL     1      -2.009  14.436  24.295  0.00  0.00    +0.000 A 
ATOM     30  C   UNL     1      -1.105  13.879  23.360  0.00  0.00    +0.000 A 
BRANCH  29  31
ATOM     31  C   UNL     1      -1.638  15.639  25.125  0.00  0.00    +0.000 C 
ATOM     32  F   UNL     1      -2.593  16.608  25.163  0.00  0.00    +0.000 F 
ATOM     33  F   UNL     1      -1.422  15.298  26.411  0.00  0.00    +0.000 F 
ATOM     34  F   UNL     1      -0.496  16.242  24.699  0.00  0.00    +0.000 F 
ENDBRANCH  29  31
ENDBRANCH  22  25
ENDBRANCH   4  21
TORSDOF 4
ENDMDL
MODEL 9
REMARK VINA RESULT:      -7.0      3.059      3.773
REMARK  Name = 
REMARK  5 active torsions:
REMARK  status: ('A' for Active; 'I' for Inactive)
REMARK    1  A    between atoms: C_1  and  C_2
REMARK    2  A    between atoms: C_4  and  N_5
REMARK    3  A    between atoms: C_6  and  C_8
REMARK    4  A    between atoms: C_12  and  C_13
REMARK    5  A    between atoms: C_21  and  C_22
REMARK                            x       y       z     vdW  Elec       q    Type
REMARK                         _______ _______ _______ _____ _____    ______ ____
ROOT
ATOM      1  C   UNL     1      -2.010  17.162  25.745  0.00  0.00    +0.000 C 
ATOM      2  C   UNL     1      -2.061  16.150  24.664  0.00  0.00    +0.000 A 
ATOM      3  C   UNL     1      -1.151  15.108  24.395  0.00  0.00    +0.000 A 
ATOM      4  C   UNL     1      -1.657  14.441  23.296  0.00  0.00    +0.000 A 
ATOM      5  N   UNL     1      -2.856  15.085  23.000  0.00  0.00    +0.000 N 
ATOM      6  C   UNL     1      -3.793  14.732  22.029  0.00  0.00    +0.000 A 
ATOM      7  N   UNL     1      -3.650  13.677  21.258  0.00  0.00    +0.000 NA
ATOM      8  C   UNL     1      -4.750  13.605  20.402  0.00  0.00    +0.000 A 
ATOM      9  C   UNL     1      -5.690  14.606  20.562  0.00  0.00    +0.000 A 
ATOM     10  S   UNL     1      -5.195  15.675  21.805  0.00  0.00    +0.000 S 
ATOM     11  N   UNL     1      -3.075  16.154  23.799  0.00  0.00    +0.000 NA
ENDROOT
BRANCH   8  12
ATOM     12  C   UNL     1      -4.781  12.597  19.356  0.00  0.00    +0.000 A 
ATOM     13  C   UNL     1      -5.890  12.465  18.487  0.00  0.00    +0.000 A 
ATOM     14  C   UNL     1      -5.781  11.765  17.283  0.00  0.00    +0.000 A 
ATOM     15  C   UNL     1      -4.546  11.238  16.980  0.00  0.00    +0.000 A 
ATOM     16  C   UNL     1      -3.508  11.264  17.882  0.00  0.00    +0.000 A 
ATOM     17  C   UNL     1      -3.598  11.898  19.093  0.00  0.00    +0.000 A 
ATOM     18  O   UNL     1      -2.368  10.766  17.341  0.00  0.00    +0.000 OA
ATOM     19  C   UNL     1      -2.725  10.914  15.949  0.00  0.00    +0.000 C 
ATOM     20  O   UNL     1      -4.147  10.785  15.760  0.00  0.00    +0.000 OA
ENDBRANCH   8  12
BRANCH   4  21
ATOM     21  N   UNL     1      -1.103  13.337  22.615  0.00  0.00    +0.000 N 
ATOM     22  C   UNL     1      -0.352  13.468  21.399  0.00  0.00    +0.000 C 
ATOM     23  O   UNL     1      -0.117  14.564  20.922  0.00  0.00    +0.000 OA
ATOM     24  H   UNL     1      -1.237  12.433  23.064  0.00  0.00    +0.000 HD
BRANCH  22  25
ATOM     25  C   UNL     1       0.191  12.249  20.742  0.00  0.00    +0.000 A 
ATOM     26  C   UNL     1       0.503  12.357  19.376  0.00  0.00    +0.000 A 
ATOM     27  C   UNL     1       0.948  11.254  18.657  0.00  0.00    +0.000 A 
ATOM     28  C   UNL     1       1.057  10.022  19.287  0.00  0.00    +0.000 A 
ATOM     29  C   UNL     1       0.719   9.880  20.643  0.00  0.00    +0.000 A 
ATOM     30  C   UNL     1       0.306  11.013  21.384  0.00  0.00    +0.000 A 
BRANCH  29  31
ATOM     31  C   UNL     1       0.803   8.515  21.277  0.00  0.00    +0.000 C 
ATOM     32  F   UNL     1      -0.404   7.925  21.496  0.00  0.00    +0.000 F 
ATOM     33  F   UNL     1       1.485   7.654  20.494  0.00  0.00    +0.000 F 
ATOM     34  F   UNL     1       1.447   8.527  22.473  0.00  0.00    +0.000 F 
ENDBRANCH  29  31
ENDBRANCH  22  25
ENDBRANCH   4  21
TORSDOF 4
ENDMDL
