MODEL 1
REMARK VINA RESULT:      -8.2      0.000      0.000
REMARK  Name = 
REMARK  12 active torsions:
REMARK  status: ('A' for Active; 'I' for Inactive)
REMARK    1  A    between atoms: C_1  and  O_2
REMARK    2  A    between atoms: O_2  and  C_3
REMARK    3  A    between atoms: C_6  and  C_7
REMARK    4  A    between atoms: N_9  and  C_10
REMARK    5  A    between atoms: C_15  and  C_16
REMARK    6  A    between atoms: C_19  and  C_20
REMARK    7  A    between atoms: C_30  and  C_31
REMARK    8  A    between atoms: C_31  and  C_32
REMARK    9  A    between atoms: C_32  and  C_33
REMARK   10  A    between atoms: C_33  and  N_34
REMARK   11  A    between atoms: N_34  and  C_35
REMARK   12  A    between atoms: N_34  and  C_36
REMARK                            x       y       z     vdW  Elec       q    Type
REMARK                         _______ _______ _______ _____ _____    ______ ____
ROOT
ATOM      1  C   UNL     1      -0.283   9.990  20.800  0.00  0.00    +0.000 A 
ATOM      2  C   UNL     1      -0.037   8.883  21.618  0.00  0.00    +0.000 A 
ATOM      3  C   UNL     1       0.899   7.906  21.277  0.00  0.00    +0.000 A 
ATOM      4  C   UNL     1       1.557   8.084  20.071  0.00  0.00    +0.000 A 
ATOM      5  O   UNL     1       2.461   7.220  19.558  0.00  0.00    +0.000 OA
ATOM      6  C   UNL     1       2.842   7.695  18.336  0.00  0.00    +0.000 A 
ATOM      7  C   UNL     1       2.225   8.914  18.107  0.00  0.00    +0.000 A 
ATOM      8  C   UNL     1       1.356   9.153  19.212  0.00  0.00    +0.000 A 
ATOM      9  C   UNL     1       0.408  10.134  19.578  0.00  0.00    +0.000 A 
ENDROOT
BRANCH   6  10
ATOM     10  C   UNL     1       3.709   6.800  17.573  0.00  0.00    +0.000 A 
ATOM     11  C   UNL     1       3.694   5.416  17.814  0.00  0.00    +0.000 A 
ATOM     12  C   UNL     1       4.411   4.527  17.008  0.00  0.00    +0.000 A 
ATOM     13  C   UNL     1       5.172   5.010  15.936  0.00  0.00    +0.000 A 
ATOM     14  C   UNL     1       5.231   6.396  15.720  0.00  0.00    +0.000 A 
ATOM     15  C   UNL     1       4.508   7.280  16.530  0.00  0.00    +0.000 A 
BRANCH  13  16
ATOM     16  C   UNL     1       5.894   4.067  15.005  0.00  0.00    +0.000 C 
ATOM     17  F   UNL     1       7.203   4.386  14.808  0.00  0.00    +0.000 F 
ATOM     18  F   UNL     1       5.891   2.784  15.465  0.00  0.00    +0.000 F 
ATOM     19  F   UNL     1       5.330   4.021  13.766  0.00  0.00    +0.000 F 
ENDBRANCH  13  16
ENDBRANCH   6  10
BRANCH   1  22
ATOM     20  C   UNL     1      -1.223  11.750  22.281  0.00  0.00    +0.000 C 
ATOM     21  O   UNL     1      -0.318  11.816  23.105  0.00  0.00    +0.000 OA
ATOM     22  N   UNL     1      -1.243  10.972  21.137  0.00  0.00    +0.000 N 
ATOM     23  H   UNL     1      -1.944  11.184  20.436  0.00  0.00    +0.000 HD
BRANCH  20  27
ATOM     24  C   UNL     1      -4.559  14.389  22.716  0.00  0.00    +0.000 A 
ATOM     25  C   UNL     1      -3.656  14.227  23.779  0.00  0.00    +0.000 A 
ATOM     26  C   UNL     1      -2.567  13.363  23.664  0.00  0.00    +0.000 A 
ATOM     27  C   UNL     1      -2.397  12.625  22.493  0.00  0.00    +0.000 A 
ATOM     28  C   UNL     1      -3.311  12.759  21.441  0.00  0.00    +0.000 A 
ATOM     29  C   UNL     1      -4.403  13.631  21.541  0.00  0.00    +0.000 A 
BRANCH  24  31
ATOM     30  C   UNL     1      -6.656  14.898  23.679  0.00  0.00    +0.000 C 
ATOM     31  O   UNL     1      -5.620  15.256  22.766  0.00  0.00    +0.000 OA
ENDBRANCH  24  31
BRANCH  29  32
ATOM     32  C   UNL     1      -5.342  13.729  20.359  0.00  0.00    +0.000 C 
BRANCH  32  33
ATOM     33  C   UNL     1      -6.479  12.702  20.348  0.00  0.00    +0.000 C 
BRANCH  33  34
ATOM     34  C   UNL     1      -7.498  12.846  19.203  0.00  0.00    +0.000 C 
BRANCH  34  35
ATOM     35  N   UNL     1      -7.153  11.985  18.049  0.00  0.00    +0.000 NA
ATOM     36  C   UNL     1      -6.311  12.687  17.078  0.00  0.00    +0.000 C 
ATOM     37  C   UNL     1      -6.468  10.768  18.494  0.00  0.00    +0.000 C 
ENDBRANCH  34  35
ENDBRANCH  33  34
ENDBRANCH  32  33
ENDBRANCH  29  32
ENDBRANCH  20  27
ENDBRANCH   1  22
TORSDOF 9
ENDMDL
MODEL 2
REMARK VINA RESULT:      -8.1      6.387     12.154
REMARK  Name = 
REMARK  12 active torsions:
REMARK  status: ('A' for Active; 'I' for Inactive)
REMARK    1  A    between atoms: C_1  and  O_2
REMARK    2  A    between atoms: O_2  and  C_3
REMARK    3  A    between atoms: C_6  and  C_7
REMARK    4  A    between atoms: N_9  and  C_10
REMARK    5  A    between atoms: C_15  and  C_16
REMARK    6  A    between atoms: C_19  and  C_20
REMARK    7  A    between atoms: C_30  and  C_31
REMARK    8  A    between atoms: C_31  and  C_32
REMARK    9  A    between atoms: C_32  and  C_33
REMARK   10  A    between atoms: C_33  and  N_34
REMARK   11  A    between atoms: N_34  and  C_35
REMARK   12  A    between atoms: N_34  and  C_36
REMARK                            x       y       z     vdW  Elec       q    Type
REMARK                         _______ _______ _______ _____ _____    ______ ____
ROOT
ATOM      1  C   UNL     1       1.109   8.788  20.683  0.00  0.00    +0.000 A 
ATOM      2  C   UNL     1       1.061   8.626  22.071  0.00  0.00    +0.000 A 
ATOM      3  C   UNL     1       0.238   9.414  22.878  0.00  0.00    +0.000 A 
ATOM      4  C   UNL     1      -0.512  10.381  22.228  0.00  0.00    +0.000 A 
ATOM      5  O   UNL     1      -1.328  11.261  22.848  0.00  0.00    +0.000 OA
ATOM      6  C   UNL     1      -1.844  12.092  21.896  0.00  0.00    +0.000 A 
ATOM      7  C   UNL     1      -1.404  11.683  20.648  0.00  0.00    +0.000 A 
ATOM      8  C   UNL     1      -0.505  10.597  20.858  0.00  0.00    +0.000 A 
ATOM      9  C   UNL     1       0.330   9.786  20.059  0.00  0.00    +0.000 A 
ENDROOT
BRANCH   6  10
ATOM     10  C   UNL     1      -2.634  13.205  22.416  0.00  0.00    +0.000 A 
ATOM     11  C   UNL     1      -3.345  14.044  21.542  0.00  0.00    +0.000 A 
ATOM     12  C   UNL     1      -4.214  15.029  22.020  0.00  0.00    +0.000 A 
ATOM     13  C   UNL     1      -4.386  15.202  23.400  0.00  0.00    +0.000 A 
ATOM     14  C   UNL     1      -3.641  14.400  24.279  0.00  0.00    +0.000 A 
ATOM     15  C   UNL     1      -2.775  13.414  23.792  0.00  0.00    +0.000 A 
BRANCH  13  16
ATOM     16  C   UNL     1      -5.374  16.205  23.942  0.00  0.00    +0.000 C 
ATOM     17  F   UNL     1      -5.670  17.210  23.070  0.00  0.00    +0.000 F 
ATOM     18  F   UNL     1      -6.568  15.633  24.264  0.00  0.00    +0.000 F 
ATOM     19  F   UNL     1      -4.934  16.814  25.077  0.00  0.00    +0.000 F 
ENDBRANCH  13  16
ENDBRANCH   6  10
BRANCH   1  22
ATOM     20  C   UNL     1       2.237   8.251  18.536  0.00  0.00    +0.000 C 
ATOM     21  O   UNL     1       1.923   9.249  17.895  0.00  0.00    +0.000 OA
ATOM     22  N   UNL     1       1.954   8.002  19.867  0.00  0.00    +0.000 N 
ATOM     23  H   UNL     1       2.463   7.255  20.323  0.00  0.00    +0.000 HD
BRANCH  20  27
ATOM     24  C   UNL     1       4.589   5.183  16.710  0.00  0.00    +0.000 A 
ATOM     25  C   UNL     1       5.001   6.522  16.619  0.00  0.00    +0.000 A 
ATOM     26  C   UNL     1       4.244   7.542  17.198  0.00  0.00    +0.000 A 
ATOM     27  C   UNL     1       3.046   7.227  17.839  0.00  0.00    +0.000 A 
ATOM     28  C   UNL     1       2.615   5.897  17.907  0.00  0.00    +0.000 A 
ATOM     29  C   UNL     1       3.372   4.863  17.339  0.00  0.00    +0.000 A 
BRANCH  24  31
ATOM     30  C   UNL     1       6.728   4.360  16.133  0.00  0.00    +0.000 C 
ATOM     31  O   UNL     1       5.320   4.143  16.195  0.00  0.00    +0.000 OA
ENDBRANCH  24  31
BRANCH  29  32
ATOM     32  C   UNL     1       2.846   3.451  17.460  0.00  0.00    +0.000 C 
BRANCH  32  33
ATOM     33  C   UNL     1       1.537   3.312  18.243  0.00  0.00    +0.000 C 
BRANCH  33  34
ATOM     34  C   UNL     1       1.575   2.345  19.440  0.00  0.00    +0.000 C 
BRANCH  34  35
ATOM     35  N   UNL     1       1.042   2.974  20.671  0.00  0.00    +0.000 NA
ATOM     36  C   UNL     1       1.766   2.531  21.865  0.00  0.00    +0.000 C 
ATOM     37  C   UNL     1       1.106   4.435  20.579  0.00  0.00    +0.000 C 
ENDBRANCH  34  35
ENDBRANCH  33  34
ENDBRANCH  32  33
ENDBRANCH  29  32
ENDBRANCH  20  27
ENDBRANCH   1  22
TORSDOF 9
ENDMDL
MODEL 3
REMARK VINA RESULT:      -8.1      0.853      1.122
REMARK  Name = 
REMARK  12 active torsions:
REMARK  status: ('A' for Active; 'I' for Inactive)
REMARK    1  A    between atoms: C_1  and  O_2
REMARK    2  A    between atoms: O_2  and  C_3
REMARK    3  A    between atoms: C_6  and  C_7
REMARK    4  A    between atoms: N_9  and  C_10
REMARK    5  A    between atoms: C_15  and  C_16
REMARK    6  A    between atoms: C_19  and  C_20
REMARK    7  A    between atoms: C_30  and  C_31
REMARK    8  A    between atoms: C_31  and  C_32
REMARK    9  A    between atoms: C_32  and  C_33
REMARK   10  A    between atoms: C_33  and  N_34
REMARK   11  A    between atoms: N_34  and  C_35
REMARK   12  A    between atoms: N_34  and  C_36
REMARK                            x       y       z     vdW  Elec       q    Type
REMARK                         _______ _______ _______ _____ _____    ______ ____
ROOT
ATOM      1  C   UNL     1      -0.121  10.157  20.765  0.00  0.00    +0.000 A 
ATOM      2  C   UNL     1       0.122   9.063  21.601  0.00  0.00    +0.000 A 
ATOM      3  C   UNL     1       1.028   8.058  21.259  0.00  0.00    +0.000 A 
ATOM      4  C   UNL     1       1.658   8.195  20.032  0.00  0.00    +0.000 A 
ATOM      5  O   UNL     1       2.530   7.301  19.516  0.00  0.00    +0.000 OA
ATOM      6  C   UNL     1       2.890   7.740  18.275  0.00  0.00    +0.000 A 
ATOM      7  C   UNL     1       2.293   8.967  18.035  0.00  0.00    +0.000 A 
ATOM      8  C   UNL     1       1.457   9.250  19.155  0.00  0.00    +0.000 A 
ATOM      9  C   UNL     1       0.540  10.259  19.523  0.00  0.00    +0.000 A 
ENDROOT
BRANCH   6  10
ATOM     10  C   UNL     1       3.717   6.810  17.510  0.00  0.00    +0.000 A 
ATOM     11  C   UNL     1       3.561   5.423  17.666  0.00  0.00    +0.000 A 
ATOM     12  C   UNL     1       4.242   4.516  16.850  0.00  0.00    +0.000 A 
ATOM     13  C   UNL     1       5.111   4.982  15.855  0.00  0.00    +0.000 A 
ATOM     14  C   UNL     1       5.310   6.366  15.727  0.00  0.00    +0.000 A 
ATOM     15  C   UNL     1       4.621   7.269  16.546  0.00  0.00    +0.000 A 
BRANCH  13  16
ATOM     16  C   UNL     1       5.800   4.027  14.912  0.00  0.00    +0.000 C 
ATOM     17  F   UNL     1       7.088   4.370  14.629  0.00  0.00    +0.000 F 
ATOM     18  F   UNL     1       5.856   2.760  15.410  0.00  0.00    +0.000 F 
ATOM     19  F   UNL     1       5.167   3.928  13.711  0.00  0.00    +0.000 F 
ENDBRANCH  13  16
ENDBRANCH   6  10
BRANCH   1  22
ATOM     20  C   UNL     1      -1.478  11.462  22.386  0.00  0.00    +0.000 C 
ATOM     21  O   UNL     1      -1.028  11.004  23.431  0.00  0.00    +0.000 OA
ATOM     22  N   UNL     1      -1.051  11.166  21.104  0.00  0.00    +0.000 N 
ATOM     23  H   UNL     1      -1.352  11.780  20.356  0.00  0.00    +0.000 HD
BRANCH  20  27
ATOM     24  C   UNL     1      -4.505  14.478  22.531  0.00  0.00    +0.000 A 
ATOM     25  C   UNL     1      -3.687  14.259  23.650  0.00  0.00    +0.000 A 
ATOM     26  C   UNL     1      -2.700  13.272  23.630  0.00  0.00    +0.000 A 
ATOM     27  C   UNL     1      -2.553  12.472  22.498  0.00  0.00    +0.000 A 
ATOM     28  C   UNL     1      -3.385  12.666  21.390  0.00  0.00    +0.000 A 
ATOM     29  C   UNL     1      -4.373  13.660  21.394  0.00  0.00    +0.000 A 
BRANCH  24  31
ATOM     30  C   UNL     1      -5.834  16.002  23.753  0.00  0.00    +0.000 C 
ATOM     31  O   UNL     1      -5.460  15.462  22.487  0.00  0.00    +0.000 OA
ENDBRANCH  24  31
BRANCH  29  32
ATOM     32  C   UNL     1      -5.228  13.815  20.156  0.00  0.00    +0.000 C 
BRANCH  32  33
ATOM     33  C   UNL     1      -5.766  12.505  19.572  0.00  0.00    +0.000 C 
BRANCH  33  34
ATOM     34  C   UNL     1      -6.952  11.875  20.326  0.00  0.00    +0.000 C 
BRANCH  34  35
ATOM     35  N   UNL     1      -6.830  10.402  20.408  0.00  0.00    +0.000 NA
ATOM     36  C   UNL     1      -7.916   9.808  21.192  0.00  0.00    +0.000 C 
ATOM     37  C   UNL     1      -6.815   9.805  19.069  0.00  0.00    +0.000 C 
ENDBRANCH  34  35
ENDBRANCH  33  34
ENDBRANCH  32  33
ENDBRANCH  29  32
ENDBRANCH  20  27
ENDBRANCH   1  22
TORSDOF 9
ENDMDL
MODEL 4
REMARK VINA RESULT:      -8.0      6.461     12.189
REMARK  Name = 
REMARK  12 active torsions:
REMARK  status: ('A' for Active; 'I' for Inactive)
REMARK    1  A    between atoms: C_1  and  O_2
REMARK    2  A    between atoms: O_2  and  C_3
REMARK    3  A    between atoms: C_6  and  C_7
REMARK    4  A    between atoms: N_9  and  C_10
REMARK    5  A    between atoms: C_15  and  C_16
REMARK    6  A    between atoms: C_19  and  C_20
REMARK    7  A    between atoms: C_30  and  C_31
REMARK    8  A    between atoms: C_31  and  C_32
REMARK    9  A    between atoms: C_32  and  C_33
REMARK   10  A    between atoms: C_33  and  N_34
REMARK   11  A    between atoms: N_34  and  C_35
REMARK   12  A    between atoms: N_34  and  C_36
REMARK                            x       y       z     vdW  Elec       q    Type
REMARK                         _______ _______ _______ _____ _____    ______ ____
ROOT
ATOM      1  C   UNL     1       1.079   8.712  20.650  0.00  0.00    +0.000 A 
ATOM      2  C   UNL     1       0.337   8.141  21.689  0.00  0.00    +0.000 A 
ATOM      3  C   UNL     1      -0.546   8.893  22.465  0.00  0.00    +0.000 A 
ATOM      4  C   UNL     1      -0.631  10.242  22.162  0.00  0.00    +0.000 A 
ATOM      5  O   UNL     1      -1.397  11.130  22.832  0.00  0.00    +0.000 OA
ATOM      6  C   UNL     1      -1.174  12.364  22.293  0.00  0.00    +0.000 A 
ATOM      7  C   UNL     1      -0.309  12.240  21.217  0.00  0.00    +0.000 A 
ATOM      8  C   UNL     1       0.081  10.871  21.151  0.00  0.00    +0.000 A 
ATOM      9  C   UNL     1       0.966  10.092  20.374  0.00  0.00    +0.000 A 
ENDROOT
BRANCH   6  10
ATOM     10  C   UNL     1      -1.813  13.470  23.001  0.00  0.00    +0.000 A 
ATOM     11  C   UNL     1      -1.064  14.302  23.849  0.00  0.00    +0.000 A 
ATOM     12  C   UNL     1      -1.621  15.444  24.430  0.00  0.00    +0.000 A 
ATOM     13  C   UNL     1      -2.958  15.778  24.178  0.00  0.00    +0.000 A 
ATOM     14  C   UNL     1      -3.727  14.924  23.372  0.00  0.00    +0.000 A 
ATOM     15  C   UNL     1      -3.160  13.783  22.791  0.00  0.00    +0.000 A 
BRANCH  13  16
ATOM     16  C   UNL     1      -3.562  17.045  24.731  0.00  0.00    +0.000 C 
ATOM     17  F   UNL     1      -4.720  16.845  25.420  0.00  0.00    +0.000 F 
ATOM     18  F   UNL     1      -2.723  17.684  25.595  0.00  0.00    +0.000 F 
ATOM     19  F   UNL     1      -3.857  17.952  23.760  0.00  0.00    +0.000 F 
ENDBRANCH  13  16
ENDBRANCH   6  10
BRANCH   1  22
ATOM     20  C   UNL     1       2.086   7.994  18.496  0.00  0.00    +0.000 C 
ATOM     21  O   UNL     1       1.513   8.775  17.743  0.00  0.00    +0.000 OA
ATOM     22  N   UNL     1       1.987   7.955  19.875  0.00  0.00    +0.000 N 
ATOM     23  H   UNL     1       2.680   7.416  20.380  0.00  0.00    +0.000 HD
BRANCH  20  27
ATOM     24  C   UNL     1       4.773   5.073  16.905  0.00  0.00    +0.000 A 
ATOM     25  C   UNL     1       5.148   6.426  16.926  0.00  0.00    +0.000 A 
ATOM     26  C   UNL     1       4.283   7.398  17.430  0.00  0.00    +0.000 A 
ATOM     27  C   UNL     1       3.019   7.023  17.882  0.00  0.00    +0.000 A 
ATOM     28  C   UNL     1       2.627   5.681  17.835  0.00  0.00    +0.000 A 
ATOM     29  C   UNL     1       3.491   4.693  17.341  0.00  0.00    +0.000 A 
BRANCH  24  31
ATOM     30  C   UNL     1       5.846   4.072  15.053  0.00  0.00    +0.000 C 
ATOM     31  O   UNL     1       5.603   4.077  16.459  0.00  0.00    +0.000 OA
ENDBRANCH  24  31
BRANCH  29  32
ATOM     32  C   UNL     1       3.000   3.263  17.331  0.00  0.00    +0.000 C 
BRANCH  32  33
ATOM     33  C   UNL     1       1.744   3.003  18.169  0.00  0.00    +0.000 C 
BRANCH  33  34
ATOM     34  C   UNL     1       1.976   2.298  19.518  0.00  0.00    +0.000 C 
BRANCH  34  35
ATOM     35  N   UNL     1       1.144   2.884  20.594  0.00  0.00    +0.000 NA
ATOM     36  C   UNL     1       1.657   2.546  21.924  0.00  0.00    +0.000 C 
ATOM     37  C   UNL     1       1.070   4.342  20.459  0.00  0.00    +0.000 C 
ENDBRANCH  34  35
ENDBRANCH  33  34
ENDBRANCH  32  33
ENDBRANCH  29  32
ENDBRANCH  20  27
ENDBRANCH   1  22
TORSDOF 9
ENDMDL
MODEL 5
REMARK VINA RESULT:      -8.0      0.673      1.148
REMARK  Name = 
REMARK  12 active torsions:
REMARK  status: ('A' for Active; 'I' for Inactive)
REMARK    1  A    between atoms: C_1  and  O_2
REMARK    2  A    between atoms: O_2  and  C_3
REMARK    3  A    between atoms: C_6  and  C_7
REMARK    4  A    between atoms: N_9  and  C_10
REMARK    5  A    between atoms: C_15  and  C_16
REMARK    6  A    between atoms: C_19  and  C_20
REMARK    7  A    between atoms: C_30  and  C_31
REMARK    8  A    between atoms: C_31  and  C_32
REMARK    9  A    between atoms: C_32  and  C_33
REMARK   10  A    between atoms: C_33  and  N_34
REMARK   11  A    between atoms: N_34  and  C_35
REMARK   12  A    between atoms: N_34  and  C_36
REMARK                            x       y       z     vdW  Elec       q    Type
REMARK                         _______ _______ _______ _____ _____    ______ ____
ROOT
ATOM      1  C   UNL     1      -0.335  10.245  20.855  0.00  0.00    +0.000 A 
ATOM      2  C   UNL     1      -0.095   9.159  21.703  0.00  0.00    +0.000 A 
ATOM      3  C   UNL     1       0.818   8.155  21.377  0.00  0.00    +0.000 A 
ATOM      4  C   UNL     1       1.459   8.285  20.156  0.00  0.00    +0.000 A 
ATOM      5  O   UNL     1       2.339   7.390  19.655  0.00  0.00    +0.000 OA
ATOM      6  C   UNL     1       2.709   7.819  18.414  0.00  0.00    +0.000 A 
ATOM      7  C   UNL     1       2.109   9.042  18.157  0.00  0.00    +0.000 A 
ATOM      8  C   UNL     1       1.262   9.331  19.268  0.00  0.00    +0.000 A 
ATOM      9  C   UNL     1       0.338  10.339  19.618  0.00  0.00    +0.000 A 
ENDROOT
BRANCH   6  10
ATOM     10  C   UNL     1       3.547   6.886  17.665  0.00  0.00    +0.000 A 
ATOM     11  C   UNL     1       4.252   7.315  16.528  0.00  0.00    +0.000 A 
ATOM     12  C   UNL     1       5.164   6.480  15.877  0.00  0.00    +0.000 A 
ATOM     13  C   UNL     1       5.386   5.180  16.349  0.00  0.00    +0.000 A 
ATOM     14  C   UNL     1       4.648   4.728  17.454  0.00  0.00    +0.000 A 
ATOM     15  C   UNL     1       3.738   5.572  18.104  0.00  0.00    +0.000 A 
BRANCH  13  16
ATOM     16  C   UNL     1       6.419   4.285  15.710  0.00  0.00    +0.000 C 
ATOM     17  F   UNL     1       7.556   4.148  16.448  0.00  0.00    +0.000 F 
ATOM     18  F   UNL     1       5.953   3.020  15.510  0.00  0.00    +0.000 F 
ATOM     19  F   UNL     1       6.817   4.733  14.488  0.00  0.00    +0.000 F 
ENDBRANCH  13  16
ENDBRANCH   6  10
BRANCH   1  22
ATOM     20  C   UNL     1      -1.360  11.904  22.394  0.00  0.00    +0.000 C 
ATOM     21  O   UNL     1      -0.570  11.817  23.329  0.00  0.00    +0.000 OA
ATOM     22  N   UNL     1      -1.272  11.253  21.177  0.00  0.00    +0.000 N 
ATOM     23  H   UNL     1      -1.859  11.588  20.422  0.00  0.00    +0.000 HD
BRANCH  20  27
ATOM     24  C   UNL     1      -4.584  14.699  22.677  0.00  0.00    +0.000 A 
ATOM     25  C   UNL     1      -3.717  14.523  23.767  0.00  0.00    +0.000 A 
ATOM     26  C   UNL     1      -2.665  13.609  23.702  0.00  0.00    +0.000 A 
ATOM     27  C   UNL     1      -2.498  12.835  22.554  0.00  0.00    +0.000 A 
ATOM     28  C   UNL     1      -3.378  12.984  21.475  0.00  0.00    +0.000 A 
ATOM     29  C   UNL     1      -4.432  13.906  21.525  0.00  0.00    +0.000 A 
BRANCH  24  31
ATOM     30  C   UNL     1      -6.647  15.361  23.620  0.00  0.00    +0.000 C 
ATOM     31  O   UNL     1      -5.606  15.613  22.678  0.00  0.00    +0.000 OA
ENDBRANCH  24  31
BRANCH  29  32
ATOM     32  C   UNL     1      -5.335  14.015  20.317  0.00  0.00    +0.000 C 
BRANCH  32  33
ATOM     33  C   UNL     1      -5.837  12.680  19.760  0.00  0.00    +0.000 C 
BRANCH  33  34
ATOM     34  C   UNL     1      -5.874  12.569  18.224  0.00  0.00    +0.000 C 
BRANCH  34  35
ATOM     35  N   UNL     1      -5.836  11.158  17.775  0.00  0.00    +0.000 NA
ATOM     36  C   UNL     1      -4.464  10.651  17.690  0.00  0.00    +0.000 C 
ATOM     37  C   UNL     1      -6.614  10.303  18.676  0.00  0.00    +0.000 C 
ENDBRANCH  34  35
ENDBRANCH  33  34
ENDBRANCH  32  33
ENDBRANCH  29  32
ENDBRANCH  20  27
ENDBRANCH   1  22
TORSDOF 9
ENDMDL
MODEL 6
REMARK VINA RESULT:      -7.9      6.467     12.730
REMARK  Name = 
REMARK  12 active torsions:
REMARK  status: ('A' for Active; 'I' for Inactive)
REMARK    1  A    between atoms: C_1  and  O_2
REMARK    2  A    between atoms: O_2  and  C_3
REMARK    3  A    between atoms: C_6  and  C_7
REMARK    4  A    between atoms: N_9  and  C_10
REMARK    5  A    between atoms: C_15  and  C_16
REMARK    6  A    between atoms: C_19  and  C_20
REMARK    7  A    between atoms: C_30  and  C_31
REMARK    8  A    between atoms: C_31  and  C_32
REMARK    9  A    between atoms: C_32  and  C_33
REMARK   10  A    between atoms: C_33  and  N_34
REMARK   11  A    between atoms: N_34  and  C_35
REMARK   12  A    between atoms: N_34  and  C_36
REMARK                            x       y       z     vdW  Elec       q    Type
REMARK                         _______ _______ _______ _____ _____    ______ ____
ROOT
ATOM      1  C   UNL     1       1.059   9.120  20.480  0.00  0.00    +0.000 A 
ATOM      2  C   UNL     1       1.006  10.150  19.537  0.00  0.00    +0.000 A 
ATOM      3  C   UNL     1       0.309  11.335  19.776  0.00  0.00    +0.000 A 
ATOM      4  C   UNL     1      -0.346  11.424  20.993  0.00  0.00    +0.000 A 
ATOM      5  O   UNL     1      -1.104  12.474  21.379  0.00  0.00    +0.000 OA
ATOM      6  C   UNL     1      -1.635  12.178  22.601  0.00  0.00    +0.000 A 
ATOM      7  C   UNL     1      -1.145  10.954  23.026  0.00  0.00    +0.000 A 
ATOM      8  C   UNL     1      -0.339  10.439  21.968  0.00  0.00    +0.000 A 
ATOM      9  C   UNL     1       0.376   9.249  21.709  0.00  0.00    +0.000 A 
ENDROOT
BRANCH   6  10
ATOM     10  C   UNL     1      -2.607  13.148  23.101  0.00  0.00    +0.000 A 
ATOM     11  C   UNL     1      -2.284  14.513  23.164  0.00  0.00    +0.000 A 
ATOM     12  C   UNL     1      -3.238  15.474  23.508  0.00  0.00    +0.000 A 
ATOM     13  C   UNL     1      -4.550  15.084  23.808  0.00  0.00    +0.000 A 
ATOM     14  C   UNL     1      -4.867  13.716  23.795  0.00  0.00    +0.000 A 
ATOM     15  C   UNL     1      -3.906  12.760  23.446  0.00  0.00    +0.000 A 
BRANCH  13  16
ATOM     16  C   UNL     1      -5.618  16.106  24.109  0.00  0.00    +0.000 C 
ATOM     17  F   UNL     1      -6.848  15.565  24.331  0.00  0.00    +0.000 F 
ATOM     18  F   UNL     1      -5.331  16.841  25.221  0.00  0.00    +0.000 F 
ATOM     19  F   UNL     1      -5.781  17.005  23.100  0.00  0.00    +0.000 F 
ENDBRANCH  13  16
ENDBRANCH   6  10
BRANCH   1  22
ATOM     20  C   UNL     1       2.319   7.550  19.024  0.00  0.00    +0.000 C 
ATOM     21  O   UNL     1       2.436   8.258  18.029  0.00  0.00    +0.000 OA
ATOM     22  N   UNL     1       1.751   7.912  20.232  0.00  0.00    +0.000 N 
ATOM     23  H   UNL     1       1.924   7.313  21.031  0.00  0.00    +0.000 HD
BRANCH  20  27
ATOM     24  C   UNL     1       3.834   3.570  18.641  0.00  0.00    +0.000 A 
ATOM     25  C   UNL     1       3.224   3.970  19.840  0.00  0.00    +0.000 A 
ATOM     26  C   UNL     1       2.732   5.267  19.992  0.00  0.00    +0.000 A 
ATOM     27  C   UNL     1       2.884   6.185  18.953  0.00  0.00    +0.000 A 
ATOM     28  C   UNL     1       3.519   5.801  17.766  0.00  0.00    +0.000 A 
ATOM     29  C   UNL     1       4.008   4.498  17.598  0.00  0.00    +0.000 A 
BRANCH  24  31
ATOM     30  C   UNL     1       3.333   1.261  18.625  0.00  0.00    +0.000 C 
ATOM     31  O   UNL     1       4.295   2.296  18.428  0.00  0.00    +0.000 OA
ENDBRANCH  24  31
BRANCH  29  32
ATOM     32  C   UNL     1       4.673   4.156  16.284  0.00  0.00    +0.000 C 
BRANCH  32  33
ATOM     33  C   UNL     1       6.194   4.339  16.261  0.00  0.00    +0.000 C 
BRANCH  33  34
ATOM     34  C   UNL     1       6.689   5.790  16.116  0.00  0.00    +0.000 C 
BRANCH  34  35
ATOM     35  N   UNL     1       7.677   6.140  17.162  0.00  0.00    +0.000 NA
ATOM     36  C   UNL     1       7.548   7.536  17.587  0.00  0.00    +0.000 C 
ATOM     37  C   UNL     1       7.534   5.263  18.328  0.00  0.00    +0.000 C 
ENDBRANCH  34  35
ENDBRANCH  33  34
ENDBRANCH  32  33
ENDBRANCH  29  32
ENDBRANCH  20  27
ENDBRANCH   1  22
TORSDOF 9
ENDMDL
MODEL 7
REMARK VINA RESULT:      -7.8      1.572      2.257
REMARK  Name = 
REMARK  12 active torsions:
REMARK  status: ('A' for Active; 'I' for Inactive)
REMARK    1  A    between atoms: C_1  and  O_2
REMARK    2  A    between atoms: O_2  and  C_3
REMARK    3  A    between atoms: C_6  and  C_7
REMARK    4  A    between atoms: N_9  and  C_10
REMARK    5  A    between atoms: C_15  and  C_16
REMARK    6  A    between atoms: C_19  and  C_20
REMARK    7  A    between atoms: C_30  and  C_31
REMARK    8  A    between atoms: C_31  and  C_32
REMARK    9  A    between atoms: C_32  and  C_33
REMARK   10  A    between atoms: C_33  and  N_34
REMARK   11  A    between atoms: N_34  and  C_35
REMARK   12  A    between atoms: N_34  and  C_36
REMARK                            x       y       z     vdW  Elec       q    Type
REMARK                         _______ _______ _______ _____ _____    ______ ____
ROOT
ATOM      1  C   UNL     1      -0.359  10.726  20.176  0.00  0.00    +0.000 A 
ATOM      2  C   UNL     1      -0.532  10.890  18.799  0.00  0.00    +0.000 A 
ATOM      3  C   UNL     1       0.121  10.078  17.870  0.00  0.00    +0.000 A 
ATOM      4  C   UNL     1       0.968   9.113  18.391  0.00  0.00    +0.000 A 
ATOM      5  O   UNL     1       1.714   8.267  17.646  0.00  0.00    +0.000 OA
ATOM      6  C   UNL     1       2.462   7.510  18.501  0.00  0.00    +0.000 A 
ATOM      7  C   UNL     1       2.129   7.833  19.806  0.00  0.00    +0.000 A 
ATOM      8  C   UNL     1       1.188   8.902  19.744  0.00  0.00    +0.000 A 
ATOM      9  C   UNL     1       0.514   9.731  20.667  0.00  0.00    +0.000 A 
ENDROOT
BRANCH   6  10
ATOM     10  C   UNL     1       3.443   6.642  17.854  0.00  0.00    +0.000 A 
ATOM     11  C   UNL     1       3.230   5.255  17.782  0.00  0.00    +0.000 A 
ATOM     12  C   UNL     1       4.083   4.423  17.052  0.00  0.00    +0.000 A 
ATOM     13  C   UNL     1       5.185   4.965  16.377  0.00  0.00    +0.000 A 
ATOM     14  C   UNL     1       5.431   6.343  16.486  0.00  0.00    +0.000 A 
ATOM     15  C   UNL     1       4.570   7.171  17.216  0.00  0.00    +0.000 A 
BRANCH  13  16
ATOM     16  C   UNL     1       6.077   4.101  15.521  0.00  0.00    +0.000 C 
ATOM     17  F   UNL     1       5.934   4.320  14.184  0.00  0.00    +0.000 F 
ATOM     18  F   UNL     1       7.399   4.298  15.789  0.00  0.00    +0.000 F 
ATOM     19  F   UNL     1       5.853   2.771  15.708  0.00  0.00    +0.000 F 
ENDBRANCH  13  16
ENDBRANCH   6  10
BRANCH   1  22
ATOM     20  C   UNL     1      -0.654  12.866  21.403  0.00  0.00    +0.000 C 
ATOM     21  O   UNL     1       0.171  13.549  20.805  0.00  0.00    +0.000 OA
ATOM     22  N   UNL     1      -1.006  11.559  21.117  0.00  0.00    +0.000 N 
ATOM     23  H   UNL     1      -1.854  11.198  21.540  0.00  0.00    +0.000 HD
BRANCH  20  27
ATOM     24  C   UNL     1      -2.925  14.794  24.470  0.00  0.00    +0.000 A 
ATOM     25  C   UNL     1      -1.569  15.115  24.302  0.00  0.00    +0.000 A 
ATOM     26  C   UNL     1      -0.805  14.490  23.316  0.00  0.00    +0.000 A 
ATOM     27  C   UNL     1      -1.388  13.510  22.514  0.00  0.00    +0.000 A 
ATOM     28  C   UNL     1      -2.732  13.164  22.696  0.00  0.00    +0.000 A 
ATOM     29  C   UNL     1      -3.513  13.791  23.677  0.00  0.00    +0.000 A 
BRANCH  24  31
ATOM     30  C   UNL     1      -4.152  16.728  25.054  0.00  0.00    +0.000 C 
ATOM     31  O   UNL     1      -3.728  15.409  25.397  0.00  0.00    +0.000 OA
ENDBRANCH  24  31
BRANCH  29  32
ATOM     32  C   UNL     1      -4.959  13.371  23.807  0.00  0.00    +0.000 C 
BRANCH  32  33
ATOM     33  C   UNL     1      -5.819  13.611  22.563  0.00  0.00    +0.000 C 
BRANCH  33  34
ATOM     34  C   UNL     1      -6.961  12.603  22.335  0.00  0.00    +0.000 C 
BRANCH  34  35
ATOM     35  N   UNL     1      -6.581  11.555  21.359  0.00  0.00    +0.000 NA
ATOM     36  C   UNL     1      -7.753  10.848  20.837  0.00  0.00    +0.000 C 
ATOM     37  C   UNL     1      -5.825  12.131  20.244  0.00  0.00    +0.000 C 
ENDBRANCH  34  35
ENDBRANCH  33  34
ENDBRANCH  32  33
ENDBRANCH  29  32
ENDBRANCH  20  27
ENDBRANCH   1  22
TORSDOF 9
ENDMDL
MODEL 8
REMARK VINA RESULT:      -7.8      6.268     12.262
REMARK  Name = 
REMARK  12 active torsions:
REMARK  status: ('A' for Active; 'I' for Inactive)
REMARK    1  A    between atoms: C_1  and  O_2
REMARK    2  A    between atoms: O_2  and  C_3
REMARK    3  A    between atoms: C_6  and  C_7
REMARK    4  A    between atoms: N_9  and  C_10
REMARK    5  A    between atoms: C_15  and  C_16
REMARK    6  A    between atoms: C_19  and  C_20
REMARK    7  A    between atoms: C_30  and  C_31
REMARK    8  A    between atoms: C_31  and  C_32
REMARK    9  A    between atoms: C_32  and  C_33
REMARK   10  A    between atoms: C_33  and  N_34
REMARK   11  A    between atoms: N_34  and  C_35
REMARK   12  A    between atoms: N_34  and  C_36
REMARK                            x       y       z     vdW  Elec       q    Type
REMARK                         _______ _______ _______ _____ _____    ______ ____
ROOT
ATOM      1  C   UNL     1       1.648   9.891  18.652  0.00  0.00    +0.000 A 
ATOM      2  C   UNL     1       1.832  11.206  18.213  0.00  0.00    +0.000 A 
ATOM      3  C   UNL     1       1.187  12.285  18.820  0.00  0.00    +0.000 A 
ATOM      4  C   UNL     1       0.336  11.977  19.869  0.00  0.00    +0.000 A 
ATOM      5  O   UNL     1      -0.404  12.883  20.546  0.00  0.00    +0.000 OA
ATOM      6  C   UNL     1      -1.159  12.205  21.458  0.00  0.00    +0.000 A 
ATOM      7  C   UNL     1      -0.837  10.859  21.407  0.00  0.00    +0.000 A 
ATOM      8  C   UNL     1       0.104  10.696  20.348  0.00  0.00    +0.000 A 
ATOM      9  C   UNL     1       0.770   9.619  19.723  0.00  0.00    +0.000 A 
ENDROOT
BRANCH   6  10
ATOM     10  C   UNL     1      -2.135  13.023  22.176  0.00  0.00    +0.000 A 
ATOM     11  C   UNL     1      -1.772  13.692  23.356  0.00  0.00    +0.000 A 
ATOM     12  C   UNL     1      -2.644  14.585  23.986  0.00  0.00    +0.000 A 
ATOM     13  C   UNL     1      -3.914  14.824  23.445  0.00  0.00    +0.000 A 
ATOM     14  C   UNL     1      -4.301  14.121  22.293  0.00  0.00    +0.000 A 
ATOM     15  C   UNL     1      -3.421  13.230  21.667  0.00  0.00    +0.000 A 
BRANCH  13  16
ATOM     16  C   UNL     1      -4.845  15.839  24.061  0.00  0.00    +0.000 C 
ATOM     17  F   UNL     1      -6.101  15.364  24.290  0.00  0.00    +0.000 F 
ATOM     18  F   UNL     1      -4.394  16.289  25.267  0.00  0.00    +0.000 F 
ATOM     19  F   UNL     1      -5.000  16.947  23.285  0.00  0.00    +0.000 F 
ENDBRANCH  13  16
ENDBRANCH   6  10
BRANCH   1  22
ATOM     20  C   UNL     1       2.592   7.594  18.637  0.00  0.00    +0.000 C 
ATOM     21  O   UNL     1       2.242   7.232  19.756  0.00  0.00    +0.000 OA
ATOM     22  N   UNL     1       2.287   8.797  18.026  0.00  0.00    +0.000 N 
ATOM     23  H   UNL     1       2.445   8.870  17.028  0.00  0.00    +0.000 HD
BRANCH  20  27
ATOM     24  C   UNL     1       4.907   4.712  16.487  0.00  0.00    +0.000 A 
ATOM     25  C   UNL     1       5.206   6.078  16.364  0.00  0.00    +0.000 A 
ATOM     26  C   UNL     1       4.457   7.037  17.047  0.00  0.00    +0.000 A 
ATOM     27  C   UNL     1       3.377   6.634  17.830  0.00  0.00    +0.000 A 
ATOM     28  C   UNL     1       3.054   5.276  17.934  0.00  0.00    +0.000 A 
ATOM     29  C   UNL     1       3.805   4.302  17.260  0.00  0.00    +0.000 A 
BRANCH  24  31
ATOM     30  C   UNL     1       5.900   3.948  14.484  0.00  0.00    +0.000 C 
ATOM     31  O   UNL     1       5.638   3.730  15.870  0.00  0.00    +0.000 OA
ENDBRANCH  24  31
BRANCH  29  32
ATOM     32  C   UNL     1       3.401   2.855  17.428  0.00  0.00    +0.000 C 
BRANCH  32  33
ATOM     33  C   UNL     1       1.999   2.636  18.005  0.00  0.00    +0.000 C 
BRANCH  33  34
ATOM     34  C   UNL     1       1.923   1.730  19.249  0.00  0.00    +0.000 C 
BRANCH  34  35
ATOM     35  N   UNL     1       1.588   2.500  20.469  0.00  0.00    +0.000 NA
ATOM     36  C   UNL     1       2.787   2.873  21.223  0.00  0.00    +0.000 C 
ATOM     37  C   UNL     1       0.831   3.709  20.130  0.00  0.00    +0.000 C 
ENDBRANCH  34  35
ENDBRANCH  33  34
ENDBRANCH  32  33
ENDBRANCH  29  32
ENDBRANCH  20  27
ENDBRANCH   1  22
TORSDOF 9
ENDMDL
MODEL 9
REMARK VINA RESULT:      -7.8      6.156     12.249
REMARK  Name = 
REMARK  12 active torsions:
REMARK  status: ('A' for Active; 'I' for Inactive)
REMARK    1  A    between atoms: C_1  and  O_2
REMARK    2  A    between atoms: O_2  and  C_3
REMARK    3  A    between atoms: C_6  and  C_7
REMARK    4  A    between atoms: N_9  and  C_10
REMARK    5  A    between atoms: C_15  and  C_16
REMARK    6  A    between atoms: C_19  and  C_20
REMARK    7  A    between atoms: C_30  and  C_31
REMARK    8  A    between atoms: C_31  and  C_32
REMARK    9  A    between atoms: C_32  and  C_33
REMARK   10  A    between atoms: C_33  and  N_34
REMARK   11  A    between atoms: N_34  and  C_35
REMARK   12  A    between atoms: N_34  and  C_36
REMARK                            x       y       z     vdW  Elec       q    Type
REMARK                         _______ _______ _______ _____ _____    ______ ____
ROOT
ATOM      1  C   UNL     1       1.795   9.917  18.418  0.00  0.00    +0.000 A 
ATOM      2  C   UNL     1       2.175  11.231  18.132  0.00  0.00    +0.000 A 
ATOM      3  C   UNL     1       1.534  12.328  18.712  0.00  0.00    +0.000 A 
ATOM      4  C   UNL     1       0.486  12.040  19.570  0.00  0.00    +0.000 A 
ATOM      5  O   UNL     1      -0.276  12.971  20.187  0.00  0.00    +0.000 OA
ATOM      6  C   UNL     1      -1.241  12.316  20.895  0.00  0.00    +0.000 A 
ATOM      7  C   UNL     1      -1.040  10.949  20.783  0.00  0.00    +0.000 A 
ATOM      8  C   UNL     1       0.055  10.762  19.890  0.00  0.00    +0.000 A 
ATOM      9  C   UNL     1       0.719   9.666  19.297  0.00  0.00    +0.000 A 
ENDROOT
BRANCH   6  10
ATOM     10  C   UNL     1      -2.249  13.180  21.505  0.00  0.00    +0.000 A 
ATOM     11  C   UNL     1      -3.444  13.470  20.827  0.00  0.00    +0.000 A 
ATOM     12  C   UNL     1      -4.478  14.181  21.442  0.00  0.00    +0.000 A 
ATOM     13  C   UNL     1      -4.334  14.628  22.762  0.00  0.00    +0.000 A 
ATOM     14  C   UNL     1      -3.122  14.384  23.429  0.00  0.00    +0.000 A 
ATOM     15  C   UNL     1      -2.092  13.669  22.806  0.00  0.00    +0.000 A 
BRANCH  13  16
ATOM     16  C   UNL     1      -5.463  15.330  23.475  0.00  0.00    +0.000 C 
ATOM     17  F   UNL     1      -5.046  16.212  24.426  0.00  0.00    +0.000 F 
ATOM     18  F   UNL     1      -6.245  16.050  22.621  0.00  0.00    +0.000 F 
ATOM     19  F   UNL     1      -6.301  14.465  24.109  0.00  0.00    +0.000 F 
ENDBRANCH  13  16
ENDBRANCH   6  10
BRANCH   1  22
ATOM     20  C   UNL     1       2.750   7.624  18.462  0.00  0.00    +0.000 C 
ATOM     21  O   UNL     1       2.416   7.295  19.595  0.00  0.00    +0.000 OA
ATOM     22  N   UNL     1       2.431   8.806  17.818  0.00  0.00    +0.000 N 
ATOM     23  H   UNL     1       2.576   8.849  16.816  0.00  0.00    +0.000 HD
BRANCH  20  27
ATOM     24  C   UNL     1       5.039   4.680  16.369  0.00  0.00    +0.000 A 
ATOM     25  C   UNL     1       5.385   6.037  16.262  0.00  0.00    +0.000 A 
ATOM     26  C   UNL     1       4.646   7.016  16.927  0.00  0.00    +0.000 A 
ATOM     27  C   UNL     1       3.529   6.643  17.674  0.00  0.00    +0.000 A 
ATOM     28  C   UNL     1       3.161   5.296  17.760  0.00  0.00    +0.000 A 
ATOM     29  C   UNL     1       3.901   4.302  17.106  0.00  0.00    +0.000 A 
BRANCH  24  31
ATOM     30  C   UNL     1       6.159   3.939  14.425  0.00  0.00    +0.000 C 
ATOM     31  O   UNL     1       5.758   3.678  15.770  0.00  0.00    +0.000 OA
ENDBRANCH  24  31
BRANCH  29  32
ATOM     32  C   UNL     1       3.447   2.867  17.253  0.00  0.00    +0.000 C 
BRANCH  32  33
ATOM     33  C   UNL     1       2.166   2.674  18.070  0.00  0.00    +0.000 C 
BRANCH  33  34
ATOM     34  C   UNL     1       2.328   1.903  19.394  0.00  0.00    +0.000 C 
BRANCH  34  35
ATOM     35  N   UNL     1       1.506   2.492  20.476  0.00  0.00    +0.000 NA
ATOM     36  C   UNL     1       2.300   2.759  21.678  0.00  0.00    +0.000 C 
ATOM     37  C   UNL     1       0.869   3.735  20.029  0.00  0.00    +0.000 C 
ENDBRANCH  34  35
ENDBRANCH  33  34
ENDBRANCH  32  33
ENDBRANCH  29  32
ENDBRANCH  20  27
ENDBRANCH   1  22
TORSDOF 9
ENDMDL
