MODEL 1
REMARK VINA RESULT:      -8.3      0.000      0.000
REMARK  Name = 
REMARK  13 active torsions:
REMARK  status: ('A' for Active; 'I' for Inactive)
REMARK    1  A    between atoms: C_1  and  N_2
REMARK    2  A    between atoms: N_2  and  C_3
REMARK    3  A    between atoms: N_2  and  C_4
REMARK    4  A    between atoms: C_7  and  C_8
REMARK    5  A    between atoms: N_14  and  C_15
REMARK    6  A    between atoms: C_15  and  C_16
REMARK    7  A    between atoms: C_16  and  C_17
REMARK    8  A    between atoms: C_17  and  N_18
REMARK    9  A    between atoms: C_26  and  N_27
REMARK   10  A    between atoms: N_27  and  C_28
REMARK   11  A    between atoms: C_28  and  C_29
REMARK   12  A    between atoms: C_28  and  C_30
REMARK   13  A    between atoms: C_28  and  C_31
REMARK                            x       y       z     vdW  Elec       q    Type
REMARK                         _______ _______ _______ _____ _____    ______ ____
ROOT
ATOM      1  C   UNL     1       3.062   6.774  18.360  0.00  0.00    +0.000 A 
ATOM      2  N   UNL     1       2.533   8.042  18.188  0.00  0.00    +0.000 NA
ATOM      3  C   UNL     1       1.852   8.271  19.285  0.00  0.00    +0.000 A 
ATOM      4  C   UNL     1       1.065   9.452  19.699  0.00  0.00    +0.000 A 
ATOM      5  N   UNL     1       0.760  10.642  19.112  0.00  0.00    +0.000 NA
ATOM      6  C   UNL     1      -0.012  11.249  19.998  0.00  0.00    +0.000 A 
ATOM      7  N   UNL     1      -0.181  10.499  21.136  0.00  0.00    +0.000 N 
ATOM      8  C   UNL     1       0.506   9.338  20.953  0.00  0.00    +0.000 A 
ATOM      9  N   UNL     1       0.575   8.326  21.849  0.00  0.00    +0.000 NA
ATOM     10  C   UNL     1       1.280   7.302  21.432  0.00  0.00    +0.000 A 
ATOM     11  N   UNL     1       1.914   7.219  20.179  0.00  0.00    +0.000 N 
ATOM     12  C   UNL     1       2.698   6.221  19.599  0.00  0.00    +0.000 A 
ENDROOT
BRANCH   1  16
ATOM     13  C   UNL     1       5.559   5.040  15.252  0.00  0.00    +0.000 A 
ATOM     14  C   UNL     1       5.481   6.419  15.477  0.00  0.00    +0.000 A 
ATOM     15  C   UNL     1       4.668   6.979  16.482  0.00  0.00    +0.000 A 
ATOM     16  C   UNL     1       3.908   6.170  17.333  0.00  0.00    +0.000 A 
ATOM     17  C   UNL     1       3.964   4.791  17.123  0.00  0.00    +0.000 A 
ATOM     18  C   UNL     1       4.777   4.245  16.111  0.00  0.00    +0.000 A 
BRANCH  13  20
ATOM     19  C   UNL     1       7.645   5.086  13.911  0.00  0.00    +0.000 C 
ATOM     20  N   UNL     1       6.359   4.486  14.258  0.00  0.00    +0.000 N 
ATOM     21  C   UNL     1       5.821   3.490  13.339  0.00  0.00    +0.000 C 
ENDBRANCH  13  20
ENDBRANCH   1  16
BRANCH  12  22
ATOM     22  N   UNL     1       3.114   5.058  20.205  0.00  0.00    +0.000 N 
ATOM     23  H   UNL     1       4.129   4.937  20.246  0.00  0.00    +0.000 HD
BRANCH  22  24
ATOM     24  C   UNL     1       2.414   3.760  20.298  0.00  0.00    +0.000 C 
ATOM     25  C   UNL     1       1.224   3.634  19.331  0.00  0.00    +0.000 C 
ATOM     26  C   UNL     1       3.413   2.644  19.896  0.00  0.00    +0.000 C 
ATOM     27  C   UNL     1       2.066   3.479  21.772  0.00  0.00    +0.000 C 
ENDBRANCH  22  24
ENDBRANCH  12  22
BRANCH   7  28
ATOM     28  C   UNL     1      -0.968  10.839  22.305  0.00  0.00    +0.000 C 
BRANCH  28  29
ATOM     29  C   UNL     1      -1.096  12.344  22.549  0.00  0.00    +0.000 C 
BRANCH  29  30
ATOM     30  C   UNL     1      -2.527  12.834  22.346  0.00  0.00    +0.000 C 
BRANCH  30  31
ATOM     31  N   UNL     1      -3.431  12.221  23.292  0.00  0.00    +0.000 N 
ATOM     32  C   UNL     1      -4.044  12.837  24.321  0.00  0.00    +0.000 C 
ATOM     33  N   UNL     1      -3.883  14.031  24.754  0.00  0.00    +0.000 NA
ATOM     34  N   UNL     1      -4.905  12.013  24.953  0.00  0.00    +0.000 N 
ATOM     35  H   UNL     1      -3.934  11.418  22.930  0.00  0.00    +0.000 HD
ATOM     36  H   UNL     1      -3.195  14.515  24.180  0.00  0.00    +0.000 HD
ATOM     37  H   UNL     1      -4.545  11.079  25.089  0.00  0.00    +0.000 HD
ATOM     38  H   UNL     1      -5.175  12.427  25.841  0.00  0.00    +0.000 HD
ENDBRANCH  30  31
ENDBRANCH  29  30
ENDBRANCH  28  29
ENDBRANCH   7  28
TORSDOF 8
ENDMDL
MODEL 2
REMARK VINA RESULT:      -8.2      0.135      1.131
REMARK  Name = 
REMARK  13 active torsions:
REMARK  status: ('A' for Active; 'I' for Inactive)
REMARK    1  A    between atoms: C_1  and  N_2
REMARK    2  A    between atoms: N_2  and  C_3
REMARK    3  A    between atoms: N_2  and  C_4
REMARK    4  A    between atoms: C_7  and  C_8
REMARK    5  A    between atoms: N_14  and  C_15
REMARK    6  A    between atoms: C_15  and  C_16
REMARK    7  A    between atoms: C_16  and  C_17
REMARK    8  A    between atoms: C_17  and  N_18
REMARK    9  A    between atoms: C_26  and  N_27
REMARK   10  A    between atoms: N_27  and  C_28
REMARK   11  A    between atoms: C_28  and  C_29
REMARK   12  A    between atoms: C_28  and  C_30
REMARK   13  A    between atoms: C_28  and  C_31
REMARK                            x       y       z     vdW  Elec       q    Type
REMARK                         _______ _______ _______ _____ _____    ______ ____
ROOT
ATOM      1  C   UNL     1       3.107   6.870  18.249  0.00  0.00    +0.000 A 
ATOM      2  N   UNL     1       2.525   8.116  18.093  0.00  0.00    +0.000 NA
ATOM      3  C   UNL     1       1.876   8.323  19.213  0.00  0.00    +0.000 A 
ATOM      4  C   UNL     1       1.060   9.475  19.654  0.00  0.00    +0.000 A 
ATOM      5  N   UNL     1       0.690  10.651  19.076  0.00  0.00    +0.000 NA
ATOM      6  C   UNL     1      -0.072  11.231  19.988  0.00  0.00    +0.000 A 
ATOM      7  N   UNL     1      -0.172  10.479  21.133  0.00  0.00    +0.000 N 
ATOM      8  C   UNL     1       0.550   9.344  20.927  0.00  0.00    +0.000 A 
ATOM      9  N   UNL     1       0.689   8.338  21.822  0.00  0.00    +0.000 NA
ATOM     10  C   UNL     1       1.417   7.339  21.381  0.00  0.00    +0.000 A 
ATOM     11  N   UNL     1       2.009   7.277  20.107  0.00  0.00    +0.000 N 
ATOM     12  C   UNL     1       2.808   6.308  19.501  0.00  0.00    +0.000 A 
ENDROOT
BRANCH   1  16
ATOM     13  C   UNL     1       5.602   5.097  15.160  0.00  0.00    +0.000 A 
ATOM     14  C   UNL     1       4.800   4.334  16.015  0.00  0.00    +0.000 A 
ATOM     15  C   UNL     1       3.995   4.909  17.018  0.00  0.00    +0.000 A 
ATOM     16  C   UNL     1       3.939   6.295  17.193  0.00  0.00    +0.000 A 
ATOM     17  C   UNL     1       4.736   7.079  16.357  0.00  0.00    +0.000 A 
ATOM     18  C   UNL     1       5.539   6.490  15.361  0.00  0.00    +0.000 A 
BRANCH  13  20
ATOM     19  C   UNL     1       7.664   5.147  13.783  0.00  0.00    +0.000 C 
ATOM     20  N   UNL     1       6.399   4.529  14.171  0.00  0.00    +0.000 N 
ATOM     21  C   UNL     1       5.869   3.492  13.294  0.00  0.00    +0.000 C 
ENDBRANCH  13  20
ENDBRANCH   1  16
BRANCH  12  22
ATOM     22  N   UNL     1       3.289   5.162  20.093  0.00  0.00    +0.000 N 
ATOM     23  H   UNL     1       4.305   5.051  20.046  0.00  0.00    +0.000 HD
BRANCH  22  24
ATOM     24  C   UNL     1       2.614   3.861  20.277  0.00  0.00    +0.000 C 
ATOM     25  C   UNL     1       2.096   3.635  21.708  0.00  0.00    +0.000 C 
ATOM     26  C   UNL     1       1.366   3.831  19.358  0.00  0.00    +0.000 C 
ATOM     27  C   UNL     1       3.530   2.739  19.750  0.00  0.00    +0.000 C 
ENDBRANCH  22  24
ENDBRANCH  12  22
BRANCH   7  28
ATOM     28  C   UNL     1      -0.929  10.792  22.328  0.00  0.00    +0.000 C 
BRANCH  28  29
ATOM     29  C   UNL     1      -1.117  12.292  22.567  0.00  0.00    +0.000 C 
BRANCH  29  30
ATOM     30  C   UNL     1      -2.552  12.737  22.297  0.00  0.00    +0.000 C 
BRANCH  30  31
ATOM     31  N   UNL     1      -3.466  12.175  23.264  0.00  0.00    +0.000 N 
ATOM     32  C   UNL     1      -4.016  12.823  24.310  0.00  0.00    +0.000 C 
ATOM     33  N   UNL     1      -3.775  14.004  24.740  0.00  0.00    +0.000 NA
ATOM     34  N   UNL     1      -4.908  12.049  24.962  0.00  0.00    +0.000 N 
ATOM     35  H   UNL     1      -4.024  11.404  22.914  0.00  0.00    +0.000 HD
ATOM     36  H   UNL     1      -3.075  14.449  24.150  0.00  0.00    +0.000 HD
ATOM     37  H   UNL     1      -4.600  11.095  25.087  0.00  0.00    +0.000 HD
ATOM     38  H   UNL     1      -5.132  12.475  25.857  0.00  0.00    +0.000 HD
ENDBRANCH  30  31
ENDBRANCH  29  30
ENDBRANCH  28  29
ENDBRANCH   7  28
TORSDOF 8
ENDMDL
MODEL 3
REMARK VINA RESULT:      -8.0      0.405      1.005
REMARK  Name = 
REMARK  13 active torsions:
REMARK  status: ('A' for Active; 'I' for Inactive)
REMARK    1  A    between atoms: C_1  and  N_2
REMARK    2  A    between atoms: N_2  and  C_3
REMARK    3  A    between atoms: N_2  and  C_4
REMARK    4  A    between atoms: C_7  and  C_8
REMARK    5  A    between atoms: N_14  and  C_15
REMARK    6  A    between atoms: C_15  and  C_16
REMARK    7  A    between atoms: C_16  and  C_17
REMARK    8  A    between atoms: C_17  and  N_18
REMARK    9  A    between atoms: C_26  and  N_27
REMARK   10  A    between atoms: N_27  and  C_28
REMARK   11  A    between atoms: C_28  and  C_29
REMARK   12  A    between atoms: C_28  and  C_30
REMARK   13  A    between atoms: C_28  and  C_31
REMARK                            x       y       z     vdW  Elec       q    Type
REMARK                         _______ _______ _______ _____ _____    ______ ____
ROOT
ATOM      1  C   UNL     1       3.241   6.776  18.112  0.00  0.00    +0.000 A 
ATOM      2  N   UNL     1       2.663   8.015  17.898  0.00  0.00    +0.000 NA
ATOM      3  C   UNL     1       2.002   8.269  19.002  0.00  0.00    +0.000 A 
ATOM      4  C   UNL     1       1.183   9.439  19.384  0.00  0.00    +0.000 A 
ATOM      5  N   UNL     1       0.820  10.590  18.754  0.00  0.00    +0.000 NA
ATOM      6  C   UNL     1       0.049  11.209  19.633  0.00  0.00    +0.000 A 
ATOM      7  N   UNL     1      -0.064  10.506  20.807  0.00  0.00    +0.000 N 
ATOM      8  C   UNL     1       0.660   9.362  20.657  0.00  0.00    +0.000 A 
ATOM      9  N   UNL     1       0.788   8.395  21.594  0.00  0.00    +0.000 NA
ATOM     10  C   UNL     1       1.519   7.378  21.204  0.00  0.00    +0.000 A 
ATOM     11  N   UNL     1       2.125   7.261  19.939  0.00  0.00    +0.000 N 
ATOM     12  C   UNL     1       2.929   6.267  19.384  0.00  0.00    +0.000 A 
ENDROOT
BRANCH   1  16
ATOM     13  C   UNL     1       5.724   4.994  15.019  0.00  0.00    +0.000 A 
ATOM     14  C   UNL     1       5.629   6.377  15.208  0.00  0.00    +0.000 A 
ATOM     15  C   UNL     1       4.820   6.953  16.209  0.00  0.00    +0.000 A 
ATOM     16  C   UNL     1       4.084   6.157  17.090  0.00  0.00    +0.000 A 
ATOM     17  C   UNL     1       4.156   4.773  16.916  0.00  0.00    +0.000 A 
ATOM     18  C   UNL     1       4.965   4.211  15.909  0.00  0.00    +0.000 A 
BRANCH  13  20
ATOM     19  C   UNL     1       7.783   5.043  13.637  0.00  0.00    +0.000 C 
ATOM     20  N   UNL     1       6.519   4.425  14.030  0.00  0.00    +0.000 N 
ATOM     21  C   UNL     1       5.989   3.385  13.156  0.00  0.00    +0.000 C 
ENDBRANCH  13  20
ENDBRANCH   1  16
BRANCH  12  22
ATOM     22  N   UNL     1       3.402   5.147  20.029  0.00  0.00    +0.000 N 
ATOM     23  H   UNL     1       4.420   5.043  20.012  0.00  0.00    +0.000 HD
BRANCH  22  24
ATOM     24  C   UNL     1       2.732   3.847  20.241  0.00  0.00    +0.000 C 
ATOM     25  C   UNL     1       2.162   3.675  21.659  0.00  0.00    +0.000 C 
ATOM     26  C   UNL     1       1.519   3.768  19.278  0.00  0.00    +0.000 C 
ATOM     27  C   UNL     1       3.677   2.714  19.795  0.00  0.00    +0.000 C 
ENDBRANCH  22  24
ENDBRANCH  12  22
BRANCH   7  28
ATOM     28  C   UNL     1      -0.833  10.869  21.980  0.00  0.00    +0.000 C 
BRANCH  28  29
ATOM     29  C   UNL     1      -1.362  12.305  21.953  0.00  0.00    +0.000 C 
BRANCH  29  30
ATOM     30  C   UNL     1      -2.854  12.369  22.268  0.00  0.00    +0.000 C 
BRANCH  30  31
ATOM     31  N   UNL     1      -3.122  13.282  23.355  0.00  0.00    +0.000 N 
ATOM     32  C   UNL     1      -3.815  13.004  24.476  0.00  0.00    +0.000 C 
ATOM     33  N   UNL     1      -4.469  11.945  24.774  0.00  0.00    +0.000 NA
ATOM     34  N   UNL     1      -3.799  14.038  25.341  0.00  0.00    +0.000 N 
ATOM     35  H   UNL     1      -2.431  14.015  23.465  0.00  0.00    +0.000 HD
ATOM     36  H   UNL     1      -4.393  11.268  24.017  0.00  0.00    +0.000 HD
ATOM     37  H   UNL     1      -3.930  14.938  24.899  0.00  0.00    +0.000 HD
ATOM     38  H   UNL     1      -4.501  13.886  26.060  0.00  0.00    +0.000 HD
ENDBRANCH  30  31
ENDBRANCH  29  30
ENDBRANCH  28  29
ENDBRANCH   7  28
TORSDOF 8
ENDMDL
MODEL 4
REMARK VINA RESULT:      -7.9      1.680     10.686
REMARK  Name = 
REMARK  13 active torsions:
REMARK  status: ('A' for Active; 'I' for Inactive)
REMARK    1  A    between atoms: C_1  and  N_2
REMARK    2  A    between atoms: N_2  and  C_3
REMARK    3  A    between atoms: N_2  and  C_4
REMARK    4  A    between atoms: C_7  and  C_8
REMARK    5  A    between atoms: N_14  and  C_15
REMARK    6  A    between atoms: C_15  and  C_16
REMARK    7  A    between atoms: C_16  and  C_17
REMARK    8  A    between atoms: C_17  and  N_18
REMARK    9  A    between atoms: C_26  and  N_27
REMARK   10  A    between atoms: N_27  and  C_28
REMARK   11  A    between atoms: C_28  and  C_29
REMARK   12  A    between atoms: C_28  and  C_30
REMARK   13  A    between atoms: C_28  and  C_31
REMARK                            x       y       z     vdW  Elec       q    Type
REMARK                         _______ _______ _______ _____ _____    ______ ____
ROOT
ATOM      1  C   UNL     1       0.096  10.139  20.370  0.00  0.00    +0.000 A 
ATOM      2  N   UNL     1       0.471   8.874  20.791  0.00  0.00    +0.000 NA
ATOM      3  C   UNL     1       1.319   8.458  19.882  0.00  0.00    +0.000 A 
ATOM      4  C   UNL     1       2.067   7.187  19.775  0.00  0.00    +0.000 A 
ATOM      5  N   UNL     1       2.117   6.051  20.522  0.00  0.00    +0.000 NA
ATOM      6  C   UNL     1       2.963   5.272  19.867  0.00  0.00    +0.000 A 
ATOM      7  N   UNL     1       3.472   5.887  18.750  0.00  0.00    +0.000 N 
ATOM      8  C   UNL     1       2.899   7.120  18.678  0.00  0.00    +0.000 A 
ATOM      9  N   UNL     1       3.135   8.032  17.707  0.00  0.00    +0.000 NA
ATOM     10  C   UNL     1       2.444   9.138  17.845  0.00  0.00    +0.000 A 
ATOM     11  N   UNL     1       1.531   9.392  18.885  0.00  0.00    +0.000 N 
ATOM     12  C   UNL     1       0.740  10.503  19.176  0.00  0.00    +0.000 A 
ENDROOT
BRANCH   1  16
ATOM     13  C   UNL     1      -2.716  12.454  22.744  0.00  0.00    +0.000 A 
ATOM     14  C   UNL     1      -1.801  11.562  23.313  0.00  0.00    +0.000 A 
ATOM     15  C   UNL     1      -0.894  10.809  22.542  0.00  0.00    +0.000 A 
ATOM     16  C   UNL     1      -0.845  10.939  21.151  0.00  0.00    +0.000 A 
ATOM     17  C   UNL     1      -1.753  11.818  20.559  0.00  0.00    +0.000 A 
ATOM     18  C   UNL     1      -2.659  12.561  21.341  0.00  0.00    +0.000 A 
BRANCH  13  20
ATOM     19  C   UNL     1      -3.627  14.655  23.436  0.00  0.00    +0.000 C 
ATOM     20  N   UNL     1      -3.615  13.196  23.504  0.00  0.00    +0.000 N 
ATOM     21  C   UNL     1      -4.353  12.575  24.598  0.00  0.00    +0.000 C 
ENDBRANCH  13  20
ENDBRANCH   1  16
BRANCH  12  22
ATOM     22  N   UNL     1       0.747  11.705  18.505  0.00  0.00    +0.000 N 
ATOM     23  H   UNL     1       0.570  11.633  17.500  0.00  0.00    +0.000 HD
BRANCH  22  24
ATOM     24  C   UNL     1       1.475  12.947  18.836  0.00  0.00    +0.000 C 
ATOM     25  C   UNL     1       0.597  14.209  18.766  0.00  0.00    +0.000 C 
ATOM     26  C   UNL     1       1.961  12.843  20.305  0.00  0.00    +0.000 C 
ATOM     27  C   UNL     1       2.759  13.020  17.989  0.00  0.00    +0.000 C 
ENDBRANCH  22  24
ENDBRANCH  12  22
BRANCH   7  28
ATOM     28  C   UNL     1       4.409   5.336  17.792  0.00  0.00    +0.000 C 
BRANCH  28  29
ATOM     29  C   UNL     1       5.865   5.728  18.053  0.00  0.00    +0.000 C 
BRANCH  29  30
ATOM     30  C   UNL     1       6.839   4.667  17.551  0.00  0.00    +0.000 C 
BRANCH  30  31
ATOM     31  N   UNL     1       6.385   4.080  16.311  0.00  0.00    +0.000 N 
ATOM     32  C   UNL     1       6.795   4.417  15.073  0.00  0.00    +0.000 C 
ATOM     33  N   UNL     1       7.564   5.375  14.715  0.00  0.00    +0.000 NA
ATOM     34  N   UNL     1       6.258   3.612  14.134  0.00  0.00    +0.000 N 
ATOM     35  H   UNL     1       6.062   3.123  16.395  0.00  0.00    +0.000 HD
ATOM     36  H   UNL     1       7.874   5.894  15.535  0.00  0.00    +0.000 HD
ATOM     37  H   UNL     1       5.279   3.412  14.285  0.00  0.00    +0.000 HD
ATOM     38  H   UNL     1       6.403   4.023  13.216  0.00  0.00    +0.000 HD
ENDBRANCH  30  31
ENDBRANCH  29  30
ENDBRANCH  28  29
ENDBRANCH   7  28
TORSDOF 8
ENDMDL
MODEL 5
REMARK VINA RESULT:      -7.8      1.681     10.708
REMARK  Name = 
REMARK  13 active torsions:
REMARK  status: ('A' for Active; 'I' for Inactive)
REMARK    1  A    between atoms: C_1  and  N_2
REMARK    2  A    between atoms: N_2  and  C_3
REMARK    3  A    between atoms: N_2  and  C_4
REMARK    4  A    between atoms: C_7  and  C_8
REMARK    5  A    between atoms: N_14  and  C_15
REMARK    6  A    between atoms: C_15  and  C_16
REMARK    7  A    between atoms: C_16  and  C_17
REMARK    8  A    between atoms: C_17  and  N_18
REMARK    9  A    between atoms: C_26  and  N_27
REMARK   10  A    between atoms: N_27  and  C_28
REMARK   11  A    between atoms: C_28  and  C_29
REMARK   12  A    between atoms: C_28  and  C_30
REMARK   13  A    between atoms: C_28  and  C_31
REMARK                            x       y       z     vdW  Elec       q    Type
REMARK                         _______ _______ _______ _____ _____    ______ ____
ROOT
ATOM      1  C   UNL     1       0.062  10.162  20.429  0.00  0.00    +0.000 A 
ATOM      2  N   UNL     1       0.453   8.894  20.824  0.00  0.00    +0.000 NA
ATOM      3  C   UNL     1       1.285   8.496  19.892  0.00  0.00    +0.000 A 
ATOM      4  C   UNL     1       2.038   7.232  19.751  0.00  0.00    +0.000 A 
ATOM      5  N   UNL     1       2.111   6.085  20.481  0.00  0.00    +0.000 NA
ATOM      6  C   UNL     1       2.948   5.322  19.798  0.00  0.00    +0.000 A 
ATOM      7  N   UNL     1       3.431   5.956  18.679  0.00  0.00    +0.000 N 
ATOM      8  C   UNL     1       2.849   7.186  18.637  0.00  0.00    +0.000 A 
ATOM      9  N   UNL     1       3.059   8.113  17.674  0.00  0.00    +0.000 NA
ATOM     10  C   UNL     1       2.364   9.213  17.843  0.00  0.00    +0.000 A 
ATOM     11  N   UNL     1       1.471   9.445  18.905  0.00  0.00    +0.000 N 
ATOM     12  C   UNL     1       0.679  10.547  19.227  0.00  0.00    +0.000 A 
ENDROOT
BRANCH   1  16
ATOM     13  C   UNL     1      -2.692  12.558  22.791  0.00  0.00    +0.000 A 
ATOM     14  C   UNL     1      -2.639  12.624  21.395  0.00  0.00    +0.000 A 
ATOM     15  C   UNL     1      -1.742  11.850  20.631  0.00  0.00    +0.000 A 
ATOM     16  C   UNL     1      -0.868  10.945  21.240  0.00  0.00    +0.000 A 
ATOM     17  C   UNL     1      -0.897  10.866  22.634  0.00  0.00    +0.000 A 
ATOM     18  C   UNL     1      -1.795  11.649  23.385  0.00  0.00    +0.000 A 
BRANCH  13  20
ATOM     19  C   UNL     1      -4.466  12.697  24.519  0.00  0.00    +0.000 C 
ATOM     20  N   UNL     1      -3.574  13.324  23.547  0.00  0.00    +0.000 N 
ATOM     21  C   UNL     1      -3.851  14.710  23.188  0.00  0.00    +0.000 C 
ENDBRANCH  13  20
ENDBRANCH   1  16
BRANCH  12  22
ATOM     22  N   UNL     1       0.664  11.758  18.574  0.00  0.00    +0.000 N 
ATOM     23  H   UNL     1       0.420  11.705  17.582  0.00  0.00    +0.000 HD
BRANCH  22  24
ATOM     24  C   UNL     1       1.437  12.982  18.872  0.00  0.00    +0.000 C 
ATOM     25  C   UNL     1       2.564  13.256  17.861  0.00  0.00    +0.000 C 
ATOM     26  C   UNL     1       0.475  14.194  18.782  0.00  0.00    +0.000 C 
ATOM     27  C   UNL     1       1.900  12.941  20.341  0.00  0.00    +0.000 C 
ENDBRANCH  22  24
ENDBRANCH  12  22
BRANCH   7  28
ATOM     28  C   UNL     1       4.351   5.424  17.695  0.00  0.00    +0.000 C 
BRANCH  28  29
ATOM     29  C   UNL     1       5.819   5.757  17.975  0.00  0.00    +0.000 C 
BRANCH  29  30
ATOM     30  C   UNL     1       6.747   4.611  17.583  0.00  0.00    +0.000 C 
BRANCH  30  31
ATOM     31  N   UNL     1       6.350   4.021  16.325  0.00  0.00    +0.000 N 
ATOM     32  C   UNL     1       6.780   4.386  15.103  0.00  0.00    +0.000 C 
ATOM     33  N   UNL     1       7.521   5.376  14.775  0.00  0.00    +0.000 NA
ATOM     34  N   UNL     1       6.300   3.570  14.142  0.00  0.00    +0.000 N 
ATOM     35  H   UNL     1       6.062   3.051  16.392  0.00  0.00    +0.000 HD
ATOM     36  H   UNL     1       7.787   5.898  15.608  0.00  0.00    +0.000 HD
ATOM     37  H   UNL     1       5.326   3.331  14.263  0.00  0.00    +0.000 HD
ATOM     38  H   UNL     1       6.455   3.996  13.232  0.00  0.00    +0.000 HD
ENDBRANCH  30  31
ENDBRANCH  29  30
ENDBRANCH  28  29
ENDBRANCH   7  28
TORSDOF 8
ENDMDL
MODEL 6
REMARK VINA RESULT:      -7.8      0.413      1.320
REMARK  Name = 
REMARK  13 active torsions:
REMARK  status: ('A' for Active; 'I' for Inactive)
REMARK    1  A    between atoms: C_1  and  N_2
REMARK    2  A    between atoms: N_2  and  C_3
REMARK    3  A    between atoms: N_2  and  C_4
REMARK    4  A    between atoms: C_7  and  C_8
REMARK    5  A    between atoms: N_14  and  C_15
REMARK    6  A    between atoms: C_15  and  C_16
REMARK    7  A    between atoms: C_16  and  C_17
REMARK    8  A    between atoms: C_17  and  N_18
REMARK    9  A    between atoms: C_26  and  N_27
REMARK   10  A    between atoms: N_27  and  C_28
REMARK   11  A    between atoms: C_28  and  C_29
REMARK   12  A    between atoms: C_28  and  C_30
REMARK   13  A    between atoms: C_28  and  C_31
REMARK                            x       y       z     vdW  Elec       q    Type
REMARK                         _______ _______ _______ _____ _____    ______ ____
ROOT
ATOM      1  C   UNL     1       3.159   6.849  18.188  0.00  0.00    +0.000 A 
ATOM      2  N   UNL     1       2.585   8.098  18.025  0.00  0.00    +0.000 NA
ATOM      3  C   UNL     1       1.939   8.317  19.145  0.00  0.00    +0.000 A 
ATOM      4  C   UNL     1       1.131   9.477  19.578  0.00  0.00    +0.000 A 
ATOM      5  N   UNL     1       0.769  10.651  18.995  0.00  0.00    +0.000 NA
ATOM      6  C   UNL     1       0.011  11.242  19.904  0.00  0.00    +0.000 A 
ATOM      7  N   UNL     1      -0.093  10.498  21.053  0.00  0.00    +0.000 N 
ATOM      8  C   UNL     1       0.621   9.357  20.853  0.00  0.00    +0.000 A 
ATOM      9  N   UNL     1       0.755   8.355  21.754  0.00  0.00    +0.000 NA
ATOM     10  C   UNL     1       1.475   7.349  21.318  0.00  0.00    +0.000 A 
ATOM     11  N   UNL     1       2.065   7.275  20.044  0.00  0.00    +0.000 N 
ATOM     12  C   UNL     1       2.857   6.296  19.443  0.00  0.00    +0.000 A 
ENDROOT
BRANCH   1  16
ATOM     13  C   UNL     1       5.641   5.043  15.109  0.00  0.00    +0.000 A 
ATOM     14  C   UNL     1       4.871   4.287  15.999  0.00  0.00    +0.000 A 
ATOM     15  C   UNL     1       4.070   4.874  16.999  0.00  0.00    +0.000 A 
ATOM     16  C   UNL     1       3.986   6.263  17.135  0.00  0.00    +0.000 A 
ATOM     17  C   UNL     1       4.751   7.039  16.262  0.00  0.00    +0.000 A 
ATOM     18  C   UNL     1       5.551   6.439  15.270  0.00  0.00    +0.000 A 
BRANCH  13  20
ATOM     19  C   UNL     1       7.707   5.068  13.736  0.00  0.00    +0.000 C 
ATOM     20  N   UNL     1       6.434   4.464  14.123  0.00  0.00    +0.000 N 
ATOM     21  C   UNL     1       5.896   3.430  13.246  0.00  0.00    +0.000 C 
ENDBRANCH  13  20
ENDBRANCH   1  16
BRANCH  12  22
ATOM     22  N   UNL     1       3.330   5.151  20.042  0.00  0.00    +0.000 N 
ATOM     23  H   UNL     1       4.349   5.054  20.033  0.00  0.00    +0.000 HD
BRANCH  22  24
ATOM     24  C   UNL     1       2.667   3.839  20.186  0.00  0.00    +0.000 C 
ATOM     25  C   UNL     1       3.607   2.646  19.937  0.00  0.00    +0.000 C 
ATOM     26  C   UNL     1       2.181   3.703  21.652  0.00  0.00    +0.000 C 
ATOM     27  C   UNL     1       1.385   3.825  19.332  0.00  0.00    +0.000 C 
ENDBRANCH  22  24
ENDBRANCH  12  22
BRANCH   7  28
ATOM     28  C   UNL     1      -0.847  10.823  22.246  0.00  0.00    +0.000 C 
BRANCH  28  29
ATOM     29  C   UNL     1      -1.298  12.284  22.316  0.00  0.00    +0.000 C 
BRANCH  29  30
ATOM     30  C   UNL     1      -2.775  12.408  22.675  0.00  0.00    +0.000 C 
BRANCH  30  31
ATOM     31  N   UNL     1      -3.016  13.552  23.524  0.00  0.00    +0.000 N 
ATOM     32  C   UNL     1      -3.772  13.571  24.638  0.00  0.00    +0.000 C 
ATOM     33  N   UNL     1      -4.517  12.649  25.119  0.00  0.00    +0.000 NA
ATOM     34  N   UNL     1      -3.710  14.766  25.262  0.00  0.00    +0.000 N 
ATOM     35  H   UNL     1      -2.274  14.243  23.514  0.00  0.00    +0.000 HD
ATOM     36  H   UNL     1      -4.464  11.821  24.530  0.00  0.00    +0.000 HD
ATOM     37  H   UNL     1      -3.753  15.554  24.631  0.00  0.00    +0.000 HD
ATOM     38  H   UNL     1      -4.450  14.821  25.956  0.00  0.00    +0.000 HD
ENDBRANCH  30  31
ENDBRANCH  29  30
ENDBRANCH  28  29
ENDBRANCH   7  28
TORSDOF 8
ENDMDL
MODEL 7
REMARK VINA RESULT:      -7.8      1.747     10.766
REMARK  Name = 
REMARK  13 active torsions:
REMARK  status: ('A' for Active; 'I' for Inactive)
REMARK    1  A    between atoms: C_1  and  N_2
REMARK    2  A    between atoms: N_2  and  C_3
REMARK    3  A    between atoms: N_2  and  C_4
REMARK    4  A    between atoms: C_7  and  C_8
REMARK    5  A    between atoms: N_14  and  C_15
REMARK    6  A    between atoms: C_15  and  C_16
REMARK    7  A    between atoms: C_16  and  C_17
REMARK    8  A    between atoms: C_17  and  N_18
REMARK    9  A    between atoms: C_26  and  N_27
REMARK   10  A    between atoms: N_27  and  C_28
REMARK   11  A    between atoms: C_28  and  C_29
REMARK   12  A    between atoms: C_28  and  C_30
REMARK   13  A    between atoms: C_28  and  C_31
REMARK                            x       y       z     vdW  Elec       q    Type
REMARK                         _______ _______ _______ _____ _____    ______ ____
ROOT
ATOM      1  C   UNL     1      -0.184  10.631  20.454  0.00  0.00    +0.000 A 
ATOM      2  N   UNL     1       0.174   9.361  20.871  0.00  0.00    +0.000 NA
ATOM      3  C   UNL     1       0.995   8.925  19.947  0.00  0.00    +0.000 A 
ATOM      4  C   UNL     1       1.715   7.639  19.828  0.00  0.00    +0.000 A 
ATOM      5  N   UNL     1       1.758   6.504  20.577  0.00  0.00    +0.000 NA
ATOM      6  C   UNL     1       2.574   5.707  19.908  0.00  0.00    +0.000 A 
ATOM      7  N   UNL     1       3.073   6.309  18.779  0.00  0.00    +0.000 N 
ATOM      8  C   UNL     1       2.523   7.553  18.715  0.00  0.00    +0.000 A 
ATOM      9  N   UNL     1       2.757   8.457  17.736  0.00  0.00    +0.000 NA
ATOM     10  C   UNL     1       2.091   9.577  17.885  0.00  0.00    +0.000 A 
ATOM     11  N   UNL     1       1.205   9.852  18.943  0.00  0.00    +0.000 N 
ATOM     12  C   UNL     1       0.443  10.979  19.246  0.00  0.00    +0.000 A 
ENDROOT
BRANCH   1  16
ATOM     13  C   UNL     1      -2.898  13.010  22.879  0.00  0.00    +0.000 A 
ATOM     14  C   UNL     1      -1.943  12.151  23.435  0.00  0.00    +0.000 A 
ATOM     15  C   UNL     1      -1.068  11.377  22.647  0.00  0.00    +0.000 A 
ATOM     16  C   UNL     1      -1.093  11.452  21.251  0.00  0.00    +0.000 A 
ATOM     17  C   UNL     1      -2.043  12.297  20.673  0.00  0.00    +0.000 A 
ATOM     18  C   UNL     1      -2.915  13.061  21.472  0.00  0.00    +0.000 A 
BRANCH  13  20
ATOM     19  C   UNL     1      -3.252  14.688  24.671  0.00  0.00    +0.000 C 
ATOM     20  N   UNL     1      -3.765  13.771  23.656  0.00  0.00    +0.000 N 
ATOM     21  C   UNL     1      -5.191  13.466  23.697  0.00  0.00    +0.000 C 
ENDBRANCH  13  20
ENDBRANCH   1  16
BRANCH  12  22
ATOM     22  N   UNL     1       0.459  12.179  18.572  0.00  0.00    +0.000 N 
ATOM     23  H   UNL     1       0.238  12.111  17.575  0.00  0.00    +0.000 HD
BRANCH  22  24
ATOM     24  C   UNL     1       1.240  13.397  18.867  0.00  0.00    +0.000 C 
ATOM     25  C   UNL     1       0.384  14.674  18.933  0.00  0.00    +0.000 C 
ATOM     26  C   UNL     1       1.876  13.233  20.272  0.00  0.00    +0.000 C 
ATOM     27  C   UNL     1       2.431  13.482  17.893  0.00  0.00    +0.000 C 
ENDBRANCH  22  24
ENDBRANCH  12  22
BRANCH   7  28
ATOM     28  C   UNL     1       3.979   5.737  17.804  0.00  0.00    +0.000 C 
BRANCH  28  29
ATOM     29  C   UNL     1       3.752   4.244  17.548  0.00  0.00    +0.000 C 
BRANCH  29  30
ATOM     30  C   UNL     1       4.926   3.608  16.809  0.00  0.00    +0.000 C 
BRANCH  30  31
ATOM     31  N   UNL     1       5.737   4.608  16.152  0.00  0.00    +0.000 N 
ATOM     32  C   UNL     1       7.066   4.774  16.294  0.00  0.00    +0.000 C 
ATOM     33  N   UNL     1       7.867   4.186  17.099  0.00  0.00    +0.000 NA
ATOM     34  N   UNL     1       7.539   5.727  15.465  0.00  0.00    +0.000 N 
ATOM     35  H   UNL     1       5.372   4.920  15.260  0.00  0.00    +0.000 HD
ATOM     36  H   UNL     1       7.356   3.509  17.662  0.00  0.00    +0.000 HD
ATOM     37  H   UNL     1       6.949   6.546  15.410  0.00  0.00    +0.000 HD
ATOM     38  H   UNL     1       8.481   5.982  15.749  0.00  0.00    +0.000 HD
ENDBRANCH  30  31
ENDBRANCH  29  30
ENDBRANCH  28  29
ENDBRANCH   7  28
TORSDOF 8
ENDMDL
MODEL 8
REMARK VINA RESULT:      -7.7      2.228     10.564
REMARK  Name = 
REMARK  13 active torsions:
REMARK  status: ('A' for Active; 'I' for Inactive)
REMARK    1  A    between atoms: C_1  and  N_2
REMARK    2  A    between atoms: N_2  and  C_3
REMARK    3  A    between atoms: N_2  and  C_4
REMARK    4  A    between atoms: C_7  and  C_8
REMARK    5  A    between atoms: N_14  and  C_15
REMARK    6  A    between atoms: C_15  and  C_16
REMARK    7  A    between atoms: C_16  and  C_17
REMARK    8  A    between atoms: C_17  and  N_18
REMARK    9  A    between atoms: C_26  and  N_27
REMARK   10  A    between atoms: N_27  and  C_28
REMARK   11  A    between atoms: C_28  and  C_29
REMARK   12  A    between atoms: C_28  and  C_30
REMARK   13  A    between atoms: C_28  and  C_31
REMARK                            x       y       z     vdW  Elec       q    Type
REMARK                         _______ _______ _______ _____ _____    ______ ____
ROOT
ATOM      1  C   UNL     1      -0.123  10.598  20.390  0.00  0.00    +0.000 A 
ATOM      2  N   UNL     1       0.293   9.324  20.733  0.00  0.00    +0.000 NA
ATOM      3  C   UNL     1       1.118   8.974  19.777  0.00  0.00    +0.000 A 
ATOM      4  C   UNL     1       1.889   7.728  19.580  0.00  0.00    +0.000 A 
ATOM      5  N   UNL     1       1.990   6.557  20.266  0.00  0.00    +0.000 NA
ATOM      6  C   UNL     1       2.830   5.833  19.544  0.00  0.00    +0.000 A 
ATOM      7  N   UNL     1       3.287   6.515  18.443  0.00  0.00    +0.000 N 
ATOM      8  C   UNL     1       2.685   7.736  18.454  0.00  0.00    +0.000 A 
ATOM      9  N   UNL     1       2.867   8.701  17.524  0.00  0.00    +0.000 NA
ATOM     10  C   UNL     1       2.157   9.782  17.741  0.00  0.00    +0.000 A 
ATOM     11  N   UNL     1       1.275   9.961  18.823  0.00  0.00    +0.000 N 
ATOM     12  C   UNL     1       0.471  11.038  19.196  0.00  0.00    +0.000 A 
ENDROOT
BRANCH   1  16
ATOM     13  C   UNL     1      -2.903  12.725  22.972  0.00  0.00    +0.000 A 
ATOM     14  C   UNL     1      -1.944  11.833  23.465  0.00  0.00    +0.000 A 
ATOM     15  C   UNL     1      -1.047  11.141  22.627  0.00  0.00    +0.000 A 
ATOM     16  C   UNL     1      -1.055  11.336  21.242  0.00  0.00    +0.000 A 
ATOM     17  C   UNL     1      -2.007  12.216  20.725  0.00  0.00    +0.000 A 
ATOM     18  C   UNL     1      -2.901  12.897  21.574  0.00  0.00    +0.000 A 
BRANCH  13  20
ATOM     19  C   UNL     1      -3.316  14.435  24.719  0.00  0.00    +0.000 C 
ATOM     20  N   UNL     1      -3.791  13.405  23.798  0.00  0.00    +0.000 N 
ATOM     21  C   UNL     1      -5.151  12.917  23.992  0.00  0.00    +0.000 C 
ENDBRANCH  13  20
ENDBRANCH   1  16
BRANCH  12  22
ATOM     22  N   UNL     1       0.428  12.271  18.588  0.00  0.00    +0.000 N 
ATOM     23  H   UNL     1       0.130  12.254  17.608  0.00  0.00    +0.000 HD
BRANCH  22  24
ATOM     24  C   UNL     1       1.222  13.481  18.888  0.00  0.00    +0.000 C 
ATOM     25  C   UNL     1       2.386  13.708  17.908  0.00  0.00    +0.000 C 
ATOM     26  C   UNL     1       0.293  14.714  18.745  0.00  0.00    +0.000 C 
ATOM     27  C   UNL     1       1.637  13.457  20.371  0.00  0.00    +0.000 C 
ENDBRANCH  22  24
ENDBRANCH  12  22
BRANCH   7  28
ATOM     28  C   UNL     1       4.202   6.035  17.428  0.00  0.00    +0.000 C 
BRANCH  28  29
ATOM     29  C   UNL     1       4.619   4.574  17.611  0.00  0.00    +0.000 C 
BRANCH  29  30
ATOM     30  C   UNL     1       6.092   4.356  17.276  0.00  0.00    +0.000 C 
BRANCH  30  31
ATOM     31  N   UNL     1       6.921   4.469  18.454  0.00  0.00    +0.000 N 
ATOM     32  C   UNL     1       7.595   5.565  18.850  0.00  0.00    +0.000 C 
ATOM     33  N   UNL     1       7.747   6.679  18.240  0.00  0.00    +0.000 NA
ATOM     34  N   UNL     1       8.190   5.378  20.046  0.00  0.00    +0.000 N 
ATOM     35  H   UNL     1       6.660   3.846  19.210  0.00  0.00    +0.000 HD
ATOM     36  H   UNL     1       7.250   6.656  17.352  0.00  0.00    +0.000 HD
ATOM     37  H   UNL     1       8.632   4.474  20.142  0.00  0.00    +0.000 HD
ATOM     38  H   UNL     1       8.862   6.124  20.208  0.00  0.00    +0.000 HD
ENDBRANCH  30  31
ENDBRANCH  29  30
ENDBRANCH  28  29
ENDBRANCH   7  28
TORSDOF 8
ENDMDL
MODEL 9
REMARK VINA RESULT:      -7.6      1.036      1.572
REMARK  Name = 
REMARK  13 active torsions:
REMARK  status: ('A' for Active; 'I' for Inactive)
REMARK    1  A    between atoms: C_1  and  N_2
REMARK    2  A    between atoms: N_2  and  C_3
REMARK    3  A    between atoms: N_2  and  C_4
REMARK    4  A    between atoms: C_7  and  C_8
REMARK    5  A    between atoms: N_14  and  C_15
REMARK    6  A    between atoms: C_15  and  C_16
REMARK    7  A    between atoms: C_16  and  C_17
REMARK    8  A    between atoms: C_17  and  N_18
REMARK    9  A    between atoms: C_26  and  N_27
REMARK   10  A    between atoms: N_27  and  C_28
REMARK   11  A    between atoms: C_28  and  C_29
REMARK   12  A    between atoms: C_28  and  C_30
REMARK   13  A    between atoms: C_28  and  C_31
REMARK                            x       y       z     vdW  Elec       q    Type
REMARK                         _______ _______ _______ _____ _____    ______ ____
ROOT
ATOM      1  C   UNL     1       3.107   6.911  18.199  0.00  0.00    +0.000 A 
ATOM      2  N   UNL     1       2.557   8.169  18.023  0.00  0.00    +0.000 NA
ATOM      3  C   UNL     1       1.893   8.401  19.129  0.00  0.00    +0.000 A 
ATOM      4  C   UNL     1       1.097   9.575  19.545  0.00  0.00    +0.000 A 
ATOM      5  N   UNL     1       0.765  10.754  18.951  0.00  0.00    +0.000 NA
ATOM      6  C   UNL     1       0.001  11.360  19.844  0.00  0.00    +0.000 A 
ATOM      7  N   UNL     1      -0.137  10.621  20.993  0.00  0.00    +0.000 N 
ATOM      8  C   UNL     1       0.562   9.467  20.810  0.00  0.00    +0.000 A 
ATOM      9  N   UNL     1       0.662   8.466  21.715  0.00  0.00    +0.000 NA
ATOM     10  C   UNL     1       1.373   7.447  21.296  0.00  0.00    +0.000 A 
ATOM     11  N   UNL     1       1.986   7.359  20.033  0.00  0.00    +0.000 N 
ATOM     12  C   UNL     1       2.773   6.366  19.450  0.00  0.00    +0.000 A 
ENDROOT
BRANCH   1  16
ATOM     13  C   UNL     1       5.616   5.055  15.171  0.00  0.00    +0.000 A 
ATOM     14  C   UNL     1       4.819   4.314  16.050  0.00  0.00    +0.000 A 
ATOM     15  C   UNL     1       4.010   4.917  17.034  0.00  0.00    +0.000 A 
ATOM     16  C   UNL     1       3.943   6.307  17.163  0.00  0.00    +0.000 A 
ATOM     17  C   UNL     1       4.736   7.068  16.302  0.00  0.00    +0.000 A 
ATOM     18  C   UNL     1       5.544   6.452  15.326  0.00  0.00    +0.000 A 
BRANCH  13  20
ATOM     19  C   UNL     1       7.711   5.037  13.844  0.00  0.00    +0.000 C 
ATOM     20  N   UNL     1       6.418   4.460  14.202  0.00  0.00    +0.000 N 
ATOM     21  C   UNL     1       5.876   3.439  13.313  0.00  0.00    +0.000 C 
ENDBRANCH  13  20
ENDBRANCH   1  16
BRANCH  12  22
ATOM     22  N   UNL     1       3.216   5.215  20.061  0.00  0.00    +0.000 N 
ATOM     23  H   UNL     1       4.232   5.093  20.055  0.00  0.00    +0.000 HD
BRANCH  22  24
ATOM     24  C   UNL     1       2.519   3.921  20.215  0.00  0.00    +0.000 C 
ATOM     25  C   UNL     1       1.356   3.729  19.227  0.00  0.00    +0.000 C 
ATOM     26  C   UNL     1       3.533   2.789  19.910  0.00  0.00    +0.000 C 
ATOM     27  C   UNL     1       2.133   3.730  21.694  0.00  0.00    +0.000 C 
ENDBRANCH  22  24
ENDBRANCH  12  22
BRANCH   7  28
ATOM     28  C   UNL     1      -0.907  10.962  22.172  0.00  0.00    +0.000 C 
BRANCH  28  29
ATOM     29  C   UNL     1      -0.930  12.460  22.486  0.00  0.00    +0.000 C 
BRANCH  29  30
ATOM     30  C   UNL     1      -2.353  13.001  22.581  0.00  0.00    +0.000 C 
BRANCH  30  31
ATOM     31  N   UNL     1      -2.979  13.064  21.280  0.00  0.00    +0.000 N 
ATOM     32  C   UNL     1      -4.278  12.832  21.010  0.00  0.00    +0.000 C 
ATOM     33  N   UNL     1      -5.198  12.406  21.791  0.00  0.00    +0.000 NA
ATOM     34  N   UNL     1      -4.568  13.074  19.715  0.00  0.00    +0.000 N 
ATOM     35  H   UNL     1      -2.525  13.693  20.628  0.00  0.00    +0.000 HD
ATOM     36  H   UNL     1      -4.817  12.261  22.724  0.00  0.00    +0.000 HD
ATOM     37  H   UNL     1      -3.868  12.729  19.072  0.00  0.00    +0.000 HD
ATOM     38  H   UNL     1      -5.480  12.683  19.496  0.00  0.00    +0.000 HD
ENDBRANCH  30  31
ENDBRANCH  29  30
ENDBRANCH  28  29
ENDBRANCH   7  28
TORSDOF 8
ENDMDL
