MODEL 1
REMARK VINA RESULT:      -7.1      0.000      0.000
REMARK  Name = 
REMARK  8 active torsions:
REMARK  status: ('A' for Active; 'I' for Inactive)
REMARK    1  A    between atoms: C_1  and  C_2
REMARK    2  A    between atoms: N_4  and  C1*_5
REMARK    3  A    between atoms: C4*_7  and  C5*_8
REMARK    4  A    between atoms: C5*_8  and  O5*_9
REMARK    5  A    between atoms: C3*_10  and  O3*_11
REMARK    6  A    between atoms: C2*_12  and  O2*_13
REMARK    7  A    between atoms: C_17  and  O_18
REMARK    8  A    between atoms: O_18  and  C_19
REMARK                            x       y       z     vdW  Elec       q    Type
REMARK                         _______ _______ _______ _____ _____    ______ ____
ROOT
ATOM      1  C   UNL     1       7.496   4.490  17.498  0.00  0.00    +0.000 C 
ATOM      2  C   UNL     1       6.217   5.254  17.489  0.00  0.00    +0.000 A 
ATOM      3  C   UNL     1       5.033   4.738  17.830  0.00  0.00    +0.000 A 
ATOM      4  N   UNL     1       3.887   5.505  17.875  0.00  0.00    +0.000 N 
ATOM      5  C   UNL     1       3.895   6.846  17.490  0.00  0.00    +0.000 A 
ATOM      6  O   UNL     1       2.881   7.537  17.562  0.00  0.00    +0.000 OA
ATOM      7  N   UNL     1       5.090   7.417  17.134  0.00  0.00    +0.000 NA
ATOM      8  C   UNL     1       6.147   6.690  17.181  0.00  0.00    +0.000 A 
ENDROOT
BRANCH   4   9
ATOM      9  C1* UNL     1       2.713   4.961  18.552  0.00  0.00    +0.000 C 
ATOM     10  O4* UNL     1       3.021   4.546  19.900  0.00  0.00    +0.000 OA
ATOM     11  C4* UNL     1       2.152   3.416  20.160  0.00  0.00    +0.000 C 
ATOM     12  C3* UNL     1       2.103   2.645  18.853  0.00  0.00    +0.000 C 
ATOM     13  C2* UNL     1       1.985   3.786  17.851  0.00  0.00    +0.000 C 
BRANCH  12  14
ATOM     14  O3* UNL     1       0.994   1.759  18.804  0.00  0.00    +0.000 OA
ATOM     15  H3* UNL     1       0.219   2.263  18.498  0.00  0.00    +0.000 HD
ENDBRANCH  12  14
BRANCH  13  16
ATOM     16  O2* UNL     1       2.444   3.414  16.556  0.00  0.00    +0.000 OA
ATOM     17  H2* UNL     1       2.812   2.507  16.619  0.00  0.00    +0.000 HD
ENDBRANCH  13  16
BRANCH  11  18
ATOM     18  C5* UNL     1       2.658   2.594  21.342  0.00  0.00    +0.000 C 
BRANCH  18  19
ATOM     19  O5* UNL     1       1.622   2.477  22.312  0.00  0.00    +0.000 OA
ATOM     20  H5* UNL     1       0.807   2.788  21.876  0.00  0.00    +0.000 HD
ENDBRANCH  18  19
ENDBRANCH  11  18
ENDBRANCH   4   9
BRANCH   8  21
ATOM     21  O   UNL     1       7.380   7.192  16.952  0.00  0.00    +0.000 OA
BRANCH  21  22
ATOM     22  C   UNL     1       7.818   8.098  17.950  0.00  0.00    +0.000 C 
ATOM     23  F   UNL     1       8.657   7.434  18.785  0.00  0.00    +0.000 F 
ATOM     24  F   UNL     1       8.570   9.040  17.325  0.00  0.00    +0.000 F 
ENDBRANCH  21  22
ENDBRANCH   8  21
TORSDOF 7
ENDMDL
MODEL 2
REMARK VINA RESULT:      -6.9      3.436      6.330
REMARK  Name = 
REMARK  8 active torsions:
REMARK  status: ('A' for Active; 'I' for Inactive)
REMARK    1  A    between atoms: C_1  and  C_2
REMARK    2  A    between atoms: N_4  and  C1*_5
REMARK    3  A    between atoms: C4*_7  and  C5*_8
REMARK    4  A    between atoms: C5*_8  and  O5*_9
REMARK    5  A    between atoms: C3*_10  and  O3*_11
REMARK    6  A    between atoms: C2*_12  and  O2*_13
REMARK    7  A    between atoms: C_17  and  O_18
REMARK    8  A    between atoms: O_18  and  C_19
REMARK                            x       y       z     vdW  Elec       q    Type
REMARK                         _______ _______ _______ _____ _____    ______ ____
ROOT
ATOM      1  C   UNL     1       1.470   6.571  20.858  0.00  0.00    +0.000 C 
ATOM      2  C   UNL     1       2.097   5.769  19.770  0.00  0.00    +0.000 A 
ATOM      3  C   UNL     1       3.129   6.186  19.030  0.00  0.00    +0.000 A 
ATOM      4  N   UNL     1       3.722   5.377  18.083  0.00  0.00    +0.000 N 
ATOM      5  C   UNL     1       3.223   4.107  17.796  0.00  0.00    +0.000 A 
ATOM      6  O   UNL     1       3.772   3.375  16.976  0.00  0.00    +0.000 OA
ATOM      7  N   UNL     1       2.166   3.638  18.533  0.00  0.00    +0.000 NA
ATOM      8  C   UNL     1       1.692   4.391  19.460  0.00  0.00    +0.000 A 
ENDROOT
BRANCH   4   9
ATOM      9  C1* UNL     1       5.021   5.775  17.546  0.00  0.00    +0.000 C 
ATOM     10  O4* UNL     1       5.035   5.732  16.104  0.00  0.00    +0.000 OA
ATOM     11  C4* UNL     1       6.392   5.372  15.745  0.00  0.00    +0.000 C 
ATOM     12  C3* UNL     1       6.822   4.358  16.790  0.00  0.00    +0.000 C 
ATOM     13  C2* UNL     1       6.257   4.991  18.054  0.00  0.00    +0.000 C 
BRANCH  12  14
ATOM     14  O3* UNL     1       8.234   4.213  16.836  0.00  0.00    +0.000 OA
ATOM     15  H3* UNL     1       8.529   4.426  17.740  0.00  0.00    +0.000 HD
ENDBRANCH  12  14
BRANCH  13  16
ATOM     16  O2* UNL     1       6.043   4.034  19.086  0.00  0.00    +0.000 OA
ATOM     17  H2* UNL     1       6.077   3.143  18.677  0.00  0.00    +0.000 HD
ENDBRANCH  13  16
BRANCH  11  18
ATOM     18  C5* UNL     1       6.464   4.849  14.313  0.00  0.00    +0.000 C 
BRANCH  18  19
ATOM     19  O5* UNL     1       6.381   3.427  14.328  0.00  0.00    +0.000 OA
ATOM     20  H5* UNL     1       6.667   3.131  13.444  0.00  0.00    +0.000 HD
ENDBRANCH  18  19
ENDBRANCH  11  18
ENDBRANCH   4   9
BRANCH   8  21
ATOM     21  O   UNL     1       0.724   3.973  20.305  0.00  0.00    +0.000 OA
BRANCH  21  22
ATOM     22  C   UNL     1       1.144   2.941  21.182  0.00  0.00    +0.000 C 
ATOM     23  F   UNL     1       1.688   1.948  20.436  0.00  0.00    +0.000 F 
ATOM     24  F   UNL     1       2.154   3.449  21.935  0.00  0.00    +0.000 F 
ENDBRANCH  21  22
ENDBRANCH   8  21
TORSDOF 7
ENDMDL
MODEL 3
REMARK VINA RESULT:      -6.9      1.703      1.893
REMARK  Name = 
REMARK  8 active torsions:
REMARK  status: ('A' for Active; 'I' for Inactive)
REMARK    1  A    between atoms: C_1  and  C_2
REMARK    2  A    between atoms: N_4  and  C1*_5
REMARK    3  A    between atoms: C4*_7  and  C5*_8
REMARK    4  A    between atoms: C5*_8  and  O5*_9
REMARK    5  A    between atoms: C3*_10  and  O3*_11
REMARK    6  A    between atoms: C2*_12  and  O2*_13
REMARK    7  A    between atoms: C_17  and  O_18
REMARK    8  A    between atoms: O_18  and  C_19
REMARK                            x       y       z     vdW  Elec       q    Type
REMARK                         _______ _______ _______ _____ _____    ______ ____
ROOT
ATOM      1  C   UNL     1       7.945   5.597  20.073  0.00  0.00    +0.000 C 
ATOM      2  C   UNL     1       7.125   5.870  18.859  0.00  0.00    +0.000 A 
ATOM      3  C   UNL     1       5.988   5.234  18.563  0.00  0.00    +0.000 A 
ATOM      4  N   UNL     1       5.226   5.573  17.463  0.00  0.00    +0.000 N 
ATOM      5  C   UNL     1       5.648   6.549  16.561  0.00  0.00    +0.000 A 
ATOM      6  O   UNL     1       4.953   6.873  15.600  0.00  0.00    +0.000 OA
ATOM      7  N   UNL     1       6.809   7.229  16.827  0.00  0.00    +0.000 NA
ATOM      8  C   UNL     1       7.448   6.938  17.903  0.00  0.00    +0.000 A 
ENDROOT
BRANCH   4   9
ATOM      9  C1* UNL     1       3.861   5.061  17.380  0.00  0.00    +0.000 C 
ATOM     10  O4* UNL     1       3.095   5.398  18.557  0.00  0.00    +0.000 OA
ATOM     11  C4* UNL     1       2.170   4.298  18.738  0.00  0.00    +0.000 C 
ATOM     12  C3* UNL     1       2.956   3.054  18.367  0.00  0.00    +0.000 C 
ATOM     13  C2* UNL     1       3.699   3.541  17.130  0.00  0.00    +0.000 C 
BRANCH  12  14
ATOM     14  O3* UNL     1       2.103   1.952  18.092  0.00  0.00    +0.000 OA
ATOM     15  H3* UNL     1       1.741   1.633  18.938  0.00  0.00    +0.000 HD
ENDBRANCH  12  14
BRANCH  13  16
ATOM     16  O2* UNL     1       4.883   2.791  16.883  0.00  0.00    +0.000 OA
ATOM     17  H2* UNL     1       4.678   2.133  16.184  0.00  0.00    +0.000 HD
ENDBRANCH  13  16
BRANCH  11  18
ATOM     18  C5* UNL     1       1.614   4.275  20.159  0.00  0.00    +0.000 C 
BRANCH  18  19
ATOM     19  O5* UNL     1       0.516   3.368  20.219  0.00  0.00    +0.000 OA
ATOM     20  H5* UNL     1       0.018   3.492  19.391  0.00  0.00    +0.000 HD
ENDBRANCH  18  19
ENDBRANCH  11  18
ENDBRANCH   4   9
BRANCH   8  21
ATOM     21  O   UNL     1       8.540   7.625  18.301  0.00  0.00    +0.000 OA
BRANCH  21  22
ATOM     22  C   UNL     1       8.328   9.024  18.393  0.00  0.00    +0.000 C 
ATOM     23  F   UNL     1       9.058   9.495  19.436  0.00  0.00    +0.000 F 
ATOM     24  F   UNL     1       8.862   9.579  17.274  0.00  0.00    +0.000 F 
ENDBRANCH  21  22
ENDBRANCH   8  21
TORSDOF 7
ENDMDL
MODEL 4
REMARK VINA RESULT:      -6.8      3.107      3.888
REMARK  Name = 
REMARK  8 active torsions:
REMARK  status: ('A' for Active; 'I' for Inactive)
REMARK    1  A    between atoms: C_1  and  C_2
REMARK    2  A    between atoms: N_4  and  C1*_5
REMARK    3  A    between atoms: C4*_7  and  C5*_8
REMARK    4  A    between atoms: C5*_8  and  O5*_9
REMARK    5  A    between atoms: C3*_10  and  O3*_11
REMARK    6  A    between atoms: C2*_12  and  O2*_13
REMARK    7  A    between atoms: C_17  and  O_18
REMARK    8  A    between atoms: O_18  and  C_19
REMARK                            x       y       z     vdW  Elec       q    Type
REMARK                         _______ _______ _______ _____ _____    ______ ____
ROOT
ATOM      1  C   UNL     1       5.095   3.675  13.161  0.00  0.00    +0.000 C 
ATOM      2  C   UNL     1       5.662   4.264  14.407  0.00  0.00    +0.000 A 
ATOM      3  C   UNL     1       5.033   4.271  15.586  0.00  0.00    +0.000 A 
ATOM      4  N   UNL     1       5.630   4.764  16.729  0.00  0.00    +0.000 N 
ATOM      5  C   UNL     1       6.894   5.351  16.693  0.00  0.00    +0.000 A 
ATOM      6  O   UNL     1       7.439   5.760  17.716  0.00  0.00    +0.000 OA
ATOM      7  N   UNL     1       7.576   5.364  15.503  0.00  0.00    +0.000 NA
ATOM      8  C   UNL     1       7.019   4.824  14.479  0.00  0.00    +0.000 A 
ENDROOT
BRANCH   4   9
ATOM      9  C1* UNL     1       5.020   4.454  18.019  0.00  0.00    +0.000 C 
ATOM     10  O4* UNL     1       4.371   3.165  18.004  0.00  0.00    +0.000 OA
ATOM     11  C4* UNL     1       3.245   3.294  18.906  0.00  0.00    +0.000 C 
ATOM     12  C3* UNL     1       2.711   4.696  18.676  0.00  0.00    +0.000 C 
ATOM     13  C2* UNL     1       4.010   5.485  18.580  0.00  0.00    +0.000 C 
BRANCH  12  14
ATOM     14  O3* UNL     1       1.886   5.131  19.748  0.00  0.00    +0.000 OA
ATOM     15  H3* UNL     1       1.635   6.056  19.579  0.00  0.00    +0.000 HD
ENDBRANCH  12  14
BRANCH  13  16
ATOM     16  O2* UNL     1       3.849   6.701  17.856  0.00  0.00    +0.000 OA
ATOM     17  H2* UNL     1       3.317   7.310  18.411  0.00  0.00    +0.000 HD
ENDBRANCH  13  16
BRANCH  11  18
ATOM     18  C5* UNL     1       2.214   2.195  18.662  0.00  0.00    +0.000 C 
BRANCH  18  19
ATOM     19  O5* UNL     1       0.909   2.765  18.667  0.00  0.00    +0.000 OA
ATOM     20  H5* UNL     1       0.296   2.036  18.875  0.00  0.00    +0.000 HD
ENDBRANCH  18  19
ENDBRANCH  11  18
ENDBRANCH   4   9
BRANCH   8  21
ATOM     21  O   UNL     1       7.655   4.694  13.295  0.00  0.00    +0.000 OA
BRANCH  21  22
ATOM     22  C   UNL     1       8.140   5.921  12.774  0.00  0.00    +0.000 C 
ATOM     23  F   UNL     1       9.490   5.931  12.903  0.00  0.00    +0.000 F 
ATOM     24  F   UNL     1       7.885   5.912  11.440  0.00  0.00    +0.000 F 
ENDBRANCH  21  22
ENDBRANCH   8  21
TORSDOF 7
ENDMDL
MODEL 5
REMARK VINA RESULT:      -6.8      3.642      6.273
REMARK  Name = 
REMARK  8 active torsions:
REMARK  status: ('A' for Active; 'I' for Inactive)
REMARK    1  A    between atoms: C_1  and  C_2
REMARK    2  A    between atoms: N_4  and  C1*_5
REMARK    3  A    between atoms: C4*_7  and  C5*_8
REMARK    4  A    between atoms: C5*_8  and  O5*_9
REMARK    5  A    between atoms: C3*_10  and  O3*_11
REMARK    6  A    between atoms: C2*_12  and  O2*_13
REMARK    7  A    between atoms: C_17  and  O_18
REMARK    8  A    between atoms: O_18  and  C_19
REMARK                            x       y       z     vdW  Elec       q    Type
REMARK                         _______ _______ _______ _____ _____    ______ ____
ROOT
ATOM      1  C   UNL     1       4.412   2.165  19.999  0.00  0.00    +0.000 C 
ATOM      2  C   UNL     1       4.182   3.542  19.478  0.00  0.00    +0.000 A 
ATOM      3  C   UNL     1       4.757   4.032  18.377  0.00  0.00    +0.000 A 
ATOM      4  N   UNL     1       4.456   5.290  17.894  0.00  0.00    +0.000 N 
ATOM      5  C   UNL     1       3.592   6.144  18.580  0.00  0.00    +0.000 A 
ATOM      6  O   UNL     1       3.300   7.251  18.133  0.00  0.00    +0.000 OA
ATOM      7  N   UNL     1       2.979   5.680  19.715  0.00  0.00    +0.000 NA
ATOM      8  C   UNL     1       3.224   4.475  20.088  0.00  0.00    +0.000 A 
ENDROOT
BRANCH   4   9
ATOM      9  C1* UNL     1       4.873   5.631  16.536  0.00  0.00    +0.000 C 
ATOM     10  O4* UNL     1       4.635   4.541  15.620  0.00  0.00    +0.000 OA
ATOM     11  C4* UNL     1       5.692   4.636  14.633  0.00  0.00    +0.000 C 
ATOM     12  C3* UNL     1       6.927   5.047  15.414  0.00  0.00    +0.000 C 
ATOM     13  C2* UNL     1       6.339   6.093  16.351  0.00  0.00    +0.000 C 
BRANCH  12  14
ATOM     14  O3* UNL     1       7.936   5.578  14.566  0.00  0.00    +0.000 OA
ATOM     15  H3* UNL     1       8.512   6.150  15.105  0.00  0.00    +0.000 HD
ENDBRANCH  12  14
BRANCH  13  16
ATOM     16  O2* UNL     1       7.123   6.264  17.527  0.00  0.00    +0.000 OA
ATOM     17  H2* UNL     1       7.993   6.628  17.254  0.00  0.00    +0.000 HD
ENDBRANCH  13  16
BRANCH  11  18
ATOM     18  C5* UNL     1       5.854   3.322  13.872  0.00  0.00    +0.000 C 
BRANCH  18  19
ATOM     19  O5* UNL     1       6.662   3.543  12.720  0.00  0.00    +0.000 OA
ATOM     20  H5* UNL     1       7.481   3.034  12.863  0.00  0.00    +0.000 HD
ENDBRANCH  18  19
ENDBRANCH  11  18
ENDBRANCH   4   9
BRANCH   8  21
ATOM     21  O   UNL     1       2.588   3.897  21.129  0.00  0.00    +0.000 OA
BRANCH  21  22
ATOM     22  C   UNL     1       1.371   3.263  20.770  0.00  0.00    +0.000 C 
ATOM     23  F   UNL     1       0.898   2.607  21.859  0.00  0.00    +0.000 F 
ATOM     24  F   UNL     1       0.477   4.249  20.501  0.00  0.00    +0.000 F 
ENDBRANCH  21  22
ENDBRANCH   8  21
TORSDOF 7
ENDMDL
MODEL 6
REMARK VINA RESULT:      -6.7      3.657      6.496
REMARK  Name = 
REMARK  8 active torsions:
REMARK  status: ('A' for Active; 'I' for Inactive)
REMARK    1  A    between atoms: C_1  and  C_2
REMARK    2  A    between atoms: N_4  and  C1*_5
REMARK    3  A    between atoms: C4*_7  and  C5*_8
REMARK    4  A    between atoms: C5*_8  and  O5*_9
REMARK    5  A    between atoms: C3*_10  and  O3*_11
REMARK    6  A    between atoms: C2*_12  and  O2*_13
REMARK    7  A    between atoms: C_17  and  O_18
REMARK    8  A    between atoms: O_18  and  C_19
REMARK                            x       y       z     vdW  Elec       q    Type
REMARK                         _______ _______ _______ _____ _____    ______ ____
ROOT
ATOM      1  C   UNL     1       3.717   1.143  18.438  0.00  0.00    +0.000 C 
ATOM      2  C   UNL     1       3.708   2.627  18.295  0.00  0.00    +0.000 A 
ATOM      3  C   UNL     1       4.404   3.295  17.371  0.00  0.00    +0.000 A 
ATOM      4  N   UNL     1       4.307   4.665  17.233  0.00  0.00    +0.000 N 
ATOM      5  C   UNL     1       3.533   5.430  18.105  0.00  0.00    +0.000 A 
ATOM      6  O   UNL     1       3.420   6.646  17.961  0.00  0.00    +0.000 OA
ATOM      7  N   UNL     1       2.800   4.784  19.068  0.00  0.00    +0.000 NA
ATOM      8  C   UNL     1       2.856   3.501  19.114  0.00  0.00    +0.000 A 
ENDROOT
BRANCH   4   9
ATOM      9  C1* UNL     1       4.839   5.279  16.020  0.00  0.00    +0.000 C 
ATOM     10  O4* UNL     1       4.679   4.417  14.873  0.00  0.00    +0.000 OA
ATOM     11  C4* UNL     1       5.817   4.698  14.022  0.00  0.00    +0.000 C 
ATOM     12  C3* UNL     1       6.981   4.907  14.973  0.00  0.00    +0.000 C 
ATOM     13  C2* UNL     1       6.317   5.741  16.061  0.00  0.00    +0.000 C 
BRANCH  12  14
ATOM     14  O3* UNL     1       8.060   5.587  14.347  0.00  0.00    +0.000 OA
ATOM     15  H3* UNL     1       7.853   6.538  14.339  0.00  0.00    +0.000 HD
ENDBRANCH  12  14
BRANCH  13  16
ATOM     16  O2* UNL     1       6.997   5.640  17.307  0.00  0.00    +0.000 OA
ATOM     17  H2* UNL     1       7.701   4.963  17.209  0.00  0.00    +0.000 HD
ENDBRANCH  13  16
BRANCH  11  18
ATOM     18  C5* UNL     1       6.040   3.575  13.013  0.00  0.00    +0.000 C 
BRANCH  18  19
ATOM     19  O5* UNL     1       7.015   3.987  12.059  0.00  0.00    +0.000 OA
ATOM     20  H5* UNL     1       6.656   4.787  11.633  0.00  0.00    +0.000 HD
ENDBRANCH  18  19
ENDBRANCH  11  18
ENDBRANCH   4   9
BRANCH   8  21
ATOM     21  O   UNL     1       2.090   2.775  19.956  0.00  0.00    +0.000 OA
BRANCH  21  22
ATOM     22  C   UNL     1       2.221   3.158  21.314  0.00  0.00    +0.000 C 
ATOM     23  F   UNL     1       1.047   2.894  21.942  0.00  0.00    +0.000 F 
ATOM     24  F   UNL     1       3.144   2.331  21.871  0.00  0.00    +0.000 F 
ENDBRANCH  21  22
ENDBRANCH   8  21
TORSDOF 7
ENDMDL
MODEL 7
REMARK VINA RESULT:      -6.7      3.724      6.457
REMARK  Name = 
REMARK  8 active torsions:
REMARK  status: ('A' for Active; 'I' for Inactive)
REMARK    1  A    between atoms: C_1  and  C_2
REMARK    2  A    between atoms: N_4  and  C1*_5
REMARK    3  A    between atoms: C4*_7  and  C5*_8
REMARK    4  A    between atoms: C5*_8  and  O5*_9
REMARK    5  A    between atoms: C3*_10  and  O3*_11
REMARK    6  A    between atoms: C2*_12  and  O2*_13
REMARK    7  A    between atoms: C_17  and  O_18
REMARK    8  A    between atoms: O_18  and  C_19
REMARK                            x       y       z     vdW  Elec       q    Type
REMARK                         _______ _______ _______ _____ _____    ______ ____
ROOT
ATOM      1  C   UNL     1       3.499   1.584  18.397  0.00  0.00    +0.000 C 
ATOM      2  C   UNL     1       3.832   3.026  18.223  0.00  0.00    +0.000 A 
ATOM      3  C   UNL     1       4.504   3.520  17.180  0.00  0.00    +0.000 A 
ATOM      4  N   UNL     1       4.725   4.874  17.029  0.00  0.00    +0.000 N 
ATOM      5  C   UNL     1       4.322   5.789  18.001  0.00  0.00    +0.000 A 
ATOM      6  O   UNL     1       4.490   6.997  17.850  0.00  0.00    +0.000 OA
ATOM      7  N   UNL     1       3.627   5.325  19.088  0.00  0.00    +0.000 NA
ATOM      8  C   UNL     1       3.372   4.068  19.153  0.00  0.00    +0.000 A 
ENDROOT
BRANCH   4   9
ATOM      9  C1* UNL     1       5.180   5.362  15.729  0.00  0.00    +0.000 C 
ATOM     10  O4* UNL     1       4.954   4.388  14.688  0.00  0.00    +0.000 OA
ATOM     11  C4* UNL     1       6.037   4.580  13.744  0.00  0.00    +0.000 C 
ATOM     12  C3* UNL     1       7.256   4.881  14.597  0.00  0.00    +0.000 C 
ATOM     13  C2* UNL     1       6.656   5.822  15.634  0.00  0.00    +0.000 C 
BRANCH  12  14
ATOM     14  O3* UNL     1       8.292   5.491  13.841  0.00  0.00    +0.000 OA
ATOM     15  H3* UNL     1       8.777   6.098  14.428  0.00  0.00    +0.000 HD
ENDBRANCH  12  14
BRANCH  13  16
ATOM     16  O2* UNL     1       7.412   5.845  16.840  0.00  0.00    +0.000 OA
ATOM     17  H2* UNL     1       8.304   5.490  16.640  0.00  0.00    +0.000 HD
ENDBRANCH  13  16
BRANCH  11  18
ATOM     18  C5* UNL     1       6.203   3.360  12.842  0.00  0.00    +0.000 C 
BRANCH  18  19
ATOM     19  O5* UNL     1       5.110   3.298  11.930  0.00  0.00    +0.000 OA
ATOM     20  H5* UNL     1       4.461   2.688  12.328  0.00  0.00    +0.000 HD
ENDBRANCH  18  19
ENDBRANCH  11  18
ENDBRANCH   4   9
BRANCH   8  21
ATOM     21  O   UNL     1       2.604   3.536  20.128  0.00  0.00    +0.000 OA
BRANCH  21  22
ATOM     22  C   UNL     1       1.228   3.853  20.002  0.00  0.00    +0.000 C 
ATOM     23  F   UNL     1       0.507   2.796  20.456  0.00  0.00    +0.000 F 
ATOM     24  F   UNL     1       0.979   4.878  20.857  0.00  0.00    +0.000 F 
ENDBRANCH  21  22
ENDBRANCH   8  21
TORSDOF 7
ENDMDL
MODEL 8
REMARK VINA RESULT:      -6.7      3.420      6.321
REMARK  Name = 
REMARK  8 active torsions:
REMARK  status: ('A' for Active; 'I' for Inactive)
REMARK    1  A    between atoms: C_1  and  C_2
REMARK    2  A    between atoms: N_4  and  C1*_5
REMARK    3  A    between atoms: C4*_7  and  C5*_8
REMARK    4  A    between atoms: C5*_8  and  O5*_9
REMARK    5  A    between atoms: C3*_10  and  O3*_11
REMARK    6  A    between atoms: C2*_12  and  O2*_13
REMARK    7  A    between atoms: C_17  and  O_18
REMARK    8  A    between atoms: O_18  and  C_19
REMARK                            x       y       z     vdW  Elec       q    Type
REMARK                         _______ _______ _______ _____ _____    ______ ____
ROOT
ATOM      1  C   UNL     1       1.913   5.890  20.794  0.00  0.00    +0.000 C 
ATOM      2  C   UNL     1       2.505   4.949  19.801  0.00  0.00    +0.000 A 
ATOM      3  C   UNL     1       3.551   5.241  19.023  0.00  0.00    +0.000 A 
ATOM      4  N   UNL     1       4.109   4.310  18.170  0.00  0.00    +0.000 N 
ATOM      5  C   UNL     1       3.557   3.038  18.022  0.00  0.00    +0.000 A 
ATOM      6  O   UNL     1       4.073   2.199  17.287  0.00  0.00    +0.000 OA
ATOM      7  N   UNL     1       2.482   2.696  18.803  0.00  0.00    +0.000 NA
ATOM      8  C   UNL     1       2.042   3.564  19.642  0.00  0.00    +0.000 A 
ENDROOT
BRANCH   4   9
ATOM      9  C1* UNL     1       5.422   4.593  17.597  0.00  0.00    +0.000 C 
ATOM     10  O4* UNL     1       6.459   4.555  18.600  0.00  0.00    +0.000 OA
ATOM     11  C4* UNL     1       7.441   5.530  18.171  0.00  0.00    +0.000 C 
ATOM     12  C3* UNL     1       6.633   6.680  17.597  0.00  0.00    +0.000 C 
ATOM     13  C2* UNL     1       5.571   5.920  16.813  0.00  0.00    +0.000 C 
BRANCH  12  14
ATOM     14  O3* UNL     1       7.425   7.520  16.769  0.00  0.00    +0.000 OA
ATOM     15  H3* UNL     1       7.664   7.018  15.970  0.00  0.00    +0.000 HD
ENDBRANCH  12  14
BRANCH  13  16
ATOM     16  O2* UNL     1       4.393   6.695  16.614  0.00  0.00    +0.000 OA
ATOM     17  H2* UNL     1       3.934   6.342  15.822  0.00  0.00    +0.000 HD
ENDBRANCH  13  16
BRANCH  11  18
ATOM     18  C5* UNL     1       8.355   5.935  19.324  0.00  0.00    +0.000 C 
BRANCH  18  19
ATOM     19  O5* UNL     1       7.829   5.420  20.544  0.00  0.00    +0.000 OA
ATOM     20  H5* UNL     1       6.939   5.084  20.333  0.00  0.00    +0.000 HD
ENDBRANCH  18  19
ENDBRANCH  11  18
ENDBRANCH   4   9
BRANCH   8  21
ATOM     21  O   UNL     1       1.060   3.281  20.524  0.00  0.00    +0.000 OA
BRANCH  21  22
ATOM     22  C   UNL     1       1.457   2.382  21.546  0.00  0.00    +0.000 C 
ATOM     23  F   UNL     1       2.692   2.748  21.974  0.00  0.00    +0.000 F 
ATOM     24  F   UNL     1       0.617   2.581  22.595  0.00  0.00    +0.000 F 
ENDBRANCH  21  22
ENDBRANCH   8  21
TORSDOF 7
ENDMDL
MODEL 9
REMARK VINA RESULT:      -6.7      3.394      6.424
REMARK  Name = 
REMARK  8 active torsions:
REMARK  status: ('A' for Active; 'I' for Inactive)
REMARK    1  A    between atoms: C_1  and  C_2
REMARK    2  A    between atoms: N_4  and  C1*_5
REMARK    3  A    between atoms: C4*_7  and  C5*_8
REMARK    4  A    between atoms: C5*_8  and  O5*_9
REMARK    5  A    between atoms: C3*_10  and  O3*_11
REMARK    6  A    between atoms: C2*_12  and  O2*_13
REMARK    7  A    between atoms: C_17  and  O_18
REMARK    8  A    between atoms: O_18  and  C_19
REMARK                            x       y       z     vdW  Elec       q    Type
REMARK                         _______ _______ _______ _____ _____    ______ ____
ROOT
ATOM      1  C   UNL     1       1.972   6.255  20.354  0.00  0.00    +0.000 C 
ATOM      2  C   UNL     1       2.606   5.114  19.635  0.00  0.00    +0.000 A 
ATOM      3  C   UNL     1       3.761   5.196  18.968  0.00  0.00    +0.000 A 
ATOM      4  N   UNL     1       4.344   4.093  18.379  0.00  0.00    +0.000 N 
ATOM      5  C   UNL     1       3.715   2.848  18.385  0.00  0.00    +0.000 A 
ATOM      6  O   UNL     1       4.250   1.859  17.888  0.00  0.00    +0.000 OA
ATOM      7  N   UNL     1       2.528   2.719  19.060  0.00  0.00    +0.000 NA
ATOM      8  C   UNL     1       2.057   3.751  19.663  0.00  0.00    +0.000 A 
ENDROOT
BRANCH   4   9
ATOM      9  C1* UNL     1       5.736   4.190  17.949  0.00  0.00    +0.000 C 
ATOM     10  O4* UNL     1       6.442   5.226  18.666  0.00  0.00    +0.000 OA
ATOM     11  C4* UNL     1       7.418   5.742  17.727  0.00  0.00    +0.000 C 
ATOM     12  C3* UNL     1       6.711   5.746  16.384  0.00  0.00    +0.000 C 
ATOM     13  C2* UNL     1       5.987   4.407  16.437  0.00  0.00    +0.000 C 
BRANCH  12  14
ATOM     14  O3* UNL     1       7.630   5.827  15.304  0.00  0.00    +0.000 OA
ATOM     15  H3* UNL     1       7.975   6.737  15.269  0.00  0.00    +0.000 HD
ENDBRANCH  12  14
BRANCH  13  16
ATOM     16  O2* UNL     1       4.854   4.374  15.576  0.00  0.00    +0.000 OA
ATOM     17  H2* UNL     1       4.051   4.371  16.140  0.00  0.00    +0.000 HD
ENDBRANCH  13  16
BRANCH  11  18
ATOM     18  C5* UNL     1       7.924   7.116  18.160  0.00  0.00    +0.000 C 
BRANCH  18  19
ATOM     19  O5* UNL     1       7.752   8.039  17.089  0.00  0.00    +0.000 OA
ATOM     20  H5* UNL     1       7.677   7.502  16.279  0.00  0.00    +0.000 HD
ENDBRANCH  18  19
ENDBRANCH  11  18
ENDBRANCH   4   9
BRANCH   8  21
ATOM     21  O   UNL     1       0.953   3.693  20.438  0.00  0.00    +0.000 OA
BRANCH  21  22
ATOM     22  C   UNL     1       1.160   3.022  21.670  0.00  0.00    +0.000 C 
ATOM     23  F   UNL     1       1.509   1.738  21.399  0.00  0.00    +0.000 F 
ATOM     24  F   UNL     1       2.244   3.595  22.255  0.00  0.00    +0.000 F 
ENDBRANCH  21  22
ENDBRANCH   8  21
TORSDOF 7
ENDMDL
