MODEL 1
REMARK VINA RESULT:      -7.6      0.000      0.000
REMARK  Name = 
REMARK  9 active torsions:
REMARK  status: ('A' for Active; 'I' for Inactive)
REMARK    1  A    between atoms: C_2  and  C_3
REMARK    2  A    between atoms: C_3  and  N_4
REMARK    3  A    between atoms: C_5  and  C_7
REMARK    4  A    between atoms: C_9  and  C_10
REMARK    5  A    between atoms: C_10  and  N_11
REMARK    6  A    between atoms: N_11  and  C_12
REMARK    7  A    between atoms: C_12  and  C_13
REMARK    8  A    between atoms: C_21  and  O_22
REMARK    9  A    between atoms: C_23  and  O_24
REMARK                            x       y       z     vdW  Elec       q    Type
REMARK                         _______ _______ _______ _____ _____    ______ ____
ROOT
ATOM      1  C   UNL     1       6.908   4.899  15.669  0.00  0.00    +0.000 C 
ATOM      2  O   UNL     1       7.720   6.000  16.106  0.00  0.00    +0.000 OA
ATOM      3  C   UNL     1       6.891   6.911  16.852  0.00  0.00    +0.000 C 
ATOM      4  C   UNL     1       5.708   6.080  17.337  0.00  0.00    +0.000 C 
ATOM      5  C   UNL     1       5.469   5.176  16.133  0.00  0.00    +0.000 C 
ENDROOT
BRANCH   1   7
ATOM      6  N   UNL     1       6.244   3.705  13.613  0.00  0.00    +0.000 N 
ATOM      7  C   UNL     1       6.999   4.728  14.150  0.00  0.00    +0.000 C 
ATOM      8  O   UNL     1       7.661   5.490  13.442  0.00  0.00    +0.000 OA
ATOM      9  H   UNL     1       5.811   3.043  14.245  0.00  0.00    +0.000 HD
BRANCH   6  10
ATOM     10  C   UNL     1       6.335   3.390  12.205  0.00  0.00    +0.000 C 
BRANCH  10  12
ATOM     11  C   UNL     1       4.078   3.283  11.143  0.00  0.00    +0.000 C 
ATOM     12  C   UNL     1       5.091   2.680  11.780  0.00  0.00    +0.000 C 
ENDBRANCH  10  12
ENDBRANCH   6  10
ENDBRANCH   1   7
BRANCH   4  13
ATOM     13  O   UNL     1       4.586   6.860  17.719  0.00  0.00    +0.000 OA
ATOM     14  H   UNL     1       3.791   6.297  17.731  0.00  0.00    +0.000 HD
ENDBRANCH   4  13
BRANCH   5  15
ATOM     15  O   UNL     1       4.748   3.997  16.482  0.00  0.00    +0.000 OA
ATOM     16  H   UNL     1       4.183   3.733  15.737  0.00  0.00    +0.000 HD
ENDBRANCH   5  15
BRANCH   3  17
ATOM     17  C   UNL     1       7.681   7.547  18.008  0.00  0.00    +0.000 C 
BRANCH  17  18
ATOM     18  N   UNL     1       7.996   8.954  17.723  0.00  0.00    +0.000 NA
ATOM     19  H   UNL     1       7.140   9.502  17.659  0.00  0.00    +0.000 HD
BRANCH  18  20
ATOM     20  C   UNL     1       8.874   9.524  18.739  0.00  0.00    +0.000 C 
BRANCH  20  21
ATOM     21  C   UNL     1       9.381  10.883  18.313  0.00  0.00    +0.000 A 
ATOM     22  C   UNL     1      10.733  11.076  18.001  0.00  0.00    +0.000 A 
ATOM     23  C   UNL     1      11.197  12.334  17.605  0.00  0.00    +0.000 A 
ATOM     24  C   UNL     1      10.315  13.414  17.514  0.00  0.00    +0.000 A 
ATOM     25 CL   UNL     1      10.959  14.938  17.015  0.00  0.00    +0.000 Cl
ATOM     26  C   UNL     1       8.962  13.234  17.821  0.00  0.00    +0.000 A 
ATOM     27 CL   UNL     1       7.813  14.521  17.735  0.00  0.00    +0.000 Cl
ATOM     28  C   UNL     1       8.501  11.974  18.216  0.00  0.00    +0.000 A 
ENDBRANCH  20  21
ENDBRANCH  18  20
ENDBRANCH  17  18
ENDBRANCH   3  17
TORSDOF 9
ENDMDL
MODEL 2
REMARK VINA RESULT:      -7.6      5.768      7.473
REMARK  Name = 
REMARK  9 active torsions:
REMARK  status: ('A' for Active; 'I' for Inactive)
REMARK    1  A    between atoms: C_2  and  C_3
REMARK    2  A    between atoms: C_3  and  N_4
REMARK    3  A    between atoms: C_5  and  C_7
REMARK    4  A    between atoms: C_9  and  C_10
REMARK    5  A    between atoms: C_10  and  N_11
REMARK    6  A    between atoms: N_11  and  C_12
REMARK    7  A    between atoms: C_12  and  C_13
REMARK    8  A    between atoms: C_21  and  O_22
REMARK    9  A    between atoms: C_23  and  O_24
REMARK                            x       y       z     vdW  Elec       q    Type
REMARK                         _______ _______ _______ _____ _____    ______ ____
ROOT
ATOM      1  C   UNL     1       7.081   5.625  15.654  0.00  0.00    +0.000 C 
ATOM      2  O   UNL     1       6.015   6.579  15.783  0.00  0.00    +0.000 OA
ATOM      3  C   UNL     1       5.211   6.215  16.921  0.00  0.00    +0.000 C 
ATOM      4  C   UNL     1       6.119   5.367  17.805  0.00  0.00    +0.000 C 
ATOM      5  C   UNL     1       6.892   4.572  16.758  0.00  0.00    +0.000 C 
ENDROOT
BRANCH   1   7
ATOM      6  N   UNL     1       6.189   3.966  14.060  0.00  0.00    +0.000 N 
ATOM      7  C   UNL     1       7.082   4.998  14.257  0.00  0.00    +0.000 C 
ATOM      8  O   UNL     1       7.798   5.424  13.348  0.00  0.00    +0.000 OA
ATOM      9  H   UNL     1       5.709   3.583  14.865  0.00  0.00    +0.000 HD
BRANCH   6  10
ATOM     10  C   UNL     1       6.178   3.236  12.812  0.00  0.00    +0.000 C 
BRANCH  10  12
ATOM     11  C   UNL     1       4.161   3.047  11.352  0.00  0.00    +0.000 C 
ATOM     12  C   UNL     1       5.113   3.795  11.925  0.00  0.00    +0.000 C 
ENDBRANCH  10  12
ENDBRANCH   6  10
ENDBRANCH   1   7
BRANCH   4  13
ATOM     13  O   UNL     1       5.414   4.571  18.745  0.00  0.00    +0.000 OA
ATOM     14  H   UNL     1       5.229   5.100  19.542  0.00  0.00    +0.000 HD
ENDBRANCH   4  13
BRANCH   5  15
ATOM     15  O   UNL     1       8.120   4.061  17.271  0.00  0.00    +0.000 OA
ATOM     16  H   UNL     1       8.831   4.236  16.633  0.00  0.00    +0.000 HD
ENDBRANCH   5  15
BRANCH   3  17
ATOM     17  C   UNL     1       4.687   7.469  17.642  0.00  0.00    +0.000 C 
BRANCH  17  18
ATOM     18  N   UNL     1       3.228   7.586  17.506  0.00  0.00    +0.000 NA
ATOM     19  H   UNL     1       2.885   6.936  16.800  0.00  0.00    +0.000 HD
BRANCH  18  20
ATOM     20  C   UNL     1       2.550   7.342  18.774  0.00  0.00    +0.000 C 
BRANCH  20  21
ATOM     21  C   UNL     1       2.231   5.873  18.941  0.00  0.00    +0.000 A 
ATOM     22  C   UNL     1       1.900   5.082  17.833  0.00  0.00    +0.000 A 
ATOM     23  C   UNL     1       1.608   3.725  17.993  0.00  0.00    +0.000 A 
ATOM     24  C   UNL     1       1.644   3.140  19.261  0.00  0.00    +0.000 A 
ATOM     25 CL   UNL     1       1.275   1.456  19.381  0.00  0.00    +0.000 Cl
ATOM     26  C   UNL     1       1.974   3.918  20.375  0.00  0.00    +0.000 A 
ATOM     27 CL   UNL     1       2.036   3.268  21.975  0.00  0.00    +0.000 Cl
ATOM     28  C   UNL     1       2.267   5.277  20.212  0.00  0.00    +0.000 A 
ENDBRANCH  20  21
ENDBRANCH  18  20
ENDBRANCH  17  18
ENDBRANCH   3  17
TORSDOF 9
ENDMDL
MODEL 3
REMARK VINA RESULT:      -7.5      5.291      6.353
REMARK  Name = 
REMARK  9 active torsions:
REMARK  status: ('A' for Active; 'I' for Inactive)
REMARK    1  A    between atoms: C_2  and  C_3
REMARK    2  A    between atoms: C_3  and  N_4
REMARK    3  A    between atoms: C_5  and  C_7
REMARK    4  A    between atoms: C_9  and  C_10
REMARK    5  A    between atoms: C_10  and  N_11
REMARK    6  A    between atoms: N_11  and  C_12
REMARK    7  A    between atoms: C_12  and  C_13
REMARK    8  A    between atoms: C_21  and  O_22
REMARK    9  A    between atoms: C_23  and  O_24
REMARK                            x       y       z     vdW  Elec       q    Type
REMARK                         _______ _______ _______ _____ _____    ______ ____
ROOT
ATOM      1  C   UNL     1       6.964   5.504  15.862  0.00  0.00    +0.000 C 
ATOM      2  O   UNL     1       5.756   6.250  16.080  0.00  0.00    +0.000 OA
ATOM      3  C   UNL     1       5.056   5.669  17.197  0.00  0.00    +0.000 C 
ATOM      4  C   UNL     1       6.117   4.923  17.998  0.00  0.00    +0.000 C 
ATOM      5  C   UNL     1       6.984   4.353  16.882  0.00  0.00    +0.000 C 
ENDROOT
BRANCH   1   7
ATOM      6  N   UNL     1       6.088   4.054  14.067  0.00  0.00    +0.000 N 
ATOM      7  C   UNL     1       7.034   4.995  14.420  0.00  0.00    +0.000 C 
ATOM      8  O   UNL     1       7.849   5.436  13.607  0.00  0.00    +0.000 OA
ATOM      9  H   UNL     1       5.518   3.646  14.797  0.00  0.00    +0.000 HD
BRANCH   6  10
ATOM     10  C   UNL     1       6.126   3.432  12.762  0.00  0.00    +0.000 C 
BRANCH  10  12
ATOM     11  C   UNL     1       4.238   2.938  11.205  0.00  0.00    +0.000 C 
ATOM     12  C   UNL     1       4.886   3.791  12.010  0.00  0.00    +0.000 C 
ENDBRANCH  10  12
ENDBRANCH   6  10
ENDBRANCH   1   7
BRANCH   4  13
ATOM     13  O   UNL     1       5.580   3.950  18.881  0.00  0.00    +0.000 OA
ATOM     14  H   UNL     1       6.147   3.882  19.670  0.00  0.00    +0.000 HD
ENDBRANCH   4  13
BRANCH   5  15
ATOM     15  O   UNL     1       8.293   4.021  17.336  0.00  0.00    +0.000 OA
ATOM     16  H   UNL     1       8.349   4.172  18.294  0.00  0.00    +0.000 HD
ENDBRANCH   5  15
BRANCH   3  17
ATOM     17  C   UNL     1       4.347   6.757  18.021  0.00  0.00    +0.000 C 
BRANCH  17  18
ATOM     18  N   UNL     1       2.917   6.452  18.181  0.00  0.00    +0.000 NA
ATOM     19  H   UNL     1       2.707   5.532  17.798  0.00  0.00    +0.000 HD
BRANCH  18  20
ATOM     20  C   UNL     1       2.509   6.512  19.580  0.00  0.00    +0.000 C 
BRANCH  20  21
ATOM     21  C   UNL     1       1.782   7.804  19.875  0.00  0.00    +0.000 A 
ATOM     22  C   UNL     1       1.616   8.775  18.879  0.00  0.00    +0.000 A 
ATOM     23  C   UNL     1       0.941   9.967  19.157  0.00  0.00    +0.000 A 
ATOM     24  C   UNL     1       0.422  10.203  20.433  0.00  0.00    +0.000 A 
ATOM     25 CL   UNL     1      -0.403  11.698  20.701  0.00  0.00    +0.000 Cl
ATOM     26  C   UNL     1       0.580   9.241  21.435  0.00  0.00    +0.000 A 
ATOM     27 CL   UNL     1      -0.030   9.462  23.037  0.00  0.00    +0.000 Cl
ATOM     28  C   UNL     1       1.255   8.048  21.154  0.00  0.00    +0.000 A 
ENDBRANCH  20  21
ENDBRANCH  18  20
ENDBRANCH  17  18
ENDBRANCH   3  17
TORSDOF 9
ENDMDL
MODEL 4
REMARK VINA RESULT:      -7.4      4.705      6.279
REMARK  Name = 
REMARK  9 active torsions:
REMARK  status: ('A' for Active; 'I' for Inactive)
REMARK    1  A    between atoms: C_2  and  C_3
REMARK    2  A    between atoms: C_3  and  N_4
REMARK    3  A    between atoms: C_5  and  C_7
REMARK    4  A    between atoms: C_9  and  C_10
REMARK    5  A    between atoms: C_10  and  N_11
REMARK    6  A    between atoms: N_11  and  C_12
REMARK    7  A    between atoms: C_12  and  C_13
REMARK    8  A    between atoms: C_21  and  O_22
REMARK    9  A    between atoms: C_23  and  O_24
REMARK                            x       y       z     vdW  Elec       q    Type
REMARK                         _______ _______ _______ _____ _____    ______ ____
ROOT
ATOM      1  C   UNL     1       6.008   5.590  16.027  0.00  0.00    +0.000 C 
ATOM      2  O   UNL     1       5.061   4.688  16.622  0.00  0.00    +0.000 OA
ATOM      3  C   UNL     1       5.464   4.436  17.982  0.00  0.00    +0.000 C 
ATOM      4  C   UNL     1       6.338   5.622  18.373  0.00  0.00    +0.000 C 
ATOM      5  C   UNL     1       7.096   5.872  17.075  0.00  0.00    +0.000 C 
ENDROOT
BRANCH   1   7
ATOM      6  N   UNL     1       5.799   4.064  14.098  0.00  0.00    +0.000 N 
ATOM      7  C   UNL     1       6.589   4.995  14.741  0.00  0.00    +0.000 C 
ATOM      8  O   UNL     1       7.671   5.364  14.278  0.00  0.00    +0.000 OA
ATOM      9  H   UNL     1       4.978   3.716  14.577  0.00  0.00    +0.000 HD
BRANCH   6  10
ATOM     10  C   UNL     1       6.293   3.365  12.933  0.00  0.00    +0.000 C 
BRANCH  10  12
ATOM     11  C   UNL     1       4.252   3.140  11.514  0.00  0.00    +0.000 C 
ATOM     12  C   UNL     1       5.440   3.709  11.756  0.00  0.00    +0.000 C 
ENDBRANCH  10  12
ENDBRANCH   6  10
ENDBRANCH   1   7
BRANCH   4  13
ATOM     13  O   UNL     1       7.165   5.370  19.499  0.00  0.00    +0.000 OA
ATOM     14  H   UNL     1       6.692   5.624  20.311  0.00  0.00    +0.000 HD
ENDBRANCH   4  13
BRANCH   5  15
ATOM     15  O   UNL     1       7.620   7.196  17.006  0.00  0.00    +0.000 OA
ATOM     16  H   UNL     1       8.578   7.154  16.844  0.00  0.00    +0.000 HD
ENDBRANCH   5  15
BRANCH   3  17
ATOM     17  C   UNL     1       4.236   4.278  18.894  0.00  0.00    +0.000 C 
BRANCH  17  18
ATOM     18  N   UNL     1       3.957   5.522  19.626  0.00  0.00    +0.000 NA
ATOM     19  H   UNL     1       4.033   6.324  19.003  0.00  0.00    +0.000 HD
BRANCH  18  20
ATOM     20  C   UNL     1       2.635   5.497  20.241  0.00  0.00    +0.000 C 
BRANCH  20  21
ATOM     21  C   UNL     1       1.996   6.867  20.200  0.00  0.00    +0.000 A 
ATOM     22  C   UNL     1       1.183   7.309  21.252  0.00  0.00    +0.000 A 
ATOM     23  C   UNL     1       0.597   8.577  21.211  0.00  0.00    +0.000 A 
ATOM     24  C   UNL     1       0.817   9.421  20.118  0.00  0.00    +0.000 A 
ATOM     25 CL   UNL     1       0.062  10.975  20.138  0.00  0.00    +0.000 Cl
ATOM     26  C   UNL     1       1.627   8.992  19.062  0.00  0.00    +0.000 A 
ATOM     27 CL   UNL     1       1.943   9.976  17.678  0.00  0.00    +0.000 Cl
ATOM     28  C   UNL     1       2.214   7.723  19.107  0.00  0.00    +0.000 A 
ENDBRANCH  20  21
ENDBRANCH  18  20
ENDBRANCH  17  18
ENDBRANCH   3  17
TORSDOF 9
ENDMDL
MODEL 5
REMARK VINA RESULT:      -7.4      5.977      7.564
REMARK  Name = 
REMARK  9 active torsions:
REMARK  status: ('A' for Active; 'I' for Inactive)
REMARK    1  A    between atoms: C_2  and  C_3
REMARK    2  A    between atoms: C_3  and  N_4
REMARK    3  A    between atoms: C_5  and  C_7
REMARK    4  A    between atoms: C_9  and  C_10
REMARK    5  A    between atoms: C_10  and  N_11
REMARK    6  A    between atoms: N_11  and  C_12
REMARK    7  A    between atoms: C_12  and  C_13
REMARK    8  A    between atoms: C_21  and  O_22
REMARK    9  A    between atoms: C_23  and  O_24
REMARK                            x       y       z     vdW  Elec       q    Type
REMARK                         _______ _______ _______ _____ _____    ______ ____
ROOT
ATOM      1  C   UNL     1       4.694   3.832  19.019  0.00  0.00    +0.000 C 
ATOM      2  O   UNL     1       3.988   4.907  19.658  0.00  0.00    +0.000 OA
ATOM      3  C   UNL     1       2.630   4.910  19.178  0.00  0.00    +0.000 C 
ATOM      4  C   UNL     1       2.374   3.493  18.674  0.00  0.00    +0.000 C 
ATOM      5  C   UNL     1       3.719   3.157  18.040  0.00  0.00    +0.000 C 
ENDROOT
BRANCH   1   7
ATOM      6  N   UNL     1       5.962   4.227  16.939  0.00  0.00    +0.000 N 
ATOM      7  C   UNL     1       5.950   4.352  18.313  0.00  0.00    +0.000 C 
ATOM      8  O   UNL     1       6.869   4.897  18.926  0.00  0.00    +0.000 OA
ATOM      9  H   UNL     1       5.238   3.673  16.498  0.00  0.00    +0.000 HD
BRANCH   6  10
ATOM     10  C   UNL     1       7.139   4.591  16.182  0.00  0.00    +0.000 C 
BRANCH  10  12
ATOM     11  C   UNL     1       5.611   4.342  14.223  0.00  0.00    +0.000 C 
ATOM     12  C   UNL     1       6.850   4.443  14.724  0.00  0.00    +0.000 C 
ENDBRANCH  10  12
ENDBRANCH   6  10
ENDBRANCH   1   7
BRANCH   4  13
ATOM     13  O   UNL     1       1.267   3.396  17.791  0.00  0.00    +0.000 OA
ATOM     14  H   UNL     1       0.874   4.279  17.667  0.00  0.00    +0.000 HD
ENDBRANCH   4  13
BRANCH   5  15
ATOM     15  O   UNL     1       3.919   1.751  17.919  0.00  0.00    +0.000 OA
ATOM     16  H   UNL     1       3.259   1.286  18.459  0.00  0.00    +0.000 HD
ENDBRANCH   5  15
BRANCH   3  17
ATOM     17  C   UNL     1       1.657   5.326  20.294  0.00  0.00    +0.000 C 
BRANCH  17  18
ATOM     18  N   UNL     1       2.069   6.597  20.907  0.00  0.00    +0.000 NA
ATOM     19  H   UNL     1       3.065   6.581  21.120  0.00  0.00    +0.000 HD
BRANCH  18  20
ATOM     20  C   UNL     1       1.766   7.732  20.043  0.00  0.00    +0.000 C 
BRANCH  20  21
ATOM     21  C   UNL     1       0.950   8.769  20.782  0.00  0.00    +0.000 A 
ATOM     22  C   UNL     1       0.836   8.729  22.178  0.00  0.00    +0.000 A 
ATOM     23  C   UNL     1       0.082   9.691  22.856  0.00  0.00    +0.000 A 
ATOM     24  C   UNL     1      -0.566  10.707  22.148  0.00  0.00    +0.000 A 
ATOM     25 CL   UNL     1      -1.476  11.863  23.054  0.00  0.00    +0.000 Cl
ATOM     26  C   UNL     1      -0.459  10.760  20.755  0.00  0.00    +0.000 A 
ATOM     27 CL   UNL     1      -1.232  11.983  19.811  0.00  0.00    +0.000 Cl
ATOM     28  C   UNL     1       0.298   9.796  20.079  0.00  0.00    +0.000 A 
ENDBRANCH  20  21
ENDBRANCH  18  20
ENDBRANCH  17  18
ENDBRANCH   3  17
TORSDOF 9
ENDMDL
MODEL 6
REMARK VINA RESULT:      -7.3      5.150      6.259
REMARK  Name = 
REMARK  9 active torsions:
REMARK  status: ('A' for Active; 'I' for Inactive)
REMARK    1  A    between atoms: C_2  and  C_3
REMARK    2  A    between atoms: C_3  and  N_4
REMARK    3  A    between atoms: C_5  and  C_7
REMARK    4  A    between atoms: C_9  and  C_10
REMARK    5  A    between atoms: C_10  and  N_11
REMARK    6  A    between atoms: N_11  and  C_12
REMARK    7  A    between atoms: C_12  and  C_13
REMARK    8  A    between atoms: C_21  and  O_22
REMARK    9  A    between atoms: C_23  and  O_24
REMARK                            x       y       z     vdW  Elec       q    Type
REMARK                         _______ _______ _______ _____ _____    ______ ____
ROOT
ATOM      1  C   UNL     1       6.556   5.384  15.792  0.00  0.00    +0.000 C 
ATOM      2  O   UNL     1       5.133   5.581  15.820  0.00  0.00    +0.000 OA
ATOM      3  C   UNL     1       4.573   4.720  16.830  0.00  0.00    +0.000 C 
ATOM      4  C   UNL     1       5.720   4.419  17.789  0.00  0.00    +0.000 C 
ATOM      5  C   UNL     1       6.890   4.291  16.820  0.00  0.00    +0.000 C 
ENDROOT
BRANCH   1   7
ATOM      6  N   UNL     1       6.197   4.159  13.680  0.00  0.00    +0.000 N 
ATOM      7  C   UNL     1       7.024   5.011  14.383  0.00  0.00    +0.000 C 
ATOM      8  O   UNL     1       8.048   5.484  13.885  0.00  0.00    +0.000 OA
ATOM      9  H   UNL     1       5.433   3.713  14.173  0.00  0.00    +0.000 HD
BRANCH   6  10
ATOM     10  C   UNL     1       6.592   3.661  12.382  0.00  0.00    +0.000 C 
BRANCH  10  12
ATOM     11  C   UNL     1       5.747   1.542  11.367  0.00  0.00    +0.000 C 
ATOM     12  C   UNL     1       5.517   2.772  11.848  0.00  0.00    +0.000 C 
ENDBRANCH  10  12
ENDBRANCH   6  10
ENDBRANCH   1   7
BRANCH   4  13
ATOM     13  O   UNL     1       5.498   3.274  18.597  0.00  0.00    +0.000 OA
ATOM     14  H   UNL     1       6.243   3.165  19.215  0.00  0.00    +0.000 HD
ENDBRANCH   4  13
BRANCH   5  15
ATOM     15  O   UNL     1       8.145   4.483  17.466  0.00  0.00    +0.000 OA
ATOM     16  H   UNL     1       8.602   5.239  17.061  0.00  0.00    +0.000 HD
ENDBRANCH   5  15
BRANCH   3  17
ATOM     17  C   UNL     1       3.382   5.399  17.526  0.00  0.00    +0.000 C 
BRANCH  17  18
ATOM     18  N   UNL     1       3.789   6.003  18.803  0.00  0.00    +0.000 NA
ATOM     19  H   UNL     1       4.021   6.987  18.671  0.00  0.00    +0.000 HD
BRANCH  18  20
ATOM     20  C   UNL     1       2.748   5.872  19.815  0.00  0.00    +0.000 C 
BRANCH  20  21
ATOM     21  C   UNL     1       2.006   7.177  19.998  0.00  0.00    +0.000 A 
ATOM     22  C   UNL     1       1.231   7.405  21.142  0.00  0.00    +0.000 A 
ATOM     23  C   UNL     1       0.549   8.614  21.307  0.00  0.00    +0.000 A 
ATOM     24  C   UNL     1       0.633   9.611  20.331  0.00  0.00    +0.000 A 
ATOM     25 CL   UNL     1      -0.235  11.079  20.605  0.00  0.00    +0.000 Cl
ATOM     26  C   UNL     1       1.404   9.395  19.184  0.00  0.00    +0.000 A 
ATOM     27 CL   UNL     1       1.554  10.577  17.933  0.00  0.00    +0.000 Cl
ATOM     28  C   UNL     1       2.087   8.185  19.023  0.00  0.00    +0.000 A 
ENDBRANCH  20  21
ENDBRANCH  18  20
ENDBRANCH  17  18
ENDBRANCH   3  17
TORSDOF 9
ENDMDL
MODEL 7
REMARK VINA RESULT:      -7.3      1.098      1.229
REMARK  Name = 
REMARK  9 active torsions:
REMARK  status: ('A' for Active; 'I' for Inactive)
REMARK    1  A    between atoms: C_2  and  C_3
REMARK    2  A    between atoms: C_3  and  N_4
REMARK    3  A    between atoms: C_5  and  C_7
REMARK    4  A    between atoms: C_9  and  C_10
REMARK    5  A    between atoms: C_10  and  N_11
REMARK    6  A    between atoms: N_11  and  C_12
REMARK    7  A    between atoms: C_12  and  C_13
REMARK    8  A    between atoms: C_21  and  O_22
REMARK    9  A    between atoms: C_23  and  O_24
REMARK                            x       y       z     vdW  Elec       q    Type
REMARK                         _______ _______ _______ _____ _____    ______ ____
ROOT
ATOM      1  C   UNL     1       6.786   4.799  15.754  0.00  0.00    +0.000 C 
ATOM      2  O   UNL     1       7.586   5.864  16.292  0.00  0.00    +0.000 OA
ATOM      3  C   UNL     1       6.720   6.771  17.001  0.00  0.00    +0.000 C 
ATOM      4  C   UNL     1       5.485   5.954  17.362  0.00  0.00    +0.000 C 
ATOM      5  C   UNL     1       5.321   5.096  16.113  0.00  0.00    +0.000 C 
ENDROOT
BRANCH   1   7
ATOM      6  N   UNL     1       6.221   3.725  13.605  0.00  0.00    +0.000 N 
ATOM      7  C   UNL     1       6.993   4.675  14.242  0.00  0.00    +0.000 C 
ATOM      8  O   UNL     1       7.761   5.413  13.622  0.00  0.00    +0.000 OA
ATOM      9  H   UNL     1       5.694   3.073  14.171  0.00  0.00    +0.000 HD
BRANCH   6  10
ATOM     10  C   UNL     1       6.409   3.453  12.197  0.00  0.00    +0.000 C 
BRANCH  10  12
ATOM     11  C   UNL     1       4.100   3.296  11.262  0.00  0.00    +0.000 C 
ATOM     12  C   UNL     1       5.226   2.702  11.680  0.00  0.00    +0.000 C 
ENDBRANCH  10  12
ENDBRANCH   6  10
ENDBRANCH   1   7
BRANCH   4  13
ATOM     13  O   UNL     1       4.353   6.749  17.682  0.00  0.00    +0.000 OA
ATOM     14  H   UNL     1       4.308   6.874  18.647  0.00  0.00    +0.000 HD
ENDBRANCH   4  13
BRANCH   5  15
ATOM     15  O   UNL     1       4.549   3.925  16.364  0.00  0.00    +0.000 OA
ATOM     16  H   UNL     1       5.115   3.141  16.268  0.00  0.00    +0.000 HD
ENDBRANCH   5  15
BRANCH   3  17
ATOM     17  C   UNL     1       7.431   7.349  18.236  0.00  0.00    +0.000 C 
BRANCH  17  18
ATOM     18  N   UNL     1       8.438   8.346  17.849  0.00  0.00    +0.000 NA
ATOM     19  H   UNL     1       8.880   8.081  16.970  0.00  0.00    +0.000 HD
BRANCH  18  20
ATOM     20  C   UNL     1       7.856   9.678  17.727  0.00  0.00    +0.000 C 
BRANCH  20  21
ATOM     21  C   UNL     1       8.760  10.721  18.345  0.00  0.00    +0.000 A 
ATOM     22  C   UNL     1       9.543  10.416  19.466  0.00  0.00    +0.000 A 
ATOM     23  C   UNL     1      10.378  11.383  20.031  0.00  0.00    +0.000 A 
ATOM     24  C   UNL     1      10.444  12.667  19.482  0.00  0.00    +0.000 A 
ATOM     25 CL   UNL     1      11.502  13.808  20.233  0.00  0.00    +0.000 Cl
ATOM     26  C   UNL     1       9.669  12.983  18.363  0.00  0.00    +0.000 A 
ATOM     27 CL   UNL     1       9.694  14.548  17.630  0.00  0.00    +0.000 Cl
ATOM     28  C   UNL     1       8.834  12.013  17.798  0.00  0.00    +0.000 A 
ENDBRANCH  20  21
ENDBRANCH  18  20
ENDBRANCH  17  18
ENDBRANCH   3  17
TORSDOF 9
ENDMDL
MODEL 8
REMARK VINA RESULT:      -7.2      5.339      6.450
REMARK  Name = 
REMARK  9 active torsions:
REMARK  status: ('A' for Active; 'I' for Inactive)
REMARK    1  A    between atoms: C_2  and  C_3
REMARK    2  A    between atoms: C_3  and  N_4
REMARK    3  A    between atoms: C_5  and  C_7
REMARK    4  A    between atoms: C_9  and  C_10
REMARK    5  A    between atoms: C_10  and  N_11
REMARK    6  A    between atoms: N_11  and  C_12
REMARK    7  A    between atoms: C_12  and  C_13
REMARK    8  A    between atoms: C_21  and  O_22
REMARK    9  A    between atoms: C_23  and  O_24
REMARK                            x       y       z     vdW  Elec       q    Type
REMARK                         _______ _______ _______ _____ _____    ______ ____
ROOT
ATOM      1  C   UNL     1       5.155   5.445  17.420  0.00  0.00    +0.000 C 
ATOM      2  O   UNL     1       3.781   5.030  17.484  0.00  0.00    +0.000 OA
ATOM      3  C   UNL     1       3.701   3.839  18.289  0.00  0.00    +0.000 C 
ATOM      4  C   UNL     1       4.948   3.858  19.167  0.00  0.00    +0.000 C 
ATOM      5  C   UNL     1       5.985   4.410  18.196  0.00  0.00    +0.000 C 
ENDROOT
BRANCH   1   7
ATOM      6  N   UNL     1       6.251   4.472  15.433  0.00  0.00    +0.000 N 
ATOM      7  C   UNL     1       5.615   5.575  15.965  0.00  0.00    +0.000 C 
ATOM      8  O   UNL     1       5.385   6.582  15.292  0.00  0.00    +0.000 OA
ATOM      9  H   UNL     1       6.514   3.720  16.058  0.00  0.00    +0.000 HD
BRANCH   6  10
ATOM     10  C   UNL     1       6.816   4.523  14.104  0.00  0.00    +0.000 C 
BRANCH  10  12
ATOM     11  C   UNL     1       6.380   3.260  11.995  0.00  0.00    +0.000 C 
ATOM     12  C   UNL     1       5.954   3.735  13.173  0.00  0.00    +0.000 C 
ENDBRANCH  10  12
ENDBRANCH   6  10
ENDBRANCH   1   7
BRANCH   4  13
ATOM     13  O   UNL     1       5.273   2.590  19.717  0.00  0.00    +0.000 OA
ATOM     14  H   UNL     1       5.118   2.606  20.679  0.00  0.00    +0.000 HD
ENDBRANCH   4  13
BRANCH   5  15
ATOM     15  O   UNL     1       7.106   4.973  18.872  0.00  0.00    +0.000 OA
ATOM     16  H   UNL     1       7.144   4.623  19.778  0.00  0.00    +0.000 HD
ENDBRANCH   5  15
BRANCH   3  17
ATOM     17  C   UNL     1       2.400   3.821  19.108  0.00  0.00    +0.000 C 
BRANCH  17  18
ATOM     18  N   UNL     1       1.731   5.129  19.067  0.00  0.00    +0.000 NA
ATOM     19  H   UNL     1       0.733   5.021  19.242  0.00  0.00    +0.000 HD
BRANCH  18  20
ATOM     20  C   UNL     1       2.305   6.056  20.035  0.00  0.00    +0.000 C 
BRANCH  20  21
ATOM     21  C   UNL     1       1.907   7.480  19.719  0.00  0.00    +0.000 A 
ATOM     22  C   UNL     1       2.149   8.027  18.453  0.00  0.00    +0.000 A 
ATOM     23  C   UNL     1       1.777   9.344  18.165  0.00  0.00    +0.000 A 
ATOM     24  C   UNL     1       1.156  10.130  19.140  0.00  0.00    +0.000 A 
ATOM     25 CL   UNL     1       0.721  11.746  18.711  0.00  0.00    +0.000 Cl
ATOM     26  C   UNL     1       0.907   9.595  20.408  0.00  0.00    +0.000 A 
ATOM     27 CL   UNL     1       0.147  10.505  21.664  0.00  0.00    +0.000 Cl
ATOM     28  C   UNL     1       1.279   8.277  20.692  0.00  0.00    +0.000 A 
ENDBRANCH  20  21
ENDBRANCH  18  20
ENDBRANCH  17  18
ENDBRANCH   3  17
TORSDOF 9
ENDMDL
MODEL 9
REMARK VINA RESULT:      -7.2      5.693      7.768
REMARK  Name = 
REMARK  9 active torsions:
REMARK  status: ('A' for Active; 'I' for Inactive)
REMARK    1  A    between atoms: C_2  and  C_3
REMARK    2  A    between atoms: C_3  and  N_4
REMARK    3  A    between atoms: C_5  and  C_7
REMARK    4  A    between atoms: C_9  and  C_10
REMARK    5  A    between atoms: C_10  and  N_11
REMARK    6  A    between atoms: N_11  and  C_12
REMARK    7  A    between atoms: C_12  and  C_13
REMARK    8  A    between atoms: C_21  and  O_22
REMARK    9  A    between atoms: C_23  and  O_24
REMARK                            x       y       z     vdW  Elec       q    Type
REMARK                         _______ _______ _______ _____ _____    ______ ____
ROOT
ATOM      1  C   UNL     1       4.179   3.389  18.837  0.00  0.00    +0.000 C 
ATOM      2  O   UNL     1       3.521   4.557  19.353  0.00  0.00    +0.000 OA
ATOM      3  C   UNL     1       2.100   4.393  19.180  0.00  0.00    +0.000 C 
ATOM      4  C   UNL     1       1.875   2.889  19.070  0.00  0.00    +0.000 C 
ATOM      5  C   UNL     1       3.095   2.465  18.260  0.00  0.00    +0.000 C 
ENDROOT
BRANCH   1   7
ATOM      6  N   UNL     1       6.450   4.178  18.274  0.00  0.00    +0.000 N 
ATOM      7  C   UNL     1       5.223   3.776  17.785  0.00  0.00    +0.000 C 
ATOM      8  O   UNL     1       5.003   3.683  16.576  0.00  0.00    +0.000 OA
ATOM      9  H   UNL     1       6.541   4.344  19.269  0.00  0.00    +0.000 HD
BRANCH   6  10
ATOM     10  C   UNL     1       7.473   4.662  17.375  0.00  0.00    +0.000 C 
BRANCH  10  12
ATOM     11  C   UNL     1       7.690   7.064  18.021  0.00  0.00    +0.000 C 
ATOM     12  C   UNL     1       7.280   6.127  17.155  0.00  0.00    +0.000 C 
ENDBRANCH  10  12
ENDBRANCH   6  10
ENDBRANCH   1   7
BRANCH   4  13
ATOM     13  O   UNL     1       0.630   2.543  18.483  0.00  0.00    +0.000 OA
ATOM     14  H   UNL     1       0.344   1.675  18.819  0.00  0.00    +0.000 HD
ENDBRANCH   4  13
BRANCH   5  15
ATOM     15  O   UNL     1       3.388   1.079  18.417  0.00  0.00    +0.000 OA
ATOM     16  H   UNL     1       2.563   0.594  18.583  0.00  0.00    +0.000 HD
ENDBRANCH   5  15
BRANCH   3  17
ATOM     17  C   UNL     1       1.331   5.023  20.353  0.00  0.00    +0.000 C 
BRANCH  17  18
ATOM     18  N   UNL     1       2.033   6.206  20.871  0.00  0.00    +0.000 NA
ATOM     19  H   UNL     1       2.945   5.943  21.240  0.00  0.00    +0.000 HD
BRANCH  18  20
ATOM     20  C   UNL     1       2.191   7.229  19.843  0.00  0.00    +0.000 C 
BRANCH  20  21
ATOM     21  C   UNL     1       1.368   8.454  20.170  0.00  0.00    +0.000 A 
ATOM     22  C   UNL     1       1.145   9.445  19.205  0.00  0.00    +0.000 A 
ATOM     23  C   UNL     1       0.382  10.575  19.512  0.00  0.00    +0.000 A 
ATOM     24  C   UNL     1      -0.170  10.728  20.787  0.00  0.00    +0.000 A 
ATOM     25 CL   UNL     1      -1.105  12.149  21.092  0.00  0.00    +0.000 Cl
ATOM     26  C   UNL     1       0.044   9.746  21.759  0.00  0.00    +0.000 A 
ATOM     27 CL   UNL     1      -0.602   9.867  23.357  0.00  0.00    +0.000 Cl
ATOM     28  C   UNL     1       0.808   8.615  21.449  0.00  0.00    +0.000 A 
ENDBRANCH  20  21
ENDBRANCH  18  20
ENDBRANCH  17  18
ENDBRANCH   3  17
TORSDOF 9
ENDMDL
