MODEL 1
REMARK VINA RESULT:      -9.1      0.000      0.000
REMARK  Name = 
REMARK  9 active torsions:
REMARK  status: ('A' for Active; 'I' for Inactive)
REMARK    1  A    between atoms: C_1  and  C_2
REMARK    2  A    between atoms: C_4  and  C_5
REMARK    3  A    between atoms: C_6  and  C_7
REMARK    4  A    between atoms: N_10  and  C_11
REMARK    5  A    between atoms: C_12  and  C_13
REMARK    6  A    between atoms: C_16  and  C_17
REMARK    7  A    between atoms: N_21  and  C_22
REMARK    8  A    between atoms: N_21  and  C_23
REMARK    9  A    between atoms: C_23  and  C_24
REMARK                            x       y       z     vdW  Elec       q    Type
REMARK                         _______ _______ _______ _____ _____    ______ ____
ROOT
ATOM      1  C   UNL     1       0.680  10.807  19.644  0.00  0.00    +0.000 A 
ATOM      2  N   UNL     1       1.306  11.876  20.095  0.00  0.00    +0.000 NA
ATOM      3  N   UNL     1       0.356  12.843  20.291  0.00  0.00    +0.000 NA
ATOM      4  C   UNL     1      -0.805  12.331  19.935  0.00  0.00    +0.000 A 
ATOM      5  N   UNL     1      -2.026  12.923  19.977  0.00  0.00    +0.000 N 
ATOM      6  C   UNL     1      -3.209  12.228  19.519  0.00  0.00    +0.000 C 
ATOM      7  O   UNL     1      -0.673  11.030  19.492  0.00  0.00    +0.000 OA
ENDROOT
BRANCH   1  14
ATOM      8  C   UNL     1       1.005   8.667  21.712  0.00  0.00    +0.000 C 
ATOM      9  C   UNL     1       1.453   8.493  20.279  0.00  0.00    +0.000 A 
ATOM     10  C   UNL     1       2.099   7.278  19.936  0.00  0.00    +0.000 A 
ATOM     11  C   UNL     1       2.502   6.993  18.626  0.00  0.00    +0.000 A 
ATOM     12  C   UNL     1       2.213   7.951  17.649  0.00  0.00    +0.000 A 
ATOM     13  C   UNL     1       1.606   9.182  17.982  0.00  0.00    +0.000 A 
ATOM     14  C   UNL     1       1.239   9.489  19.294  0.00  0.00    +0.000 A 
BRANCH  11  15
ATOM     15  C   UNL     1       3.199   5.735  18.310  0.00  0.00    +0.000 A 
ATOM     16  C   UNL     1       4.491   5.506  17.738  0.00  0.00    +0.000 A 
ATOM     17  N   UNL     1       4.752   4.202  17.566  0.00  0.00    +0.000 NA
ATOM     18  N   UNL     1       3.649   3.585  18.010  0.00  0.00    +0.000 N 
ATOM     19  C   UNL     1       3.586   2.141  17.945  0.00  0.00    +0.000 C 
ATOM     20  C   UNL     1       2.677   4.449  18.470  0.00  0.00    +0.000 A 
ATOM     21  C   UNL     1       1.365   3.961  18.976  0.00  0.00    +0.000 C 
BRANCH  16  22
ATOM     22  C   UNL     1       5.477   6.468  17.344  0.00  0.00    +0.000 C 
ATOM     23  N   UNL     1       6.279   7.232  16.997  0.00  0.00    +0.000 NA
ENDBRANCH  16  22
ENDBRANCH  11  15
ENDBRANCH   1  14
BRANCH   5  24
ATOM     24  C   UNL     1      -2.209  13.963  20.998  0.00  0.00    +0.000 C 
BRANCH  24  25
ATOM     25  C   UNL     1      -3.333  13.678  21.970  0.00  0.00    +0.000 A 
ATOM     26  C   UNL     1      -3.003  12.635  22.988  0.00  0.00    +0.000 A 
ATOM     27  C   UNL     1      -3.764  12.577  24.105  0.00  0.00    +0.000 A 
ATOM     28  C   UNL     1      -5.169  12.686  23.859  0.00  0.00    +0.000 A 
ATOM     29  N   UNL     1      -6.212  12.061  24.356  0.00  0.00    +0.000 NA
ATOM     30  C   UNL     1      -7.288  12.606  23.701  0.00  0.00    +0.000 A 
ATOM     31  C   UNL     1      -6.899  13.629  22.861  0.00  0.00    +0.000 A 
ATOM     32  N   UNL     1      -5.528  13.579  22.852  0.00  0.00    +0.000 N 
ATOM     33  C   UNL     1      -4.601  14.151  21.970  0.00  0.00    +0.000 A 
ENDBRANCH  24  25
ENDBRANCH   5  24
TORSDOF 5
ENDMDL
MODEL 2
REMARK VINA RESULT:      -8.9      0.941      2.036
REMARK  Name = 
REMARK  9 active torsions:
REMARK  status: ('A' for Active; 'I' for Inactive)
REMARK    1  A    between atoms: C_1  and  C_2
REMARK    2  A    between atoms: C_4  and  C_5
REMARK    3  A    between atoms: C_6  and  C_7
REMARK    4  A    between atoms: N_10  and  C_11
REMARK    5  A    between atoms: C_12  and  C_13
REMARK    6  A    between atoms: C_16  and  C_17
REMARK    7  A    between atoms: N_21  and  C_22
REMARK    8  A    between atoms: N_21  and  C_23
REMARK    9  A    between atoms: C_23  and  C_24
REMARK                            x       y       z     vdW  Elec       q    Type
REMARK                         _______ _______ _______ _____ _____    ______ ____
ROOT
ATOM      1  C   UNL     1       0.678  10.880  20.285  0.00  0.00    +0.000 A 
ATOM      2  N   UNL     1       1.320  11.780  21.003  0.00  0.00    +0.000 NA
ATOM      3  N   UNL     1       0.421  12.768  21.304  0.00  0.00    +0.000 NA
ATOM      4  C   UNL     1      -0.726  12.439  20.745  0.00  0.00    +0.000 A 
ATOM      5  N   UNL     1      -1.902  13.115  20.794  0.00  0.00    +0.000 N 
ATOM      6  C   UNL     1      -3.073  12.630  20.096  0.00  0.00    +0.000 C 
ATOM      7  O   UNL     1      -0.633  11.245  20.057  0.00  0.00    +0.000 OA
ENDROOT
BRANCH   1  14
ATOM      8  C   UNL     1       1.079   8.472  22.018  0.00  0.00    +0.000 C 
ATOM      9  C   UNL     1       1.433   8.489  20.549  0.00  0.00    +0.000 A 
ATOM     10  C   UNL     1       2.028   7.323  20.003  0.00  0.00    +0.000 A 
ATOM     11  C   UNL     1       2.341   7.213  18.643  0.00  0.00    +0.000 A 
ATOM     12  C   UNL     1       2.016   8.301  17.826  0.00  0.00    +0.000 A 
ATOM     13  C   UNL     1       1.460   9.484  18.361  0.00  0.00    +0.000 A 
ATOM     14  C   UNL     1       1.182   9.613  19.724  0.00  0.00    +0.000 A 
BRANCH  11  15
ATOM     15  C   UNL     1       2.987   6.000  18.115  0.00  0.00    +0.000 A 
ATOM     16  C   UNL     1       2.672   4.618  18.312  0.00  0.00    +0.000 A 
ATOM     17  N   UNL     1       3.534   3.801  17.689  0.00  0.00    +0.000 NA
ATOM     18  N   UNL     1       4.404   4.632  17.100  0.00  0.00    +0.000 N 
ATOM     19  C   UNL     1       5.503   4.066  16.346  0.00  0.00    +0.000 C 
ATOM     20  C   UNL     1       4.133   5.966  17.317  0.00  0.00    +0.000 A 
ATOM     21  C   UNL     1       5.001   7.045  16.772  0.00  0.00    +0.000 C 
BRANCH  16  22
ATOM     22  C   UNL     1       1.598   4.045  19.069  0.00  0.00    +0.000 C 
ATOM     23  N   UNL     1       0.750   3.566  19.700  0.00  0.00    +0.000 NA
ENDBRANCH  16  22
ENDBRANCH  11  15
ENDBRANCH   1  14
BRANCH   5  24
ATOM     24  C   UNL     1      -2.125  13.944  21.986  0.00  0.00    +0.000 C 
BRANCH  24  25
ATOM     25  C   UNL     1      -3.430  13.660  22.697  0.00  0.00    +0.000 A 
ATOM     26  C   UNL     1      -3.376  12.482  23.616  0.00  0.00    +0.000 A 
ATOM     27  C   UNL     1      -4.336  12.371  24.562  0.00  0.00    +0.000 A 
ATOM     28  C   UNL     1      -5.658  12.640  24.083  0.00  0.00    +0.000 A 
ATOM     29  N   UNL     1      -6.818  12.064  24.302  0.00  0.00    +0.000 NA
ATOM     30  C   UNL     1      -7.708  12.778  23.540  0.00  0.00    +0.000 A 
ATOM     31  C   UNL     1      -7.095  13.847  22.921  0.00  0.00    +0.000 A 
ATOM     32  N   UNL     1      -5.754  13.670  23.151  0.00  0.00    +0.000 N 
ATOM     33  C   UNL     1      -4.639  14.247  22.530  0.00  0.00    +0.000 A 
ENDBRANCH  24  25
ENDBRANCH   5  24
TORSDOF 5
ENDMDL
MODEL 3
REMARK VINA RESULT:      -8.5      1.276      1.450
REMARK  Name = 
REMARK  9 active torsions:
REMARK  status: ('A' for Active; 'I' for Inactive)
REMARK    1  A    between atoms: C_1  and  C_2
REMARK    2  A    between atoms: C_4  and  C_5
REMARK    3  A    between atoms: C_6  and  C_7
REMARK    4  A    between atoms: N_10  and  C_11
REMARK    5  A    between atoms: C_12  and  C_13
REMARK    6  A    between atoms: C_16  and  C_17
REMARK    7  A    between atoms: N_21  and  C_22
REMARK    8  A    between atoms: N_21  and  C_23
REMARK    9  A    between atoms: C_23  and  C_24
REMARK                            x       y       z     vdW  Elec       q    Type
REMARK                         _______ _______ _______ _____ _____    ______ ____
ROOT
ATOM      1  C   UNL     1       1.233  10.212  19.031  0.00  0.00    +0.000 A 
ATOM      2  N   UNL     1       1.916  11.323  19.225  0.00  0.00    +0.000 NA
ATOM      3  N   UNL     1       1.014  12.353  19.220  0.00  0.00    +0.000 NA
ATOM      4  C   UNL     1      -0.177  11.833  19.006  0.00  0.00    +0.000 A 
ATOM      5  N   UNL     1      -1.370  12.477  18.938  0.00  0.00    +0.000 N 
ATOM      6  C   UNL     1      -2.595  11.757  18.666  0.00  0.00    +0.000 C 
ATOM      7  O   UNL     1      -0.113  10.461  18.858  0.00  0.00    +0.000 OA
ENDROOT
BRANCH   1  14
ATOM      8  C   UNL     1       0.901   8.351  21.352  0.00  0.00    +0.000 C 
ATOM      9  C   UNL     1       1.626   7.956  20.086  0.00  0.00    +0.000 A 
ATOM     10  C   UNL     1       2.212   6.665  20.039  0.00  0.00    +0.000 A 
ATOM     11  C   UNL     1       2.855   6.181  18.894  0.00  0.00    +0.000 A 
ATOM     12  C   UNL     1       2.875   7.017  17.773  0.00  0.00    +0.000 A 
ATOM     13  C   UNL     1       2.332   8.321  17.817  0.00  0.00    +0.000 A 
ATOM     14  C   UNL     1       1.724   8.824  18.970  0.00  0.00    +0.000 A 
BRANCH  11  15
ATOM     15  C   UNL     1       3.480   4.847  18.890  0.00  0.00    +0.000 A 
ATOM     16  C   UNL     1       4.847   4.461  19.065  0.00  0.00    +0.000 A 
ATOM     17  N   UNL     1       5.024   3.136  18.950  0.00  0.00    +0.000 NA
ATOM     18  N   UNL     1       3.796   2.662  18.697  0.00  0.00    +0.000 N 
ATOM     19  C   UNL     1       3.630   1.239  18.492  0.00  0.00    +0.000 C 
ATOM     20  C   UNL     1       2.824   3.639  18.648  0.00  0.00    +0.000 A 
ATOM     21  C   UNL     1       1.402   3.318  18.348  0.00  0.00    +0.000 C 
BRANCH  16  22
ATOM     22  C   UNL     1       5.985   5.291  19.326  0.00  0.00    +0.000 C 
ATOM     23  N   UNL     1       6.888   5.989  19.537  0.00  0.00    +0.000 NA
ENDBRANCH  16  22
ENDBRANCH  11  15
ENDBRANCH   1  14
BRANCH   5  24
ATOM     24  C   UNL     1      -1.480  13.723  19.708  0.00  0.00    +0.000 C 
BRANCH  24  25
ATOM     25  C   UNL     1      -2.239  13.577  21.008  0.00  0.00    +0.000 A 
ATOM     26  C   UNL     1      -1.559  12.704  22.013  0.00  0.00    +0.000 A 
ATOM     27  C   UNL     1      -1.943  12.807  23.306  0.00  0.00    +0.000 A 
ATOM     28  C   UNL     1      -3.361  12.862  23.490  0.00  0.00    +0.000 A 
ATOM     29  N   UNL     1      -4.168  12.309  24.366  0.00  0.00    +0.000 NA
ATOM     30  C   UNL     1      -5.420  12.735  24.003  0.00  0.00    +0.000 A 
ATOM     31  C   UNL     1      -5.362  13.623  22.949  0.00  0.00    +0.000 A 
ATOM     32  N   UNL     1      -4.057  13.588  22.526  0.00  0.00    +0.000 N 
ATOM     33  C   UNL     1      -3.474  14.030  21.331  0.00  0.00    +0.000 A 
ENDBRANCH  24  25
ENDBRANCH   5  24
TORSDOF 5
ENDMDL
MODEL 4
REMARK VINA RESULT:      -8.5      2.074      3.597
REMARK  Name = 
REMARK  9 active torsions:
REMARK  status: ('A' for Active; 'I' for Inactive)
REMARK    1  A    between atoms: C_1  and  C_2
REMARK    2  A    between atoms: C_4  and  C_5
REMARK    3  A    between atoms: C_6  and  C_7
REMARK    4  A    between atoms: N_10  and  C_11
REMARK    5  A    between atoms: C_12  and  C_13
REMARK    6  A    between atoms: C_16  and  C_17
REMARK    7  A    between atoms: N_21  and  C_22
REMARK    8  A    between atoms: N_21  and  C_23
REMARK    9  A    between atoms: C_23  and  C_24
REMARK                            x       y       z     vdW  Elec       q    Type
REMARK                         _______ _______ _______ _____ _____    ______ ____
ROOT
ATOM      1  C   UNL     1       0.629   9.285  20.992  0.00  0.00    +0.000 A 
ATOM      2  N   UNL     1      -0.322   9.022  21.866  0.00  0.00    +0.000 NA
ATOM      3  N   UNL     1      -0.780  10.225  22.334  0.00  0.00    +0.000 NA
ATOM      4  C   UNL     1      -0.079  11.169  21.741  0.00  0.00    +0.000 A 
ATOM      5  N   UNL     1      -0.200  12.514  21.885  0.00  0.00    +0.000 N 
ATOM      6  C   UNL     1       0.673  13.424  21.176  0.00  0.00    +0.000 C 
ATOM      7  O   UNL     1       0.858  10.640  20.875  0.00  0.00    +0.000 OA
ENDROOT
BRANCH   1  14
ATOM      8  C   UNL     1       1.390   9.924  18.168  0.00  0.00    +0.000 C 
ATOM      9  C   UNL     1       1.741   8.612  18.832  0.00  0.00    +0.000 A 
ATOM     10  C   UNL     1       2.413   7.639  18.048  0.00  0.00    +0.000 A 
ATOM     11  C   UNL     1       2.834   6.415  18.582  0.00  0.00    +0.000 A 
ATOM     12  C   UNL     1       2.590   6.197  19.942  0.00  0.00    +0.000 A 
ATOM     13  C   UNL     1       1.888   7.139  20.725  0.00  0.00    +0.000 A 
ATOM     14  C   UNL     1       1.430   8.345  20.187  0.00  0.00    +0.000 A 
BRANCH  11  15
ATOM     15  C   UNL     1       3.500   5.414  17.733  0.00  0.00    +0.000 A 
ATOM     16  C   UNL     1       3.149   4.057  17.446  0.00  0.00    +0.000 A 
ATOM     17  N   UNL     1       4.044   3.452  16.651  0.00  0.00    +0.000 NA
ATOM     18  N   UNL     1       4.970   4.394  16.424  0.00  0.00    +0.000 N 
ATOM     19  C   UNL     1       6.114   4.060  15.603  0.00  0.00    +0.000 C 
ATOM     20  C   UNL     1       4.703   5.595  17.047  0.00  0.00    +0.000 A 
ATOM     21  C   UNL     1       5.627   6.757  16.944  0.00  0.00    +0.000 C 
BRANCH  16  22
ATOM     22  C   UNL     1       2.012   3.312  17.900  0.00  0.00    +0.000 C 
ATOM     23  N   UNL     1       1.101   2.684  18.253  0.00  0.00    +0.000 NA
ENDBRANCH  16  22
ENDBRANCH  11  15
ENDBRANCH   1  14
BRANCH   5  24
ATOM     24  C   UNL     1      -1.533  13.010  22.253  0.00  0.00    +0.000 C 
BRANCH  24  25
ATOM     25  C   UNL     1      -2.586  12.790  21.190  0.00  0.00    +0.000 A 
ATOM     26  C   UNL     1      -3.986  12.800  21.712  0.00  0.00    +0.000 A 
ATOM     27  C   UNL     1      -4.992  12.991  20.827  0.00  0.00    +0.000 A 
ATOM     28  C   UNL     1      -4.856  12.236  19.619  0.00  0.00    +0.000 A 
ATOM     29  N   UNL     1      -5.715  11.567  18.885  0.00  0.00    +0.000 NA
ATOM     30  C   UNL     1      -4.967  11.049  17.860  0.00  0.00    +0.000 A 
ATOM     31  C   UNL     1      -3.657  11.478  17.927  0.00  0.00    +0.000 A 
ATOM     32  N   UNL     1      -3.555  12.117  19.136  0.00  0.00    +0.000 N 
ATOM     33  C   UNL     1      -2.425  12.484  19.881  0.00  0.00    +0.000 A 
ENDBRANCH  24  25
ENDBRANCH   5  24
TORSDOF 5
ENDMDL
MODEL 5
REMARK VINA RESULT:      -8.5      2.431      3.727
REMARK  Name = 
REMARK  9 active torsions:
REMARK  status: ('A' for Active; 'I' for Inactive)
REMARK    1  A    between atoms: C_1  and  C_2
REMARK    2  A    between atoms: C_4  and  C_5
REMARK    3  A    between atoms: C_6  and  C_7
REMARK    4  A    between atoms: N_10  and  C_11
REMARK    5  A    between atoms: C_12  and  C_13
REMARK    6  A    between atoms: C_16  and  C_17
REMARK    7  A    between atoms: N_21  and  C_22
REMARK    8  A    between atoms: N_21  and  C_23
REMARK    9  A    between atoms: C_23  and  C_24
REMARK                            x       y       z     vdW  Elec       q    Type
REMARK                         _______ _______ _______ _____ _____    ______ ____
ROOT
ATOM      1  C   UNL     1       0.659   9.500  21.215  0.00  0.00    +0.000 A 
ATOM      2  N   UNL     1       0.761   9.724  22.510  0.00  0.00    +0.000 NA
ATOM      3  N   UNL     1      -0.133  10.716  22.816  0.00  0.00    +0.000 NA
ATOM      4  C   UNL     1      -0.730  11.066  21.695  0.00  0.00    +0.000 A 
ATOM      5  N   UNL     1      -1.702  11.999  21.523  0.00  0.00    +0.000 N 
ATOM      6  C   UNL     1      -2.237  12.287  20.210  0.00  0.00    +0.000 C 
ATOM      7  O   UNL     1      -0.260  10.339  20.619  0.00  0.00    +0.000 OA
ENDROOT
BRANCH   1  14
ATOM      8  C   UNL     1       1.498  10.157  18.417  0.00  0.00    +0.000 C 
ATOM      9  C   UNL     1       1.730   8.801  19.042  0.00  0.00    +0.000 A 
ATOM     10  C   UNL     1       2.324   7.798  18.233  0.00  0.00    +0.000 A 
ATOM     11  C   UNL     1       2.635   6.527  18.732  0.00  0.00    +0.000 A 
ATOM     12  C   UNL     1       2.361   6.289  20.083  0.00  0.00    +0.000 A 
ATOM     13  C   UNL     1       1.734   7.264  20.890  0.00  0.00    +0.000 A 
ATOM     14  C   UNL     1       1.385   8.520  20.387  0.00  0.00    +0.000 A 
BRANCH  11  15
ATOM     15  C   UNL     1       3.222   5.499  17.856  0.00  0.00    +0.000 A 
ATOM     16  C   UNL     1       2.797   4.161  17.580  0.00  0.00    +0.000 A 
ATOM     17  N   UNL     1       3.633   3.518  16.751  0.00  0.00    +0.000 NA
ATOM     18  N   UNL     1       4.593   4.416  16.493  0.00  0.00    +0.000 N 
ATOM     19  C   UNL     1       5.689   4.032  15.629  0.00  0.00    +0.000 C 
ATOM     20  C   UNL     1       4.406   5.626  17.127  0.00  0.00    +0.000 A 
ATOM     21  C   UNL     1       5.379   6.744  16.992  0.00  0.00    +0.000 C 
BRANCH  16  22
ATOM     22  C   UNL     1       1.644   3.468  18.074  0.00  0.00    +0.000 C 
ATOM     23  N   UNL     1       0.697   2.935  18.483  0.00  0.00    +0.000 NA
ENDBRANCH  16  22
ENDBRANCH  11  15
ENDBRANCH   1  14
BRANCH   5  24
ATOM     24  C   UNL     1      -2.578  12.243  22.676  0.00  0.00    +0.000 C 
BRANCH  24  25
ATOM     25  C   UNL     1      -2.222  13.482  23.467  0.00  0.00    +0.000 A 
ATOM     26  C   UNL     1      -3.331  13.990  24.331  0.00  0.00    +0.000 A 
ATOM     27  C   UNL     1      -3.014  14.835  25.339  0.00  0.00    +0.000 A 
ATOM     28  C   UNL     1      -2.087  15.860  24.968  0.00  0.00    +0.000 A 
ATOM     29  N   UNL     1      -2.018  17.142  25.247  0.00  0.00    +0.000 NA
ATOM     30  C   UNL     1      -0.903  17.582  24.581  0.00  0.00    +0.000 A 
ATOM     31  C   UNL     1      -0.242  16.540  23.964  0.00  0.00    +0.000 A 
ATOM     32  N   UNL     1      -1.082  15.463  24.089  0.00  0.00    +0.000 N 
ATOM     33  C   UNL     1      -1.098  14.236  23.412  0.00  0.00    +0.000 A 
ENDBRANCH  24  25
ENDBRANCH   5  24
TORSDOF 5
ENDMDL
MODEL 6
REMARK VINA RESULT:      -8.5      0.820      1.412
REMARK  Name = 
REMARK  9 active torsions:
REMARK  status: ('A' for Active; 'I' for Inactive)
REMARK    1  A    between atoms: C_1  and  C_2
REMARK    2  A    between atoms: C_4  and  C_5
REMARK    3  A    between atoms: C_6  and  C_7
REMARK    4  A    between atoms: N_10  and  C_11
REMARK    5  A    between atoms: C_12  and  C_13
REMARK    6  A    between atoms: C_16  and  C_17
REMARK    7  A    between atoms: N_21  and  C_22
REMARK    8  A    between atoms: N_21  and  C_23
REMARK    9  A    between atoms: C_23  and  C_24
REMARK                            x       y       z     vdW  Elec       q    Type
REMARK                         _______ _______ _______ _____ _____    ______ ____
ROOT
ATOM      1  C   UNL     1       0.573  10.739  20.385  0.00  0.00    +0.000 A 
ATOM      2  N   UNL     1       1.105  11.806  20.948  0.00  0.00    +0.000 NA
ATOM      3  N   UNL     1       0.119  12.754  21.021  0.00  0.00    +0.000 NA
ATOM      4  C   UNL     1      -0.966  12.234  20.487  0.00  0.00    +0.000 A 
ATOM      5  N   UNL     1      -2.191  12.807  20.360  0.00  0.00    +0.000 N 
ATOM      6  C   UNL     1      -3.281  12.105  19.718  0.00  0.00    +0.000 C 
ATOM      7  O   UNL     1      -0.747  10.946  20.040  0.00  0.00    +0.000 OA
ENDROOT
BRANCH   1  14
ATOM      8  C   UNL     1       1.755  10.159  17.697  0.00  0.00    +0.000 C 
ATOM      9  C   UNL     1       1.706   9.134  18.806  0.00  0.00    +0.000 A 
ATOM     10  C   UNL     1       2.198   7.834  18.521  0.00  0.00    +0.000 A 
ATOM     11  C   UNL     1       2.252   6.829  19.494  0.00  0.00    +0.000 A 
ATOM     12  C   UNL     1       1.822   7.166  20.782  0.00  0.00    +0.000 A 
ATOM     13  C   UNL     1       1.293   8.443  21.071  0.00  0.00    +0.000 A 
ATOM     14  C   UNL     1       1.200   9.438  20.094  0.00  0.00    +0.000 A 
BRANCH  11  15
ATOM     15  C   UNL     1       2.739   5.481  19.157  0.00  0.00    +0.000 A 
ATOM     16  C   UNL     1       3.908   5.067  18.442  0.00  0.00    +0.000 A 
ATOM     17  N   UNL     1       3.978   3.735  18.302  0.00  0.00    +0.000 NA
ATOM     18  N   UNL     1       2.872   3.283  18.908  0.00  0.00    +0.000 N 
ATOM     19  C   UNL     1       2.620   1.857  18.921  0.00  0.00    +0.000 C 
ATOM     20  C   UNL     1       2.084   4.281  19.442  0.00  0.00    +0.000 A 
ATOM     21  C   UNL     1       0.797   3.985  20.128  0.00  0.00    +0.000 C 
BRANCH  16  22
ATOM     22  C   UNL     1       4.948   5.878  17.883  0.00  0.00    +0.000 C 
ATOM     23  N   UNL     1       5.770   6.553  17.418  0.00  0.00    +0.000 NA
ENDBRANCH  16  22
ENDBRANCH  11  15
ENDBRANCH   1  14
BRANCH   5  24
ATOM     24  C   UNL     1      -2.541  13.819  21.365  0.00  0.00    +0.000 C 
BRANCH  24  25
ATOM     25  C   UNL     1      -3.803  13.505  22.139  0.00  0.00    +0.000 A 
ATOM     26  C   UNL     1      -3.590  12.581  23.295  0.00  0.00    +0.000 A 
ATOM     27  C   UNL     1      -4.542  12.537  24.256  0.00  0.00    +0.000 A 
ATOM     28  C   UNL     1      -5.879  12.492  23.748  0.00  0.00    +0.000 A 
ATOM     29  N   UNL     1      -6.945  11.811  24.104  0.00  0.00    +0.000 NA
ATOM     30  C   UNL     1      -7.916  12.197  23.217  0.00  0.00    +0.000 A 
ATOM     31  C   UNL     1      -7.458  13.184  22.368  0.00  0.00    +0.000 A 
ATOM     32  N   UNL     1      -6.111  13.266  22.613  0.00  0.00    +0.000 N 
ATOM     33  C   UNL     1      -5.082  13.853  21.864  0.00  0.00    +0.000 A 
ENDBRANCH  24  25
ENDBRANCH   5  24
TORSDOF 5
ENDMDL
MODEL 7
REMARK VINA RESULT:      -8.4      0.701      1.276
REMARK  Name = 
REMARK  9 active torsions:
REMARK  status: ('A' for Active; 'I' for Inactive)
REMARK    1  A    between atoms: C_1  and  C_2
REMARK    2  A    between atoms: C_4  and  C_5
REMARK    3  A    between atoms: C_6  and  C_7
REMARK    4  A    between atoms: N_10  and  C_11
REMARK    5  A    between atoms: C_12  and  C_13
REMARK    6  A    between atoms: C_16  and  C_17
REMARK    7  A    between atoms: N_21  and  C_22
REMARK    8  A    between atoms: N_21  and  C_23
REMARK    9  A    between atoms: C_23  and  C_24
REMARK                            x       y       z     vdW  Elec       q    Type
REMARK                         _______ _______ _______ _____ _____    ______ ____
ROOT
ATOM      1  C   UNL     1       0.588  10.696  19.659  0.00  0.00    +0.000 A 
ATOM      2  N   UNL     1       1.155  11.735  20.240  0.00  0.00    +0.000 NA
ATOM      3  N   UNL     1       0.183  12.689  20.389  0.00  0.00    +0.000 NA
ATOM      4  C   UNL     1      -0.929  12.200  19.880  0.00  0.00    +0.000 A 
ATOM      5  N   UNL     1      -2.151  12.790  19.825  0.00  0.00    +0.000 N 
ATOM      6  C   UNL     1      -3.274  12.124  19.201  0.00  0.00    +0.000 C 
ATOM      7  O   UNL     1      -0.742  10.928  19.375  0.00  0.00    +0.000 OA
ENDROOT
BRANCH   1  14
ATOM      8  C   UNL     1       0.985   8.542  21.700  0.00  0.00    +0.000 C 
ATOM      9  C   UNL     1       1.437   8.400  20.264  0.00  0.00    +0.000 A 
ATOM     10  C   UNL     1       2.122   7.211  19.906  0.00  0.00    +0.000 A 
ATOM     11  C   UNL     1       2.531   6.955  18.592  0.00  0.00    +0.000 A 
ATOM     12  C   UNL     1       2.210   7.916  17.627  0.00  0.00    +0.000 A 
ATOM     13  C   UNL     1       1.563   9.123  17.976  0.00  0.00    +0.000 A 
ATOM     14  C   UNL     1       1.188   9.401  19.293  0.00  0.00    +0.000 A 
BRANCH  11  15
ATOM     15  C   UNL     1       3.268   5.725  18.260  0.00  0.00    +0.000 A 
ATOM     16  C   UNL     1       4.571   5.546  17.695  0.00  0.00    +0.000 A 
ATOM     17  N   UNL     1       4.873   4.253  17.502  0.00  0.00    +0.000 NA
ATOM     18  N   UNL     1       3.785   3.596  17.925  0.00  0.00    +0.000 N 
ATOM     19  C   UNL     1       3.767   2.151  17.834  0.00  0.00    +0.000 C 
ATOM     20  C   UNL     1       2.784   4.422  18.392  0.00  0.00    +0.000 A 
ATOM     21  C   UNL     1       1.484   3.886  18.878  0.00  0.00    +0.000 C 
BRANCH  16  22
ATOM     22  C   UNL     1       5.531   6.543  17.326  0.00  0.00    +0.000 C 
ATOM     23  N   UNL     1       6.330   7.337  17.043  0.00  0.00    +0.000 NA
ENDBRANCH  16  22
ENDBRANCH  11  15
ENDBRANCH   1  14
BRANCH   5  24
ATOM     24  C   UNL     1      -2.449  13.765  20.881  0.00  0.00    +0.000 C 
BRANCH  24  25
ATOM     25  C   UNL     1      -3.865  13.685  21.410  0.00  0.00    +0.000 A 
ATOM     26  C   UNL     1      -4.791  14.699  20.818  0.00  0.00    +0.000 A 
ATOM     27  C   UNL     1      -6.122  14.481  20.925  0.00  0.00    +0.000 A 
ATOM     28  C   UNL     1      -6.537  14.041  22.222  0.00  0.00    +0.000 A 
ATOM     29  N   UNL     1      -7.567  14.345  22.978  0.00  0.00    +0.000 NA
ATOM     30  C   UNL     1      -7.395  13.599  24.116  0.00  0.00    +0.000 A 
ATOM     31  C   UNL     1      -6.295  12.772  24.012  0.00  0.00    +0.000 A 
ATOM     32  N   UNL     1      -5.663  13.164  22.860  0.00  0.00    +0.000 N 
ATOM     33  C   UNL     1      -4.363  12.911  22.402  0.00  0.00    +0.000 A 
ENDBRANCH  24  25
ENDBRANCH   5  24
TORSDOF 5
ENDMDL
MODEL 8
REMARK VINA RESULT:      -8.4      2.225      3.322
REMARK  Name = 
REMARK  9 active torsions:
REMARK  status: ('A' for Active; 'I' for Inactive)
REMARK    1  A    between atoms: C_1  and  C_2
REMARK    2  A    between atoms: C_4  and  C_5
REMARK    3  A    between atoms: C_6  and  C_7
REMARK    4  A    between atoms: N_10  and  C_11
REMARK    5  A    between atoms: C_12  and  C_13
REMARK    6  A    between atoms: C_16  and  C_17
REMARK    7  A    between atoms: N_21  and  C_22
REMARK    8  A    between atoms: N_21  and  C_23
REMARK    9  A    between atoms: C_23  and  C_24
REMARK                            x       y       z     vdW  Elec       q    Type
REMARK                         _______ _______ _______ _____ _____    ______ ____
ROOT
ATOM      1  C   UNL     1       0.735   9.317  21.417  0.00  0.00    +0.000 A 
ATOM      2  N   UNL     1       0.831   9.466  22.723  0.00  0.00    +0.000 NA
ATOM      3  N   UNL     1      -0.046  10.456  23.079  0.00  0.00    +0.000 NA
ATOM      4  C   UNL     1      -0.627  10.881  21.976  0.00  0.00    +0.000 A 
ATOM      5  N   UNL     1      -1.580  11.841  21.850  0.00  0.00    +0.000 N 
ATOM      6  C   UNL     1      -2.099  12.213  20.552  0.00  0.00    +0.000 C 
ATOM      7  O   UNL     1      -0.163  10.206  20.863  0.00  0.00    +0.000 OA
ENDROOT
BRANCH   1  14
ATOM      8  C   UNL     1       1.486  10.068  18.618  0.00  0.00    +0.000 C 
ATOM      9  C   UNL     1       1.752   8.697  19.195  0.00  0.00    +0.000 A 
ATOM     10  C   UNL     1       2.334   7.726  18.340  0.00  0.00    +0.000 A 
ATOM     11  C   UNL     1       2.673   6.445  18.791  0.00  0.00    +0.000 A 
ATOM     12  C   UNL     1       2.440   6.163  20.141  0.00  0.00    +0.000 A 
ATOM     13  C   UNL     1       1.825   7.105  20.995  0.00  0.00    +0.000 A 
ATOM     14  C   UNL     1       1.448   8.372  20.540  0.00  0.00    +0.000 A 
BRANCH  11  15
ATOM     15  C   UNL     1       3.247   5.450  17.869  0.00  0.00    +0.000 A 
ATOM     16  C   UNL     1       2.837   4.111  17.574  0.00  0.00    +0.000 A 
ATOM     17  N   UNL     1       3.654   3.506  16.699  0.00  0.00    +0.000 NA
ATOM     18  N   UNL     1       4.587   4.429  16.429  0.00  0.00    +0.000 N 
ATOM     19  C   UNL     1       5.657   4.088  15.516  0.00  0.00    +0.000 C 
ATOM     20  C   UNL     1       4.400   5.619  17.100  0.00  0.00    +0.000 A 
ATOM     21  C   UNL     1       5.346   6.759  16.959  0.00  0.00    +0.000 C 
BRANCH  16  22
ATOM     22  C   UNL     1       1.717   3.384  18.092  0.00  0.00    +0.000 C 
ATOM     23  N   UNL     1       0.794   2.799  18.485  0.00  0.00    +0.000 NA
ENDBRANCH  16  22
ENDBRANCH  11  15
ENDBRANCH   1  14
BRANCH   5  24
ATOM     24  C   UNL     1      -2.460  12.037  23.009  0.00  0.00    +0.000 C 
BRANCH  24  25
ATOM     25  C   UNL     1      -2.715  13.489  23.349  0.00  0.00    +0.000 A 
ATOM     26  C   UNL     1      -1.514  14.207  23.875  0.00  0.00    +0.000 A 
ATOM     27  C   UNL     1      -1.523  15.560  23.849  0.00  0.00    +0.000 A 
ATOM     28  C   UNL     1      -2.754  16.143  24.288  0.00  0.00    +0.000 A 
ATOM     29  N   UNL     1      -3.028  17.180  25.046  0.00  0.00    +0.000 NA
ATOM     30  C   UNL     1      -4.398  17.213  25.107  0.00  0.00    +0.000 A 
ATOM     31  C   UNL     1      -4.960  16.238  24.309  0.00  0.00    +0.000 A 
ATOM     32  N   UNL     1      -3.905  15.460  23.903  0.00  0.00    +0.000 N 
ATOM     33  C   UNL     1      -3.882  14.175  23.344  0.00  0.00    +0.000 A 
ENDBRANCH  24  25
ENDBRANCH   5  24
TORSDOF 5
ENDMDL
MODEL 9
REMARK VINA RESULT:      -8.2      2.387      3.752
REMARK  Name = 
REMARK  9 active torsions:
REMARK  status: ('A' for Active; 'I' for Inactive)
REMARK    1  A    between atoms: C_1  and  C_2
REMARK    2  A    between atoms: C_4  and  C_5
REMARK    3  A    between atoms: C_6  and  C_7
REMARK    4  A    between atoms: N_10  and  C_11
REMARK    5  A    between atoms: C_12  and  C_13
REMARK    6  A    between atoms: C_16  and  C_17
REMARK    7  A    between atoms: N_21  and  C_22
REMARK    8  A    between atoms: N_21  and  C_23
REMARK    9  A    between atoms: C_23  and  C_24
REMARK                            x       y       z     vdW  Elec       q    Type
REMARK                         _______ _______ _______ _____ _____    ______ ____
ROOT
ATOM      1  C   UNL     1       0.731   9.641  20.907  0.00  0.00    +0.000 A 
ATOM      2  N   UNL     1       0.894  10.011  22.162  0.00  0.00    +0.000 NA
ATOM      3  N   UNL     1      -0.027  10.994  22.412  0.00  0.00    +0.000 NA
ATOM      4  C   UNL     1      -0.700  11.194  21.299  0.00  0.00    +0.000 A 
ATOM      5  N   UNL     1      -1.723  12.062  21.086  0.00  0.00    +0.000 N 
ATOM      6  C   UNL     1      -2.343  12.181  19.784  0.00  0.00    +0.000 C 
ATOM      7  O   UNL     1      -0.258  10.371  20.281  0.00  0.00    +0.000 OA
ENDROOT
BRANCH   1  14
ATOM      8  C   UNL     1       1.674  10.148  18.112  0.00  0.00    +0.000 C 
ATOM      9  C   UNL     1       1.849   8.816  18.804  0.00  0.00    +0.000 A 
ATOM     10  C   UNL     1       2.440   7.762  18.060  0.00  0.00    +0.000 A 
ATOM     11  C   UNL     1       2.700   6.508  18.625  0.00  0.00    +0.000 A 
ATOM     12  C   UNL     1       2.377   6.338  19.975  0.00  0.00    +0.000 A 
ATOM     13  C   UNL     1       1.753   7.365  20.717  0.00  0.00    +0.000 A 
ATOM     14  C   UNL     1       1.455   8.606  20.148  0.00  0.00    +0.000 A 
BRANCH  11  15
ATOM     15  C   UNL     1       3.284   5.425  17.815  0.00  0.00    +0.000 A 
ATOM     16  C   UNL     1       2.829   4.089  17.583  0.00  0.00    +0.000 A 
ATOM     17  N   UNL     1       3.673   3.387  16.812  0.00  0.00    +0.000 NA
ATOM     18  N   UNL     1       4.667   4.245  16.548  0.00  0.00    +0.000 N 
ATOM     19  C   UNL     1       5.780   3.792  15.740  0.00  0.00    +0.000 C 
ATOM     20  C   UNL     1       4.495   5.487  17.122  0.00  0.00    +0.000 A 
ATOM     21  C   UNL     1       5.505   6.569  16.973  0.00  0.00    +0.000 C 
BRANCH  16  22
ATOM     22  C   UNL     1       1.640   3.452  18.066  0.00  0.00    +0.000 C 
ATOM     23  N   UNL     1       0.694   2.913  18.467  0.00  0.00    +0.000 NA
ENDBRANCH  16  22
ENDBRANCH  11  15
ENDBRANCH   1  14
BRANCH   5  24
ATOM     24  C   UNL     1      -2.544  12.397  22.256  0.00  0.00    +0.000 C 
BRANCH  24  25
ATOM     25  C   UNL     1      -2.077  13.626  23.004  0.00  0.00    +0.000 A 
ATOM     26  C   UNL     1      -0.973  14.367  22.321  0.00  0.00    +0.000 A 
ATOM     27  C   UNL     1      -0.746  15.648  22.690  0.00  0.00    +0.000 A 
ATOM     28  C   UNL     1      -0.761  15.857  24.106  0.00  0.00    +0.000 A 
ATOM     29  N   UNL     1      -0.008  16.574  24.909  0.00  0.00    +0.000 NA
ATOM     30  C   UNL     1      -0.520  16.347  26.161  0.00  0.00    +0.000 A 
ATOM     31  C   UNL     1      -1.647  15.552  26.105  0.00  0.00    +0.000 A 
ATOM     32  N   UNL     1      -1.713  15.119  24.806  0.00  0.00    +0.000 N 
ATOM     33  C   UNL     1      -2.441  14.068  24.231  0.00  0.00    +0.000 A 
ENDBRANCH  24  25
ENDBRANCH   5  24
TORSDOF 5
ENDMDL
