MODEL 1
REMARK VINA RESULT:      -8.8      0.000      0.000
REMARK  Name = 
REMARK  9 active torsions:
REMARK  status: ('A' for Active; 'I' for Inactive)
REMARK    1  A    between atoms: C_1  and  C_2
REMARK    2  A    between atoms: C_2  and  O_3
REMARK    3  A    between atoms: O_3  and  C_4
REMARK    4  A    between atoms: C_4  and  C_6
REMARK    5  A    between atoms: C_6  and  C_7
REMARK    6  A    between atoms: N_12  and  C_13
REMARK    7  A    between atoms: C_21  and  C_22
REMARK    8  A    between atoms: C_24  and  C_25
REMARK    9  A    between atoms: C_27  and  C_28
REMARK                            x       y       z     vdW  Elec       q    Type
REMARK                         _______ _______ _______ _____ _____    ______ ____
ROOT
ATOM      1  C   UNL     1       5.262   5.258  16.373  0.00  0.00    +0.000 C 
ATOM      2  C   UNL     1       4.557   5.107  17.539  0.00  0.00    +0.000 C 
ATOM      3  C   UNL     1       4.669   3.848  18.295  0.00  0.00    +0.000 C 
ATOM      4  C   UNL     1       3.955   3.637  19.404  0.00  0.00    +0.000 C 
ATOM      5  N   UNL     1       3.101   4.540  19.990  0.00  0.00    +0.000 N 
ATOM      6  C   UNL     1       2.886   5.820  19.363  0.00  0.00    +0.000 A 
ATOM      7  C   UNL     1       3.615   6.149  18.168  0.00  0.00    +0.000 A 
ATOM      8  C   UNL     1       3.425   7.435  17.655  0.00  0.00    +0.000 A 
ATOM      9  C   UNL     1       2.541   8.341  18.229  0.00  0.00    +0.000 A 
ATOM     10  F   UNL     1       2.467   9.551  17.651  0.00  0.00    +0.000 F 
ATOM     11  C   UNL     1       1.767   8.038  19.341  0.00  0.00    +0.000 A 
ATOM     12  C   UNL     1       1.970   6.770  19.904  0.00  0.00    +0.000 A 
ATOM     13  F   UNL     1       1.247   6.446  20.990  0.00  0.00    +0.000 F 
ENDROOT
BRANCH  11  14
ATOM     14  C   UNL     1       0.796   9.028  19.867  0.00  0.00    +0.000 A 
ATOM     15  C   UNL     1       0.121   9.893  18.991  0.00  0.00    +0.000 A 
ATOM     16  C   UNL     1      -0.698  10.900  19.484  0.00  0.00    +0.000 A 
ATOM     17  C   UNL     1      -1.317  11.892  18.545  0.00  0.00    +0.000 C 
ATOM     18  N   UNL     1      -0.932  11.057  20.804  0.00  0.00    +0.000 NA
ATOM     19  C   UNL     1      -0.323  10.200  21.657  0.00  0.00    +0.000 A 
ATOM     20  C   UNL     1      -0.598  10.381  23.120  0.00  0.00    +0.000 C 
ATOM     21  C   UNL     1       0.544   9.194  21.233  0.00  0.00    +0.000 A 
ENDBRANCH  11  14
BRANCH   5  22
ATOM     22  C   UNL     1       2.365   4.119  21.201  0.00  0.00    +0.000 C 
ATOM     23  C   UNL     1       1.183   3.175  21.204  0.00  0.00    +0.000 C 
ATOM     24  C   UNL     1       2.501   2.712  21.735  0.00  0.00    +0.000 C 
ENDBRANCH   5  22
BRANCH   1  25
ATOM     25  C   UNL     1       6.214   4.223  15.840  0.00  0.00    +0.000 C 
ATOM     26  O   UNL     1       7.325   3.962  16.268  0.00  0.00    +0.000 OA
BRANCH  25  27
ATOM     27  O   UNL     1       5.664   3.669  14.726  0.00  0.00    +0.000 OA
BRANCH  27  29
ATOM     28  C   UNL     1       5.466   3.339  12.394  0.00  0.00    +0.000 C 
ATOM     29  C   UNL     1       6.370   3.863  13.496  0.00  0.00    +0.000 C 
ENDBRANCH  27  29
ENDBRANCH  25  27
ENDBRANCH   1  25
BRANCH   1  30
ATOM     30  C   UNL     1       5.239   6.417  15.539  0.00  0.00    +0.000 C 
ATOM     31  N   UNL     1       5.182   7.363  14.870  0.00  0.00    +0.000 NA
ENDBRANCH   1  30
TORSDOF 6
ENDMDL
MODEL 2
REMARK VINA RESULT:      -8.8      0.183      1.505
REMARK  Name = 
REMARK  9 active torsions:
REMARK  status: ('A' for Active; 'I' for Inactive)
REMARK    1  A    between atoms: C_1  and  C_2
REMARK    2  A    between atoms: C_2  and  O_3
REMARK    3  A    between atoms: O_3  and  C_4
REMARK    4  A    between atoms: C_4  and  C_6
REMARK    5  A    between atoms: C_6  and  C_7
REMARK    6  A    between atoms: N_12  and  C_13
REMARK    7  A    between atoms: C_21  and  C_22
REMARK    8  A    between atoms: C_24  and  C_25
REMARK    9  A    between atoms: C_27  and  C_28
REMARK                            x       y       z     vdW  Elec       q    Type
REMARK                         _______ _______ _______ _____ _____    ______ ____
ROOT
ATOM      1  C   UNL     1       5.210   5.254  16.254  0.00  0.00    +0.000 C 
ATOM      2  C   UNL     1       4.535   5.108  17.438  0.00  0.00    +0.000 C 
ATOM      3  C   UNL     1       4.652   3.845  18.189  0.00  0.00    +0.000 C 
ATOM      4  C   UNL     1       3.966   3.640  19.315  0.00  0.00    +0.000 C 
ATOM      5  N   UNL     1       3.139   4.552  19.926  0.00  0.00    +0.000 N 
ATOM      6  C   UNL     1       2.923   5.836  19.309  0.00  0.00    +0.000 A 
ATOM      7  C   UNL     1       3.623   6.159  18.095  0.00  0.00    +0.000 A 
ATOM      8  C   UNL     1       3.435   7.449  17.592  0.00  0.00    +0.000 A 
ATOM      9  C   UNL     1       2.577   8.365  18.191  0.00  0.00    +0.000 A 
ATOM     10  F   UNL     1       2.503   9.576  17.618  0.00  0.00    +0.000 F 
ATOM     11  C   UNL     1       1.831   8.067  19.323  0.00  0.00    +0.000 A 
ATOM     12  C   UNL     1       2.033   6.795  19.877  0.00  0.00    +0.000 A 
ATOM     13  F   UNL     1       1.336   6.477  20.981  0.00  0.00    +0.000 F 
ENDROOT
BRANCH  11  14
ATOM     14  C   UNL     1       0.886   9.067  19.878  0.00  0.00    +0.000 A 
ATOM     15  C   UNL     1       0.721   9.194  21.266  0.00  0.00    +0.000 A 
ATOM     16  C   UNL     1      -0.246  10.042  21.789  0.00  0.00    +0.000 A 
ATOM     17  C   UNL     1      -0.494  10.078  23.267  0.00  0.00    +0.000 C 
ATOM     18  N   UNL     1      -1.021  10.820  21.004  0.00  0.00    +0.000 NA
ATOM     19  C   UNL     1      -0.842  10.740  19.665  0.00  0.00    +0.000 A 
ATOM     20  C   UNL     1      -1.704  11.616  18.807  0.00  0.00    +0.000 C 
ATOM     21  C   UNL     1       0.082   9.881  19.072  0.00  0.00    +0.000 A 
ENDBRANCH  11  14
BRANCH   5  22
ATOM     22  C   UNL     1       2.431   4.136  21.156  0.00  0.00    +0.000 C 
ATOM     23  C   UNL     1       1.222   3.227  21.187  0.00  0.00    +0.000 C 
ATOM     24  C   UNL     1       2.543   2.719  21.667  0.00  0.00    +0.000 C 
ENDBRANCH   5  22
BRANCH   1  25
ATOM     25  C   UNL     1       6.134   4.209  15.693  0.00  0.00    +0.000 C 
ATOM     26  O   UNL     1       7.254   3.934  16.090  0.00  0.00    +0.000 OA
BRANCH  25  27
ATOM     27  O   UNL     1       5.547   3.664  14.594  0.00  0.00    +0.000 OA
BRANCH  27  29
ATOM     28  C   UNL     1       5.315   3.448  12.252  0.00  0.00    +0.000 C 
ATOM     29  C   UNL     1       6.301   3.699  13.378  0.00  0.00    +0.000 C 
ENDBRANCH  27  29
ENDBRANCH  25  27
ENDBRANCH   1  25
BRANCH   1  30
ATOM     30  C   UNL     1       5.178   6.415  15.425  0.00  0.00    +0.000 C 
ATOM     31  N   UNL     1       5.120   7.370  14.768  0.00  0.00    +0.000 NA
ENDBRANCH   1  30
TORSDOF 6
ENDMDL
MODEL 3
REMARK VINA RESULT:      -8.7      0.852      1.576
REMARK  Name = 
REMARK  9 active torsions:
REMARK  status: ('A' for Active; 'I' for Inactive)
REMARK    1  A    between atoms: C_1  and  C_2
REMARK    2  A    between atoms: C_2  and  O_3
REMARK    3  A    between atoms: O_3  and  C_4
REMARK    4  A    between atoms: C_4  and  C_6
REMARK    5  A    between atoms: C_6  and  C_7
REMARK    6  A    between atoms: N_12  and  C_13
REMARK    7  A    between atoms: C_21  and  C_22
REMARK    8  A    between atoms: C_24  and  C_25
REMARK    9  A    between atoms: C_27  and  C_28
REMARK                            x       y       z     vdW  Elec       q    Type
REMARK                         _______ _______ _______ _____ _____    ______ ____
ROOT
ATOM      1  C   UNL     1       5.201   5.276  16.496  0.00  0.00    +0.000 C 
ATOM      2  C   UNL     1       4.458   5.129  17.638  0.00  0.00    +0.000 C 
ATOM      3  C   UNL     1       4.530   3.865  18.392  0.00  0.00    +0.000 C 
ATOM      4  C   UNL     1       3.778   3.659  19.477  0.00  0.00    +0.000 C 
ATOM      5  N   UNL     1       2.919   4.571  20.040  0.00  0.00    +0.000 N 
ATOM      6  C   UNL     1       2.741   5.856  19.413  0.00  0.00    +0.000 A 
ATOM      7  C   UNL     1       3.511   6.181  18.242  0.00  0.00    +0.000 A 
ATOM      8  C   UNL     1       3.355   7.472  17.731  0.00  0.00    +0.000 A 
ATOM      9  C   UNL     1       2.465   8.388  18.282  0.00  0.00    +0.000 A 
ATOM     10  F   UNL     1       2.426   9.601  17.707  0.00  0.00    +0.000 F 
ATOM     11  C   UNL     1       1.654   8.090  19.368  0.00  0.00    +0.000 A 
ATOM     12  C   UNL     1       1.822   6.817  19.930  0.00  0.00    +0.000 A 
ATOM     13  F   UNL     1       1.060   6.498  20.991  0.00  0.00    +0.000 F 
ENDROOT
BRANCH  11  14
ATOM     14  C   UNL     1       0.680   9.091  19.868  0.00  0.00    +0.000 A 
ATOM     15  C   UNL     1      -0.020   9.911  18.968  0.00  0.00    +0.000 A 
ATOM     16  C   UNL     1      -0.842  10.929  19.431  0.00  0.00    +0.000 A 
ATOM     17  C   UNL     1      -1.488  11.873  18.463  0.00  0.00    +0.000 C 
ATOM     18  N   UNL     1      -1.055  11.139  20.748  0.00  0.00    +0.000 NA
ATOM     19  C   UNL     1      -0.422  10.326  21.625  0.00  0.00    +0.000 A 
ATOM     20  C   UNL     1      -0.674  10.566  23.084  0.00  0.00    +0.000 C 
ATOM     21  C   UNL     1       0.449   9.312  21.229  0.00  0.00    +0.000 A 
ENDBRANCH  11  14
BRANCH   5  22
ATOM     22  C   UNL     1       2.140   4.155  21.225  0.00  0.00    +0.000 C 
ATOM     23  C   UNL     1       1.027   3.130  21.207  0.00  0.00    +0.000 C 
ATOM     24  C   UNL     1       2.339   2.788  21.837  0.00  0.00    +0.000 C 
ENDBRANCH   5  22
BRANCH   1  25
ATOM     25  C   UNL     1       6.155   4.230  15.987  0.00  0.00    +0.000 C 
ATOM     26  O   UNL     1       5.865   3.173  15.454  0.00  0.00    +0.000 OA
BRANCH  25  27
ATOM     27  O   UNL     1       7.420   4.618  16.299  0.00  0.00    +0.000 OA
BRANCH  27  29
ATOM     28  C   UNL     1       7.865   5.802  18.295  0.00  0.00    +0.000 C 
ATOM     29  C   UNL     1       7.837   4.427  17.655  0.00  0.00    +0.000 C 
ENDBRANCH  27  29
ENDBRANCH  25  27
ENDBRANCH   1  25
BRANCH   1  30
ATOM     30  C   UNL     1       5.219   6.438  15.667  0.00  0.00    +0.000 C 
ATOM     31  N   UNL     1       5.200   7.393  15.008  0.00  0.00    +0.000 NA
ENDBRANCH   1  30
TORSDOF 6
ENDMDL
MODEL 4
REMARK VINA RESULT:      -8.6      0.846      2.164
REMARK  Name = 
REMARK  9 active torsions:
REMARK  status: ('A' for Active; 'I' for Inactive)
REMARK    1  A    between atoms: C_1  and  C_2
REMARK    2  A    between atoms: C_2  and  O_3
REMARK    3  A    between atoms: O_3  and  C_4
REMARK    4  A    between atoms: C_4  and  C_6
REMARK    5  A    between atoms: C_6  and  C_7
REMARK    6  A    between atoms: N_12  and  C_13
REMARK    7  A    between atoms: C_21  and  C_22
REMARK    8  A    between atoms: C_24  and  C_25
REMARK    9  A    between atoms: C_27  and  C_28
REMARK                            x       y       z     vdW  Elec       q    Type
REMARK                         _______ _______ _______ _____ _____    ______ ____
ROOT
ATOM      1  C   UNL     1       5.198   5.301  16.439  0.00  0.00    +0.000 C 
ATOM      2  C   UNL     1       4.469   5.174  17.592  0.00  0.00    +0.000 C 
ATOM      3  C   UNL     1       4.539   3.917  18.359  0.00  0.00    +0.000 C 
ATOM      4  C   UNL     1       3.800   3.729  19.455  0.00  0.00    +0.000 C 
ATOM      5  N   UNL     1       2.955   4.655  20.019  0.00  0.00    +0.000 N 
ATOM      6  C   UNL     1       2.780   5.934  19.380  0.00  0.00    +0.000 A 
ATOM      7  C   UNL     1       3.538   6.239  18.197  0.00  0.00    +0.000 A 
ATOM      8  C   UNL     1       3.386   7.526  17.673  0.00  0.00    +0.000 A 
ATOM      9  C   UNL     1       2.511   8.456  18.225  0.00  0.00    +0.000 A 
ATOM     10  F   UNL     1       2.475   9.662  17.637  0.00  0.00    +0.000 F 
ATOM     11  C   UNL     1       1.711   8.176  19.324  0.00  0.00    +0.000 A 
ATOM     12  C   UNL     1       1.875   6.908  19.898  0.00  0.00    +0.000 A 
ATOM     13  F   UNL     1       1.125   6.607  20.972  0.00  0.00    +0.000 F 
ENDROOT
BRANCH  11  14
ATOM     14  C   UNL     1       0.752   9.191  19.825  0.00  0.00    +0.000 A 
ATOM     15  C   UNL     1       0.583   9.387  21.205  0.00  0.00    +0.000 A 
ATOM     16  C   UNL     1      -0.396  10.247  21.682  0.00  0.00    +0.000 A 
ATOM     17  C   UNL     1      -0.647  10.356  23.157  0.00  0.00    +0.000 C 
ATOM     18  N   UNL     1      -1.181  10.973  20.858  0.00  0.00    +0.000 NA
ATOM     19  C   UNL     1      -0.999  10.826  19.525  0.00  0.00    +0.000 A 
ATOM     20  C   UNL     1      -1.873  11.644  18.622  0.00  0.00    +0.000 C 
ATOM     21  C   UNL     1      -0.063   9.950  18.978  0.00  0.00    +0.000 A 
ENDBRANCH  11  14
BRANCH   5  22
ATOM     22  C   UNL     1       2.188   4.258  21.218  0.00  0.00    +0.000 C 
ATOM     23  C   UNL     1       1.046   3.264  21.220  0.00  0.00    +0.000 C 
ATOM     24  C   UNL     1       2.360   2.884  21.823  0.00  0.00    +0.000 C 
ENDBRANCH   5  22
BRANCH   1  25
ATOM     25  C   UNL     1       6.138   4.242  15.930  0.00  0.00    +0.000 C 
ATOM     26  O   UNL     1       5.833   3.187  15.401  0.00  0.00    +0.000 OA
BRANCH  25  27
ATOM     27  O   UNL     1       7.409   4.615  16.237  0.00  0.00    +0.000 OA
BRANCH  27  29
ATOM     28  C   UNL     1       7.863   5.773  18.247  0.00  0.00    +0.000 C 
ATOM     29  C   UNL     1       7.834   4.406  17.587  0.00  0.00    +0.000 C 
ENDBRANCH  27  29
ENDBRANCH  25  27
ENDBRANCH   1  25
BRANCH   1  30
ATOM     30  C   UNL     1       5.216   6.455  15.598  0.00  0.00    +0.000 C 
ATOM     31  N   UNL     1       5.201   7.406  14.934  0.00  0.00    +0.000 NA
ENDBRANCH   1  30
TORSDOF 6
ENDMDL
MODEL 5
REMARK VINA RESULT:      -7.1      0.923      1.794
REMARK  Name = 
REMARK  9 active torsions:
REMARK  status: ('A' for Active; 'I' for Inactive)
REMARK    1  A    between atoms: C_1  and  C_2
REMARK    2  A    between atoms: C_2  and  O_3
REMARK    3  A    between atoms: O_3  and  C_4
REMARK    4  A    between atoms: C_4  and  C_6
REMARK    5  A    between atoms: C_6  and  C_7
REMARK    6  A    between atoms: N_12  and  C_13
REMARK    7  A    between atoms: C_21  and  C_22
REMARK    8  A    between atoms: C_24  and  C_25
REMARK    9  A    between atoms: C_27  and  C_28
REMARK                            x       y       z     vdW  Elec       q    Type
REMARK                         _______ _______ _______ _____ _____    ______ ____
ROOT
ATOM      1  C   UNL     1       6.145   5.453  17.367  0.00  0.00    +0.000 C 
ATOM      2  C   UNL     1       5.127   5.278  18.268  0.00  0.00    +0.000 C 
ATOM      3  C   UNL     1       5.023   4.006  19.005  0.00  0.00    +0.000 C 
ATOM      4  C   UNL     1       4.014   3.771  19.848  0.00  0.00    +0.000 C 
ATOM      5  N   UNL     1       3.015   4.659  20.166  0.00  0.00    +0.000 N 
ATOM      6  C   UNL     1       2.982   5.948  19.522  0.00  0.00    +0.000 A 
ATOM      7  C   UNL     1       4.029   6.302  18.603  0.00  0.00    +0.000 A 
ATOM      8  C   UNL     1       3.986   7.596  18.076  0.00  0.00    +0.000 A 
ATOM      9  C   UNL     1       2.961   8.487  18.374  0.00  0.00    +0.000 A 
ATOM     10  F   UNL     1       3.049   9.705  17.817  0.00  0.00    +0.000 F 
ATOM     11  C   UNL     1       1.895   8.159  19.201  0.00  0.00    +0.000 A 
ATOM     12  C   UNL     1       1.936   6.883  19.780  0.00  0.00    +0.000 A 
ATOM     13  F   UNL     1       0.926   6.536  20.597  0.00  0.00    +0.000 F 
ENDROOT
BRANCH  11  14
ATOM     14  C   UNL     1       0.800   9.134  19.428  0.00  0.00    +0.000 A 
ATOM     15  C   UNL     1       0.584   9.672  20.706  0.00  0.00    +0.000 A 
ATOM     16  C   UNL     1      -0.510  10.491  20.953  0.00  0.00    +0.000 A 
ATOM     17  C   UNL     1      -0.798  10.962  22.347  0.00  0.00    +0.000 C 
ATOM     18  N   UNL     1      -1.371  10.855  19.979  0.00  0.00    +0.000 NA
ATOM     19  C   UNL     1      -1.148  10.378  18.732  0.00  0.00    +0.000 A 
ATOM     20  C   UNL     1      -2.109  10.796  17.659  0.00  0.00    +0.000 C 
ATOM     21  C   UNL     1      -0.094   9.520  18.424  0.00  0.00    +0.000 A 
ENDBRANCH  11  14
BRANCH   5  22
ATOM     22  C   UNL     1       1.957   4.213  21.097  0.00  0.00    +0.000 C 
ATOM     23  C   UNL     1       0.893   3.189  20.764  0.00  0.00    +0.000 C 
ATOM     24  C   UNL     1       1.998   2.830  21.704  0.00  0.00    +0.000 C 
ENDBRANCH   5  22
BRANCH   1  25
ATOM     25  C   UNL     1       7.224   4.433  17.126  0.00  0.00    +0.000 C 
ATOM     26  O   UNL     1       8.048   4.037  17.932  0.00  0.00    +0.000 OA
BRANCH  25  27
ATOM     27  O   UNL     1       7.191   4.077  15.814  0.00  0.00    +0.000 OA
BRANCH  27  29
ATOM     28  C   UNL     1       5.889   3.956  13.846  0.00  0.00    +0.000 C 
ATOM     29  C   UNL     1       5.947   3.578  15.314  0.00  0.00    +0.000 C 
ENDBRANCH  27  29
ENDBRANCH  25  27
ENDBRANCH   1  25
BRANCH   1  30
ATOM     30  C   UNL     1       6.358   6.626  16.581  0.00  0.00    +0.000 C 
ATOM     31  N   UNL     1       6.494   7.589  15.948  0.00  0.00    +0.000 NA
ENDBRANCH   1  30
TORSDOF 6
ENDMDL
MODEL 6
REMARK VINA RESULT:      -6.7      3.203      7.947
REMARK  Name = 
REMARK  9 active torsions:
REMARK  status: ('A' for Active; 'I' for Inactive)
REMARK    1  A    between atoms: C_1  and  C_2
REMARK    2  A    between atoms: C_2  and  O_3
REMARK    3  A    between atoms: O_3  and  C_4
REMARK    4  A    between atoms: C_4  and  C_6
REMARK    5  A    between atoms: C_6  and  C_7
REMARK    6  A    between atoms: N_12  and  C_13
REMARK    7  A    between atoms: C_21  and  C_22
REMARK    8  A    between atoms: C_24  and  C_25
REMARK    9  A    between atoms: C_27  and  C_28
REMARK                            x       y       z     vdW  Elec       q    Type
REMARK                         _______ _______ _______ _____ _____    ______ ____
ROOT
ATOM      1  C   UNL     1       2.059   8.244  19.336  0.00  0.00    +0.000 C 
ATOM      2  C   UNL     1       2.480   6.950  19.175  0.00  0.00    +0.000 C 
ATOM      3  C   UNL     1       2.167   5.951  20.213  0.00  0.00    +0.000 C 
ATOM      4  C   UNL     1       2.608   4.694  20.124  0.00  0.00    +0.000 C 
ATOM      5  N   UNL     1       3.334   4.173  19.080  0.00  0.00    +0.000 N 
ATOM      6  C   UNL     1       3.719   5.030  17.988  0.00  0.00    +0.000 A 
ATOM      7  C   UNL     1       3.286   6.401  17.984  0.00  0.00    +0.000 A 
ATOM      8  C   UNL     1       3.621   7.158  16.858  0.00  0.00    +0.000 A 
ATOM      9  C   UNL     1       4.379   6.642  15.813  0.00  0.00    +0.000 A 
ATOM     10  F   UNL     1       4.614   7.469  14.781  0.00  0.00    +0.000 F 
ATOM     11  C   UNL     1       4.875   5.346  15.811  0.00  0.00    +0.000 A 
ATOM     12  C   UNL     1       4.516   4.548  16.907  0.00  0.00    +0.000 A 
ATOM     13  F   UNL     1       4.969   3.283  16.933  0.00  0.00    +0.000 F 
ENDROOT
BRANCH  11  14
ATOM     14  C   UNL     1       5.731   4.876  14.695  0.00  0.00    +0.000 A 
ATOM     15  C   UNL     1       6.986   5.462  14.468  0.00  0.00    +0.000 A 
ATOM     16  C   UNL     1       7.740   5.112  13.356  0.00  0.00    +0.000 A 
ATOM     17  C   UNL     1       9.022   5.832  13.060  0.00  0.00    +0.000 C 
ATOM     18  N   UNL     1       7.340   4.161  12.486  0.00  0.00    +0.000 NA
ATOM     19  C   UNL     1       6.152   3.556  12.718  0.00  0.00    +0.000 A 
ATOM     20  C   UNL     1       5.724   2.496  11.747  0.00  0.00    +0.000 C 
ATOM     21  C   UNL     1       5.326   3.888  13.791  0.00  0.00    +0.000 A 
ENDBRANCH  11  14
BRANCH   5  22
ATOM     22  C   UNL     1       3.768   2.762  19.169  0.00  0.00    +0.000 C 
ATOM     23  C   UNL     1       4.549   2.173  20.323  0.00  0.00    +0.000 C 
ATOM     24  C   UNL     1       3.109   1.813  20.143  0.00  0.00    +0.000 C 
ENDBRANCH   5  22
BRANCH   1  25
ATOM     25  C   UNL     1       1.223   8.705  20.497  0.00  0.00    +0.000 C 
ATOM     26  O   UNL     1       1.455   8.530  21.681  0.00  0.00    +0.000 OA
BRANCH  25  27
ATOM     27  O   UNL     1       0.096   9.288  20.008  0.00  0.00    +0.000 OA
BRANCH  27  29
ATOM     28  C   UNL     1      -1.099  11.309  19.731  0.00  0.00    +0.000 C 
ATOM     29  C   UNL     1      -0.425  10.401  20.743  0.00  0.00    +0.000 C 
ENDBRANCH  27  29
ENDBRANCH  25  27
ENDBRANCH   1  25
BRANCH   1  30
ATOM     30  C   UNL     1       2.301   9.310  18.417  0.00  0.00    +0.000 C 
ATOM     31  N   UNL     1       2.463  10.167  17.653  0.00  0.00    +0.000 NA
ENDBRANCH   1  30
TORSDOF 6
ENDMDL
MODEL 7
REMARK VINA RESULT:      -6.6      6.092      9.235
REMARK  Name = 
REMARK  9 active torsions:
REMARK  status: ('A' for Active; 'I' for Inactive)
REMARK    1  A    between atoms: C_1  and  C_2
REMARK    2  A    between atoms: C_2  and  O_3
REMARK    3  A    between atoms: O_3  and  C_4
REMARK    4  A    between atoms: C_4  and  C_6
REMARK    5  A    between atoms: C_6  and  C_7
REMARK    6  A    between atoms: N_12  and  C_13
REMARK    7  A    between atoms: C_21  and  C_22
REMARK    8  A    between atoms: C_24  and  C_25
REMARK    9  A    between atoms: C_27  and  C_28
REMARK                            x       y       z     vdW  Elec       q    Type
REMARK                         _______ _______ _______ _____ _____    ______ ____
ROOT
ATOM      1  C   UNL     1       2.031  16.104  18.503  0.00  0.00    +0.000 C 
ATOM      2  C   UNL     1       1.669  14.804  18.744  0.00  0.00    +0.000 C 
ATOM      3  C   UNL     1       2.519  13.710  18.241  0.00  0.00    +0.000 C 
ATOM      4  C   UNL     1       2.173  12.431  18.402  0.00  0.00    +0.000 C 
ATOM      5  N   UNL     1       1.060  11.981  19.072  0.00  0.00    +0.000 N 
ATOM      6  C   UNL     1       0.130  12.936  19.619  0.00  0.00    +0.000 A 
ATOM      7  C   UNL     1       0.416  14.340  19.506  0.00  0.00    +0.000 A 
ATOM      8  C   UNL     1      -0.481  15.211  20.130  0.00  0.00    +0.000 A 
ATOM      9  C   UNL     1      -1.623  14.761  20.784  0.00  0.00    +0.000 A 
ATOM     10  F   UNL     1      -2.391  15.701  21.358  0.00  0.00    +0.000 F 
ATOM     11  C   UNL     1      -1.971  13.419  20.855  0.00  0.00    +0.000 A 
ATOM     12  C   UNL     1      -1.066  12.518  20.277  0.00  0.00    +0.000 A 
ATOM     13  F   UNL     1      -1.364  11.209  20.337  0.00  0.00    +0.000 F 
ENDROOT
BRANCH  11  14
ATOM     14  C   UNL     1      -3.236  13.010  21.512  0.00  0.00    +0.000 A 
ATOM     15  C   UNL     1      -4.403  12.830  20.753  0.00  0.00    +0.000 A 
ATOM     16  C   UNL     1      -5.616  12.565  21.374  0.00  0.00    +0.000 A 
ATOM     17  C   UNL     1      -6.876  12.495  20.564  0.00  0.00    +0.000 C 
ATOM     18  N   UNL     1      -5.722  12.407  22.710  0.00  0.00    +0.000 NA
ATOM     19  C   UNL     1      -4.595  12.534  23.449  0.00  0.00    +0.000 A 
ATOM     20  C   UNL     1      -4.726  12.348  24.932  0.00  0.00    +0.000 C 
ATOM     21  C   UNL     1      -3.353  12.840  22.895  0.00  0.00    +0.000 A 
ENDBRANCH  11  14
BRANCH   5  22
ATOM     22  C   UNL     1       0.818  10.523  19.121  0.00  0.00    +0.000 C 
ATOM     23  C   UNL     1       0.156   9.723  18.020  0.00  0.00    +0.000 C 
ATOM     24  C   UNL     1       1.625   9.579  18.260  0.00  0.00    +0.000 C 
ENDBRANCH   5  22
BRANCH   1  25
ATOM     25  C   UNL     1       3.302  16.494  17.800  0.00  0.00    +0.000 C 
ATOM     26  O   UNL     1       3.638  16.185  16.670  0.00  0.00    +0.000 OA
BRANCH  25  27
ATOM     27  O   UNL     1       4.077  17.192  18.674  0.00  0.00    +0.000 OA
BRANCH  27  29
ATOM     28  C   UNL     1       4.746  16.906  20.922  0.00  0.00    +0.000 C 
ATOM     29  C   UNL     1       4.964  16.429  19.498  0.00  0.00    +0.000 C 
ENDBRANCH  27  29
ENDBRANCH  25  27
ENDBRANCH   1  25
BRANCH   1  30
ATOM     30  C   UNL     1       1.299  17.255  18.922  0.00  0.00    +0.000 C 
ATOM     31  N   UNL     1       0.701  18.176  19.299  0.00  0.00    +0.000 NA
ENDBRANCH   1  30
TORSDOF 6
ENDMDL
MODEL 8
REMARK VINA RESULT:      -6.6      6.275      9.444
REMARK  Name = 
REMARK  9 active torsions:
REMARK  status: ('A' for Active; 'I' for Inactive)
REMARK    1  A    between atoms: C_1  and  C_2
REMARK    2  A    between atoms: C_2  and  O_3
REMARK    3  A    between atoms: O_3  and  C_4
REMARK    4  A    between atoms: C_4  and  C_6
REMARK    5  A    between atoms: C_6  and  C_7
REMARK    6  A    between atoms: N_12  and  C_13
REMARK    7  A    between atoms: C_21  and  C_22
REMARK    8  A    between atoms: C_24  and  C_25
REMARK    9  A    between atoms: C_27  and  C_28
REMARK                            x       y       z     vdW  Elec       q    Type
REMARK                         _______ _______ _______ _____ _____    ______ ____
ROOT
ATOM      1  C   UNL     1       1.860  16.305  18.462  0.00  0.00    +0.000 C 
ATOM      2  C   UNL     1       1.496  15.009  18.716  0.00  0.00    +0.000 C 
ATOM      3  C   UNL     1       2.356  13.909  18.244  0.00  0.00    +0.000 C 
ATOM      4  C   UNL     1       2.009  12.631  18.418  0.00  0.00    +0.000 C 
ATOM      5  N   UNL     1       0.885  12.190  19.074  0.00  0.00    +0.000 N 
ATOM      6  C   UNL     1      -0.056  13.151  19.592  0.00  0.00    +0.000 A 
ATOM      7  C   UNL     1       0.230  14.554  19.463  0.00  0.00    +0.000 A 
ATOM      8  C   UNL     1      -0.679  15.433  20.058  0.00  0.00    +0.000 A 
ATOM      9  C   UNL     1      -1.831  14.991  20.698  0.00  0.00    +0.000 A 
ATOM     10  F   UNL     1      -2.610  15.938  21.246  0.00  0.00    +0.000 F 
ATOM     11  C   UNL     1      -2.178  13.650  20.783  0.00  0.00    +0.000 A 
ATOM     12  C   UNL     1      -1.262  12.742  20.234  0.00  0.00    +0.000 A 
ATOM     13  F   UNL     1      -1.560  11.433  20.308  0.00  0.00    +0.000 F 
ENDROOT
BRANCH  11  14
ATOM     14  C   UNL     1      -3.454  13.248  21.424  0.00  0.00    +0.000 A 
ATOM     15  C   UNL     1      -3.539  13.128  22.820  0.00  0.00    +0.000 A 
ATOM     16  C   UNL     1      -4.692  12.638  23.419  0.00  0.00    +0.000 A 
ATOM     17  C   UNL     1      -4.728  12.401  24.899  0.00  0.00    +0.000 C 
ATOM     18  N   UNL     1      -5.792  12.317  22.706  0.00  0.00    +0.000 NA
ATOM     19  C   UNL     1      -5.739  12.470  21.363  0.00  0.00    +0.000 A 
ATOM     20  C   UNL     1      -6.971  12.116  20.584  0.00  0.00    +0.000 C 
ATOM     21  C   UNL     1      -4.600  12.917  20.694  0.00  0.00    +0.000 A 
ENDBRANCH  11  14
BRANCH   5  22
ATOM     22  C   UNL     1       0.644  10.733  19.140  0.00  0.00    +0.000 C 
ATOM     23  C   UNL     1       0.007   9.915  18.038  0.00  0.00    +0.000 C 
ATOM     24  C   UNL     1       1.470   9.777  18.312  0.00  0.00    +0.000 C 
ENDBRANCH   5  22
BRANCH   1  25
ATOM     25  C   UNL     1       3.143  16.687  17.776  0.00  0.00    +0.000 C 
ATOM     26  O   UNL     1       3.468  16.422  16.631  0.00  0.00    +0.000 OA
BRANCH  25  27
ATOM     27  O   UNL     1       3.941  17.317  18.680  0.00  0.00    +0.000 OA
BRANCH  27  29
ATOM     28  C   UNL     1       6.045  16.256  18.855  0.00  0.00    +0.000 C 
ATOM     29  C   UNL     1       4.714  16.482  19.548  0.00  0.00    +0.000 C 
ENDBRANCH  27  29
ENDBRANCH  25  27
ENDBRANCH   1  25
BRANCH   1  30
ATOM     30  C   UNL     1       1.119  17.462  18.852  0.00  0.00    +0.000 C 
ATOM     31  N   UNL     1       0.484  18.381  19.164  0.00  0.00    +0.000 NA
ENDBRANCH   1  30
TORSDOF 6
ENDMDL
MODEL 9
REMARK VINA RESULT:      -6.4      4.729      9.885
REMARK  Name = 
REMARK  9 active torsions:
REMARK  status: ('A' for Active; 'I' for Inactive)
REMARK    1  A    between atoms: C_1  and  C_2
REMARK    2  A    between atoms: C_2  and  O_3
REMARK    3  A    between atoms: O_3  and  C_4
REMARK    4  A    between atoms: C_4  and  C_6
REMARK    5  A    between atoms: C_6  and  C_7
REMARK    6  A    between atoms: N_12  and  C_13
REMARK    7  A    between atoms: C_21  and  C_22
REMARK    8  A    between atoms: C_24  and  C_25
REMARK    9  A    between atoms: C_27  and  C_28
REMARK                            x       y       z     vdW  Elec       q    Type
REMARK                         _______ _______ _______ _____ _____    ______ ____
ROOT
ATOM      1  C   UNL     1      -2.274  12.760  21.424  0.00  0.00    +0.000 C 
ATOM      2  C   UNL     1      -2.155  12.117  20.220  0.00  0.00    +0.000 C 
ATOM      3  C   UNL     1      -3.133  12.392  19.151  0.00  0.00    +0.000 C 
ATOM      4  C   UNL     1      -3.088  11.744  17.985  0.00  0.00    +0.000 C 
ATOM      5  N   UNL     1      -2.141  10.818  17.619  0.00  0.00    +0.000 N 
ATOM      6  C   UNL     1      -1.117  10.443  18.562  0.00  0.00    +0.000 A 
ATOM      7  C   UNL     1      -1.073  11.089  19.846  0.00  0.00    +0.000 A 
ATOM      8  C   UNL     1      -0.008  10.743  20.681  0.00  0.00    +0.000 A 
ATOM      9  C   UNL     1       0.936   9.786  20.327  0.00  0.00    +0.000 A 
ATOM     10  F   UNL     1       1.920   9.561  21.212  0.00  0.00    +0.000 F 
ATOM     11  C   UNL     1       0.888   9.089  19.127  0.00  0.00    +0.000 A 
ATOM     12  C   UNL     1      -0.144   9.448  18.249  0.00  0.00    +0.000 A 
ATOM     13  F   UNL     1      -0.214   8.803  17.071  0.00  0.00    +0.000 F 
ENDROOT
BRANCH  11  14
ATOM     14  C   UNL     1       1.890   8.035  18.836  0.00  0.00    +0.000 A 
ATOM     15  C   UNL     1       1.927   6.861  19.604  0.00  0.00    +0.000 A 
ATOM     16  C   UNL     1       2.934   5.924  19.417  0.00  0.00    +0.000 A 
ATOM     17  C   UNL     1       3.033   4.734  20.323  0.00  0.00    +0.000 C 
ATOM     18  N   UNL     1       3.877   6.063  18.461  0.00  0.00    +0.000 NA
ATOM     19  C   UNL     1       3.826   7.169  17.683  0.00  0.00    +0.000 A 
ATOM     20  C   UNL     1       4.875   7.306  16.620  0.00  0.00    +0.000 C 
ATOM     21  C   UNL     1       2.867   8.168  17.844  0.00  0.00    +0.000 A 
ENDBRANCH  11  14
BRANCH   5  22
ATOM     22  C   UNL     1      -2.270  10.174  16.295  0.00  0.00    +0.000 C 
ATOM     23  C   UNL     1      -3.547   9.571  15.751  0.00  0.00    +0.000 C 
ATOM     24  C   UNL     1      -3.031  10.853  15.180  0.00  0.00    +0.000 C 
ENDBRANCH   5  22
BRANCH   1  25
ATOM     25  C   UNL     1      -3.323  13.800  21.708  0.00  0.00    +0.000 C 
ATOM     26  O   UNL     1      -3.233  15.001  21.518  0.00  0.00    +0.000 OA
BRANCH  25  27
ATOM     27  O   UNL     1      -4.381  13.189  22.305  0.00  0.00    +0.000 OA
BRANCH  27  29
ATOM     28  C   UNL     1      -4.464  12.577  24.586  0.00  0.00    +0.000 C 
ATOM     29  C   UNL     1      -4.768  13.682  23.591  0.00  0.00    +0.000 C 
ENDBRANCH  27  29
ENDBRANCH  25  27
ENDBRANCH   1  25
BRANCH   1  30
ATOM     30  C   UNL     1      -1.407  12.582  22.543  0.00  0.00    +0.000 C 
ATOM     31  N   UNL     1      -0.671  12.436  23.429  0.00  0.00    +0.000 NA
ENDBRANCH   1  30
TORSDOF 6
ENDMDL
