MODEL 1
REMARK VINA RESULT:      -6.8      0.000      0.000
REMARK  Name = 
REMARK  5 active torsions:
REMARK  status: ('A' for Active; 'I' for Inactive)
REMARK    1  A    between atoms: C_1  and  S_2
REMARK    2  A    between atoms: S_2  and  N_5
REMARK    3  A    between atoms: N_5  and  C_6
REMARK    4  A    between atoms: C_9  and  C_10
REMARK    5  A    between atoms: N_12  and  C_13
REMARK                            x       y       z     vdW  Elec       q    Type
REMARK                         _______ _______ _______ _____ _____    ______ ____
ROOT
ATOM      1  C   UNL     1       0.528   9.702  19.740  0.00  0.00    +0.000 A 
ATOM      2  C   UNL     1       0.896   9.736  18.397  0.00  0.00    +0.000 A 
ATOM      3  C   UNL     1       1.784   8.781  17.895  0.00  0.00    +0.000 A 
ATOM      4  C   UNL     1       2.295   7.775  18.727  0.00  0.00    +0.000 A 
ATOM      5  C   UNL     1       1.901   7.729  20.071  0.00  0.00    +0.000 A 
ATOM      6  C   UNL     1       1.013   8.692  20.574  0.00  0.00    +0.000 A 
ENDROOT
BRANCH   4   7
ATOM      7  C   UNL     1       3.297   6.836  18.142  0.00  0.00    +0.000 C 
ATOM      8  O   UNL     1       4.062   7.241  17.276  0.00  0.00    +0.000 OA
ATOM      9  N   UNL     1       3.294   5.537  18.607  0.00  0.00    +0.000 N 
ATOM     10  H   UNL     1       2.642   5.266  19.328  0.00  0.00    +0.000 HD
BRANCH   9  11
ATOM     11  C   UNL     1       4.303   4.567  18.180  0.00  0.00    +0.000 C 
ATOM     12  C   UNL     1       4.713   3.655  19.343  0.00  0.00    +0.000 C 
ATOM     13  C   UNL     1       3.587   2.706  19.754  0.00  0.00    +0.000 C 
ATOM     14  C   UNL     1       3.072   1.888  18.572  0.00  0.00    +0.000 C 
ATOM     15  C   UNL     1       2.688   2.762  17.382  0.00  0.00    +0.000 C 
ATOM     16  C   UNL     1       3.806   3.728  16.995  0.00  0.00    +0.000 C 
ENDBRANCH   9  11
ENDBRANCH   4   7
BRANCH   1  17
ATOM     17  N   UNL     1      -0.372  10.688  20.240  0.00  0.00    +0.000 N 
ATOM     18  H   UNL     1      -0.809  11.280  19.531  0.00  0.00    +0.000 HD
BRANCH  17  20
ATOM     19  C   UNL     1      -0.858  13.100  21.335  0.00  0.00    +0.000 C 
ATOM     20  S   UNL     1       0.171  11.660  21.513  0.00  0.00    +0.000 S 
ATOM     21  O   UNL     1       1.525  12.040  21.158  0.00  0.00    +0.000 OA
ATOM     22  O   UNL     1      -0.115  11.018  22.775  0.00  0.00    +0.000 OA
ENDBRANCH  17  20
ENDBRANCH   1  17
TORSDOF 4
ENDMDL
MODEL 2
REMARK VINA RESULT:      -6.7      2.293      2.998
REMARK  Name = 
REMARK  5 active torsions:
REMARK  status: ('A' for Active; 'I' for Inactive)
REMARK    1  A    between atoms: C_1  and  S_2
REMARK    2  A    between atoms: S_2  and  N_5
REMARK    3  A    between atoms: N_5  and  C_6
REMARK    4  A    between atoms: C_9  and  C_10
REMARK    5  A    between atoms: N_12  and  C_13
REMARK                            x       y       z     vdW  Elec       q    Type
REMARK                         _______ _______ _______ _____ _____    ______ ____
ROOT
ATOM      1  C   UNL     1       1.353   9.692  19.017  0.00  0.00    +0.000 A 
ATOM      2  C   UNL     1       1.998   9.224  17.875  0.00  0.00    +0.000 A 
ATOM      3  C   UNL     1       2.598   7.962  17.885  0.00  0.00    +0.000 A 
ATOM      4  C   UNL     1       2.541   7.153  19.027  0.00  0.00    +0.000 A 
ATOM      5  C   UNL     1       1.868   7.618  20.166  0.00  0.00    +0.000 A 
ATOM      6  C   UNL     1       1.270   8.888  20.155  0.00  0.00    +0.000 A 
ENDROOT
BRANCH   4   7
ATOM      7  C   UNL     1       3.269   5.851  18.990  0.00  0.00    +0.000 C 
ATOM      8  O   UNL     1       2.880   4.927  19.694  0.00  0.00    +0.000 OA
ATOM      9  N   UNL     1       4.370   5.764  18.162  0.00  0.00    +0.000 N 
ATOM     10  H   UNL     1       4.636   6.559  17.602  0.00  0.00    +0.000 HD
BRANCH   9  11
ATOM     11  C   UNL     1       5.088   4.503  17.970  0.00  0.00    +0.000 C 
ATOM     12  C   UNL     1       4.766   3.893  16.600  0.00  0.00    +0.000 C 
ATOM     13  C   UNL     1       5.355   4.714  15.453  0.00  0.00    +0.000 C 
ATOM     14  C   UNL     1       6.858   4.927  15.618  0.00  0.00    +0.000 C 
ATOM     15  C   UNL     1       7.217   5.500  16.986  0.00  0.00    +0.000 C 
ATOM     16  C   UNL     1       6.602   4.692  18.127  0.00  0.00    +0.000 C 
ENDBRANCH   9  11
ENDBRANCH   4   7
BRANCH   1  17
ATOM     17  N   UNL     1       0.753  10.985  18.996  0.00  0.00    +0.000 N 
ATOM     18  H   UNL     1       1.114  11.646  19.688  0.00  0.00    +0.000 HD
BRANCH  17  20
ATOM     19  C   UNL     1      -1.235  12.581  18.128  0.00  0.00    +0.000 C 
ATOM     20  S   UNL     1      -0.937  11.057  18.994  0.00  0.00    +0.000 S 
ATOM     21  O   UNL     1      -1.316  11.256  20.380  0.00  0.00    +0.000 OA
ATOM     22  O   UNL     1      -1.473   9.956  18.227  0.00  0.00    +0.000 OA
ENDBRANCH  17  20
ENDBRANCH   1  17
TORSDOF 4
ENDMDL
MODEL 3
REMARK VINA RESULT:      -6.7      1.811      2.846
REMARK  Name = 
REMARK  5 active torsions:
REMARK  status: ('A' for Active; 'I' for Inactive)
REMARK    1  A    between atoms: C_1  and  S_2
REMARK    2  A    between atoms: S_2  and  N_5
REMARK    3  A    between atoms: N_5  and  C_6
REMARK    4  A    between atoms: C_9  and  C_10
REMARK    5  A    between atoms: N_12  and  C_13
REMARK                            x       y       z     vdW  Elec       q    Type
REMARK                         _______ _______ _______ _____ _____    ______ ____
ROOT
ATOM      1  C   UNL     1       0.993   9.668  19.140  0.00  0.00    +0.000 A 
ATOM      2  C   UNL     1       1.116   8.864  20.270  0.00  0.00    +0.000 A 
ATOM      3  C   UNL     1       1.886   7.699  20.213  0.00  0.00    +0.000 A 
ATOM      4  C   UNL     1       2.554   7.342  19.034  0.00  0.00    +0.000 A 
ATOM      5  C   UNL     1       2.449   8.168  17.907  0.00  0.00    +0.000 A 
ATOM      6  C   UNL     1       1.671   9.335  17.965  0.00  0.00    +0.000 A 
ENDROOT
BRANCH   4   7
ATOM      7  C   UNL     1       3.295   6.047  19.024  0.00  0.00    +0.000 C 
ATOM      8  O   UNL     1       3.123   5.251  19.940  0.00  0.00    +0.000 OA
ATOM      9  N   UNL     1       4.161   5.820  17.973  0.00  0.00    +0.000 N 
ATOM     10  H   UNL     1       4.253   6.512  17.245  0.00  0.00    +0.000 HD
BRANCH   9  11
ATOM     11  C   UNL     1       4.853   4.541  17.811  0.00  0.00    +0.000 C 
ATOM     12  C   UNL     1       4.707   4.017  16.377  0.00  0.00    +0.000 C 
ATOM     13  C   UNL     1       5.481   4.869  15.372  0.00  0.00    +0.000 C 
ATOM     14  C   UNL     1       6.952   5.008  15.757  0.00  0.00    +0.000 C 
ATOM     15  C   UNL     1       7.135   5.493  17.192  0.00  0.00    +0.000 C 
ATOM     16  C   UNL     1       6.336   4.655  18.188  0.00  0.00    +0.000 C 
ENDBRANCH   9  11
ENDBRANCH   4   7
BRANCH   1  17
ATOM     17  N   UNL     1       0.197  10.848  19.209  0.00  0.00    +0.000 N 
ATOM     18  H   UNL     1      -0.257  11.122  18.335  0.00  0.00    +0.000 HD
BRANCH  17  20
ATOM     19  C   UNL     1      -0.319  13.467  19.570  0.00  0.00    +0.000 C 
ATOM     20  S   UNL     1       0.895  12.216  19.919  0.00  0.00    +0.000 S 
ATOM     21  O   UNL     1       2.071  12.507  19.121  0.00  0.00    +0.000 OA
ATOM     22  O   UNL     1       0.995  12.028  21.348  0.00  0.00    +0.000 OA
ENDBRANCH  17  20
ENDBRANCH   1  17
TORSDOF 4
ENDMDL
MODEL 4
REMARK VINA RESULT:      -6.7      1.998      2.782
REMARK  Name = 
REMARK  5 active torsions:
REMARK  status: ('A' for Active; 'I' for Inactive)
REMARK    1  A    between atoms: C_1  and  S_2
REMARK    2  A    between atoms: S_2  and  N_5
REMARK    3  A    between atoms: N_5  and  C_6
REMARK    4  A    between atoms: C_9  and  C_10
REMARK    5  A    between atoms: N_12  and  C_13
REMARK                            x       y       z     vdW  Elec       q    Type
REMARK                         _______ _______ _______ _____ _____    ______ ____
ROOT
ATOM      1  C   UNL     1       1.135   9.630  18.918  0.00  0.00    +0.000 A 
ATOM      2  C   UNL     1       1.780   9.074  17.816  0.00  0.00    +0.000 A 
ATOM      3  C   UNL     1       2.465   7.863  17.951  0.00  0.00    +0.000 A 
ATOM      4  C   UNL     1       2.492   7.191  19.181  0.00  0.00    +0.000 A 
ATOM      5  C   UNL     1       1.819   7.742  20.279  0.00  0.00    +0.000 A 
ATOM      6  C   UNL     1       1.136   8.960  20.143  0.00  0.00    +0.000 A 
ENDROOT
BRANCH   4   7
ATOM      7  C   UNL     1       3.306   5.943  19.269  0.00  0.00    +0.000 C 
ATOM      8  O   UNL     1       3.058   5.128  20.149  0.00  0.00    +0.000 OA
ATOM      9  N   UNL     1       4.322   5.783  18.349  0.00  0.00    +0.000 N 
ATOM     10  H   UNL     1       4.473   6.488  17.644  0.00  0.00    +0.000 HD
BRANCH   9  11
ATOM     11  C   UNL     1       5.107   4.550  18.280  0.00  0.00    +0.000 C 
ATOM     12  C   UNL     1       4.747   3.740  17.028  0.00  0.00    +0.000 C 
ATOM     13  C   UNL     1       5.215   4.427  15.745  0.00  0.00    +0.000 C 
ATOM     14  C   UNL     1       6.709   4.744  15.782  0.00  0.00    +0.000 C 
ATOM     15  C   UNL     1       7.108   5.519  17.034  0.00  0.00    +0.000 C 
ATOM     16  C   UNL     1       6.613   4.843  18.310  0.00  0.00    +0.000 C 
ENDBRANCH   9  11
ENDBRANCH   4   7
BRANCH   1  17
ATOM     17  N   UNL     1       0.448  10.870  18.768  0.00  0.00    +0.000 N 
ATOM     18  H   UNL     1      -0.042  10.993  17.879  0.00  0.00    +0.000 HD
BRANCH  17  20
ATOM     19  C   UNL     1       0.143  13.544  18.660  0.00  0.00    +0.000 C 
ATOM     20  S   UNL     1       1.308  12.282  19.124  0.00  0.00    +0.000 S 
ATOM     21  O   UNL     1       2.401  12.319  18.171  0.00  0.00    +0.000 OA
ATOM     22  O   UNL     1       1.557  12.358  20.545  0.00  0.00    +0.000 OA
ENDBRANCH  17  20
ENDBRANCH   1  17
TORSDOF 4
ENDMDL
MODEL 5
REMARK VINA RESULT:      -6.6      0.799      1.381
REMARK  Name = 
REMARK  5 active torsions:
REMARK  status: ('A' for Active; 'I' for Inactive)
REMARK    1  A    between atoms: C_1  and  S_2
REMARK    2  A    between atoms: S_2  and  N_5
REMARK    3  A    between atoms: N_5  and  C_6
REMARK    4  A    between atoms: C_9  and  C_10
REMARK    5  A    between atoms: N_12  and  C_13
REMARK                            x       y       z     vdW  Elec       q    Type
REMARK                         _______ _______ _______ _____ _____    ______ ____
ROOT
ATOM      1  C   UNL     1       0.578  10.097  19.617  0.00  0.00    +0.000 A 
ATOM      2  C   UNL     1       0.893   9.042  20.470  0.00  0.00    +0.000 A 
ATOM      3  C   UNL     1       1.701   7.997  20.014  0.00  0.00    +0.000 A 
ATOM      4  C   UNL     1       2.215   8.010  18.710  0.00  0.00    +0.000 A 
ATOM      5  C   UNL     1       1.917   9.087  17.864  0.00  0.00    +0.000 A 
ATOM      6  C   UNL     1       1.102  10.133  18.323  0.00  0.00    +0.000 A 
ENDROOT
BRANCH   4   7
ATOM      7  C   UNL     1       3.006   6.824  18.267  0.00  0.00    +0.000 C 
ATOM      8  O   UNL     1       4.069   6.998  17.682  0.00  0.00    +0.000 OA
ATOM      9  N   UNL     1       2.480   5.576  18.531  0.00  0.00    +0.000 N 
ATOM     10  H   UNL     1       1.602   5.499  19.023  0.00  0.00    +0.000 HD
BRANCH   9  11
ATOM     11  C   UNL     1       3.224   4.351  18.237  0.00  0.00    +0.000 C 
ATOM     12  C   UNL     1       3.836   3.762  19.514  0.00  0.00    +0.000 C 
ATOM     13  C   UNL     1       2.770   3.206  20.458  0.00  0.00    +0.000 C 
ATOM     14  C   UNL     1       1.868   2.189  19.763  0.00  0.00    +0.000 C 
ATOM     15  C   UNL     1       1.270   2.731  18.468  0.00  0.00    +0.000 C 
ATOM     16  C   UNL     1       2.337   3.310  17.541  0.00  0.00    +0.000 C 
ENDBRANCH   9  11
ENDBRANCH   4   7
BRANCH   1  17
ATOM     17  N   UNL     1      -0.254  11.152  20.094  0.00  0.00    +0.000 N 
ATOM     18  H   UNL     1      -0.584  11.805  19.380  0.00  0.00    +0.000 HD
BRANCH  17  20
ATOM     19  C   UNL     1      -0.606  13.553  21.261  0.00  0.00    +0.000 C 
ATOM     20  S   UNL     1       0.293  12.029  21.433  0.00  0.00    +0.000 S 
ATOM     21  O   UNL     1       1.691  12.308  21.165  0.00  0.00    +0.000 OA
ATOM     22  O   UNL     1      -0.113  11.366  22.651  0.00  0.00    +0.000 OA
ENDBRANCH  17  20
ENDBRANCH   1  17
TORSDOF 4
ENDMDL
MODEL 6
REMARK VINA RESULT:      -6.6      0.814      1.484
REMARK  Name = 
REMARK  5 active torsions:
REMARK  status: ('A' for Active; 'I' for Inactive)
REMARK    1  A    between atoms: C_1  and  S_2
REMARK    2  A    between atoms: S_2  and  N_5
REMARK    3  A    between atoms: N_5  and  C_6
REMARK    4  A    between atoms: C_9  and  C_10
REMARK    5  A    between atoms: N_12  and  C_13
REMARK                            x       y       z     vdW  Elec       q    Type
REMARK                         _______ _______ _______ _____ _____    ______ ____
ROOT
ATOM      1  C   UNL     1       0.575   9.525  20.099  0.00  0.00    +0.000 A 
ATOM      2  C   UNL     1       1.162   8.448  20.757  0.00  0.00    +0.000 A 
ATOM      3  C   UNL     1       2.010   7.584  20.058  0.00  0.00    +0.000 A 
ATOM      4  C   UNL     1       2.293   7.804  18.703  0.00  0.00    +0.000 A 
ATOM      5  C   UNL     1       1.721   8.906  18.051  0.00  0.00    +0.000 A 
ATOM      6  C   UNL     1       0.865   9.768  18.755  0.00  0.00    +0.000 A 
ENDROOT
BRANCH   4   7
ATOM      7  C   UNL     1       3.145   6.800  18.002  0.00  0.00    +0.000 C 
ATOM      8  O   UNL     1       4.126   7.181  17.375  0.00  0.00    +0.000 OA
ATOM      9  N   UNL     1       2.765   5.476  18.088  0.00  0.00    +0.000 N 
ATOM     10  H   UNL     1       1.950   5.225  18.627  0.00  0.00    +0.000 HD
BRANCH   9  11
ATOM     11  C   UNL     1       3.589   4.403  17.530  0.00  0.00    +0.000 C 
ATOM     12  C   UNL     1       4.613   3.907  18.559  0.00  0.00    +0.000 C 
ATOM     13  C   UNL     1       3.950   3.160  19.716  0.00  0.00    +0.000 C 
ATOM     14  C   UNL     1       3.069   2.014  19.224  0.00  0.00    +0.000 C 
ATOM     15  C   UNL     1       2.061   2.466  18.171  0.00  0.00    +0.000 C 
ATOM     16  C   UNL     1       2.727   3.236  17.032  0.00  0.00    +0.000 C 
ENDBRANCH   9  11
ENDBRANCH   4   7
BRANCH   1  17
ATOM     17  N   UNL     1      -0.295  10.392  20.822  0.00  0.00    +0.000 N 
ATOM     18  H   UNL     1      -1.280  10.347  20.553  0.00  0.00    +0.000 HD
BRANCH  17  20
ATOM     19  C   UNL     1      -0.728  12.520  22.415  0.00  0.00    +0.000 C 
ATOM     20  S   UNL     1       0.165  12.013  20.963  0.00  0.00    +0.000 S 
ATOM     21  O   UNL     1      -0.432  12.683  19.823  0.00  0.00    +0.000 OA
ATOM     22  O   UNL     1       1.584  12.099  21.217  0.00  0.00    +0.000 OA
ENDBRANCH  17  20
ENDBRANCH   1  17
TORSDOF 4
ENDMDL
MODEL 7
REMARK VINA RESULT:      -6.6      1.769      2.216
REMARK  Name = 
REMARK  5 active torsions:
REMARK  status: ('A' for Active; 'I' for Inactive)
REMARK    1  A    between atoms: C_1  and  S_2
REMARK    2  A    between atoms: S_2  and  N_5
REMARK    3  A    between atoms: N_5  and  C_6
REMARK    4  A    between atoms: C_9  and  C_10
REMARK    5  A    between atoms: N_12  and  C_13
REMARK                            x       y       z     vdW  Elec       q    Type
REMARK                         _______ _______ _______ _____ _____    ______ ____
ROOT
ATOM      1  C   UNL     1       0.793   9.998  19.552  0.00  0.00    +0.000 A 
ATOM      2  C   UNL     1       1.062   8.945  20.422  0.00  0.00    +0.000 A 
ATOM      3  C   UNL     1       1.834   7.864  19.987  0.00  0.00    +0.000 A 
ATOM      4  C   UNL     1       2.357   7.838  18.687  0.00  0.00    +0.000 A 
ATOM      5  C   UNL     1       2.105   8.913  17.824  0.00  0.00    +0.000 A 
ATOM      6  C   UNL     1       1.326   9.995  18.262  0.00  0.00    +0.000 A 
ENDROOT
BRANCH   4   7
ATOM      7  C   UNL     1       3.107   6.618  18.267  0.00  0.00    +0.000 C 
ATOM      8  O   UNL     1       4.226   6.739  17.785  0.00  0.00    +0.000 OA
ATOM      9  N   UNL     1       2.479   5.400  18.434  0.00  0.00    +0.000 N 
ATOM     10  H   UNL     1       1.558   5.365  18.844  0.00  0.00    +0.000 HD
BRANCH   9  11
ATOM     11  C   UNL     1       3.166   4.138  18.156  0.00  0.00    +0.000 C 
ATOM     12  C   UNL     1       3.832   3.587  19.424  0.00  0.00    +0.000 C 
ATOM     13  C   UNL     1       2.806   3.112  20.452  0.00  0.00    +0.000 C 
ATOM     14  C   UNL     1       1.834   2.095  19.858  0.00  0.00    +0.000 C 
ATOM     15  C   UNL     1       1.179   2.598  18.575  0.00  0.00    +0.000 C 
ATOM     16  C   UNL     1       2.208   3.097  17.563  0.00  0.00    +0.000 C 
ENDBRANCH   9  11
ENDBRANCH   4   7
BRANCH   1  17
ATOM     17  N   UNL     1      -0.003  11.089  20.007  0.00  0.00    +0.000 N 
ATOM     18  H   UNL     1      -0.326  11.022  20.974  0.00  0.00    +0.000 HD
BRANCH  17  20
ATOM     19  C   UNL     1      -2.389  12.323  20.209  0.00  0.00    +0.000 C 
ATOM     20  S   UNL     1      -1.295  11.570  19.026  0.00  0.00    +0.000 S 
ATOM     21  O   UNL     1      -1.914  10.339  18.573  0.00  0.00    +0.000 OA
ATOM     22  O   UNL     1      -0.847  12.569  18.083  0.00  0.00    +0.000 OA
ENDBRANCH  17  20
ENDBRANCH   1  17
TORSDOF 4
ENDMDL
MODEL 8
REMARK VINA RESULT:      -6.5      2.250      3.151
REMARK  Name = 
REMARK  5 active torsions:
REMARK  status: ('A' for Active; 'I' for Inactive)
REMARK    1  A    between atoms: C_1  and  S_2
REMARK    2  A    between atoms: S_2  and  N_5
REMARK    3  A    between atoms: N_5  and  C_6
REMARK    4  A    between atoms: C_9  and  C_10
REMARK    5  A    between atoms: N_12  and  C_13
REMARK                            x       y       z     vdW  Elec       q    Type
REMARK                         _______ _______ _______ _____ _____    ______ ____
ROOT
ATOM      1  C   UNL     1       1.169   9.836  19.297  0.00  0.00    +0.000 A 
ATOM      2  C   UNL     1       1.222   8.894  20.321  0.00  0.00    +0.000 A 
ATOM      3  C   UNL     1       1.833   7.658  20.096  0.00  0.00    +0.000 A 
ATOM      4  C   UNL     1       2.413   7.364  18.855  0.00  0.00    +0.000 A 
ATOM      5  C   UNL     1       2.381   8.325  17.836  0.00  0.00    +0.000 A 
ATOM      6  C   UNL     1       1.762   9.564  18.062  0.00  0.00    +0.000 A 
ENDROOT
BRANCH   4   7
ATOM      7  C   UNL     1       2.980   5.996  18.663  0.00  0.00    +0.000 C 
ATOM      8  O   UNL     1       2.307   5.020  18.969  0.00  0.00    +0.000 OA
ATOM      9  N   UNL     1       4.261   5.908  18.157  0.00  0.00    +0.000 N 
ATOM     10  H   UNL     1       4.762   6.750  17.917  0.00  0.00    +0.000 HD
BRANCH   9  11
ATOM     11  C   UNL     1       4.869   4.618  17.830  0.00  0.00    +0.000 C 
ATOM     12  C   UNL     1       4.677   4.282  16.345  0.00  0.00    +0.000 C 
ATOM     13  C   UNL     1       5.495   5.201  15.438  0.00  0.00    +0.000 C 
ATOM     14  C   UNL     1       6.975   5.200  15.812  0.00  0.00    +0.000 C 
ATOM     15  C   UNL     1       7.201   5.495  17.292  0.00  0.00    +0.000 C 
ATOM     16  C   UNL     1       6.360   4.593  18.193  0.00  0.00    +0.000 C 
ENDBRANCH   9  11
ENDBRANCH   4   7
BRANCH   1  17
ATOM     17  N   UNL     1       0.534  11.090  19.537  0.00  0.00    +0.000 N 
ATOM     18  H   UNL     1       0.722  11.507  20.452  0.00  0.00    +0.000 HD
BRANCH  17  20
ATOM     19  C   UNL     1      -1.176  12.519  18.024  0.00  0.00    +0.000 C 
ATOM     20  S   UNL     1      -1.122  11.197  19.213  0.00  0.00    +0.000 S 
ATOM     21  O   UNL     1      -1.725  11.682  20.440  0.00  0.00    +0.000 OA
ATOM     22  O   UNL     1      -1.579   9.974  18.593  0.00  0.00    +0.000 OA
ENDBRANCH  17  20
ENDBRANCH   1  17
TORSDOF 4
ENDMDL
MODEL 9
REMARK VINA RESULT:      -6.5      1.784      1.951
REMARK  Name = 
REMARK  5 active torsions:
REMARK  status: ('A' for Active; 'I' for Inactive)
REMARK    1  A    between atoms: C_1  and  S_2
REMARK    2  A    between atoms: S_2  and  N_5
REMARK    3  A    between atoms: N_5  and  C_6
REMARK    4  A    between atoms: C_9  and  C_10
REMARK    5  A    between atoms: N_12  and  C_13
REMARK                            x       y       z     vdW  Elec       q    Type
REMARK                         _______ _______ _______ _____ _____    ______ ____
ROOT
ATOM      1  C   UNL     1       0.958  10.216  19.367  0.00  0.00    +0.000 A 
ATOM      2  C   UNL     1       1.502  10.063  18.094  0.00  0.00    +0.000 A 
ATOM      3  C   UNL     1       2.168   8.880  17.761  0.00  0.00    +0.000 A 
ATOM      4  C   UNL     1       2.278   7.837  18.690  0.00  0.00    +0.000 A 
ATOM      5  C   UNL     1       1.706   7.985  19.961  0.00  0.00    +0.000 A 
ATOM      6  C   UNL     1       1.041   9.175  20.295  0.00  0.00    +0.000 A 
ENDROOT
BRANCH   4   7
ATOM      7  C   UNL     1       3.068   6.635  18.291  0.00  0.00    +0.000 C 
ATOM      8  O   UNL     1       4.193   6.785  17.831  0.00  0.00    +0.000 OA
ATOM      9  N   UNL     1       2.470   5.402  18.451  0.00  0.00    +0.000 N 
ATOM     10  H   UNL     1       1.541   5.345  18.842  0.00  0.00    +0.000 HD
BRANCH   9  11
ATOM     11  C   UNL     1       3.195   4.158  18.193  0.00  0.00    +0.000 C 
ATOM     12  C   UNL     1       3.839   3.623  19.478  0.00  0.00    +0.000 C 
ATOM     13  C   UNL     1       2.798   3.122  20.478  0.00  0.00    +0.000 C 
ATOM     14  C   UNL     1       1.867   2.082  19.857  0.00  0.00    +0.000 C 
ATOM     15  C   UNL     1       1.236   2.568  18.556  0.00  0.00    +0.000 C 
ATOM     16  C   UNL     1       2.280   3.094  17.573  0.00  0.00    +0.000 C 
ENDBRANCH   9  11
ENDBRANCH   4   7
BRANCH   1  17
ATOM     17  N   UNL     1       0.289  11.431  19.696  0.00  0.00    +0.000 N 
ATOM     18  H   UNL     1       0.218  11.634  20.695  0.00  0.00    +0.000 HD
BRANCH  17  20
ATOM     19  C   UNL     1      -2.139  12.423  20.308  0.00  0.00    +0.000 C 
ATOM     20  S   UNL     1      -1.211  11.714  18.967  0.00  0.00    +0.000 S 
ATOM     21  O   UNL     1      -1.761  10.399  18.696  0.00  0.00    +0.000 OA
ATOM     22  O   UNL     1      -1.066  12.691  17.913  0.00  0.00    +0.000 OA
ENDBRANCH  17  20
ENDBRANCH   1  17
TORSDOF 4
ENDMDL
