MODEL 1
REMARK VINA RESULT:      -8.5      0.000      0.000
REMARK  Name = 
REMARK  5 active torsions:
REMARK  status: ('A' for Active; 'I' for Inactive)
REMARK    1  A    between atoms: C_1  and  C_2
REMARK    2  A    between atoms: C_2  and  C_20
REMARK    3  A    between atoms: N_3  and  N_4
REMARK    4  A    between atoms: C_5  and  C_7
REMARK    5  A    between atoms: C_8  and  O_9
REMARK                            x       y       z     vdW  Elec       q    Type
REMARK                         _______ _______ _______ _____ _____    ______ ____
ROOT
ATOM      1  C   UNL     1       3.014   5.454  18.927  0.00  0.00    +0.000 C 
ATOM      2  C   UNL     1       3.618   6.087  17.897  0.00  0.00    +0.000 C 
ATOM      3  C   UNL     1       4.494   5.393  16.912  0.00  0.00    +0.000 A 
ATOM      4  C   UNL     1       5.407   6.091  16.112  0.00  0.00    +0.000 A 
ATOM      5  C   UNL     1       6.263   5.415  15.227  0.00  0.00    +0.000 A 
ATOM      6  C   UNL     1       6.219   4.022  15.129  0.00  0.00    +0.000 A 
ATOM      7  C   UNL     1       5.303   3.306  15.896  0.00  0.00    +0.000 A 
ATOM      8  C   UNL     1       4.448   4.003  16.755  0.00  0.00    +0.000 A 
ATOM      9  S   UNL     1       3.282   3.123  17.720  0.00  0.00    +0.000 S 
ATOM     10  O   UNL     1       1.996   3.191  17.075  0.00  0.00    +0.000 OA
ATOM     11  O   UNL     1       3.869   1.866  18.132  0.00  0.00    +0.000 OA
ATOM     12  N   UNL     1       3.216   4.058  19.091  0.00  0.00    +0.000 N 
ATOM     13  H   UNL     1       3.390   3.623  19.993  0.00  0.00    +0.000 HD
ENDROOT
BRANCH   1  15
ATOM     14  N   UNL     1       2.357   7.543  19.886  0.00  0.00    +0.000 N 
ATOM     15  C   UNL     1       2.180   6.167  19.954  0.00  0.00    +0.000 C 
ATOM     16  O   UNL     1       1.480   5.538  20.742  0.00  0.00    +0.000 OA
ATOM     17  H   UNL     1       3.087   7.889  19.281  0.00  0.00    +0.000 HD
BRANCH  14  20
ATOM     18  C   UNL     1       0.788   9.627  18.721  0.00  0.00    +0.000 C 
ATOM     19  C   UNL     1       0.966   9.355  20.207  0.00  0.00    +0.000 C 
ATOM     20  N   UNL     1       1.683   8.389  20.706  0.00  0.00    +0.000 NA
BRANCH  19  21
ATOM     21  C   UNL     1       0.199  10.253  21.147  0.00  0.00    +0.000 A 
ATOM     22  C   UNL     1      -0.472   9.664  22.239  0.00  0.00    +0.000 A 
ATOM     23  C   UNL     1      -1.146  10.445  23.182  0.00  0.00    +0.000 A 
ATOM     24  C   UNL     1      -1.151  11.829  23.059  0.00  0.00    +0.000 A 
ATOM     25  C   UNL     1      -0.510  12.428  21.976  0.00  0.00    +0.000 A 
ATOM     26  C   UNL     1       0.151  11.651  21.012  0.00  0.00    +0.000 A 
ATOM     27 CL   UNL     1       0.800  12.516  19.662  0.00  0.00    +0.000 Cl
ENDBRANCH  19  21
ENDBRANCH  14  20
ENDBRANCH   1  15
BRANCH   2  28
ATOM     28  O   UNL     1       3.519   7.456  17.693  0.00  0.00    +0.000 OA
ATOM     29  H   UNL     1       3.809   7.665  16.776  0.00  0.00    +0.000 HD
ENDBRANCH   2  28
TORSDOF 4
ENDMDL
MODEL 2
REMARK VINA RESULT:      -8.4      4.018      9.090
REMARK  Name = 
REMARK  5 active torsions:
REMARK  status: ('A' for Active; 'I' for Inactive)
REMARK    1  A    between atoms: C_1  and  C_2
REMARK    2  A    between atoms: C_2  and  C_20
REMARK    3  A    between atoms: N_3  and  N_4
REMARK    4  A    between atoms: C_5  and  C_7
REMARK    5  A    between atoms: C_8  and  O_9
REMARK                            x       y       z     vdW  Elec       q    Type
REMARK                         _______ _______ _______ _____ _____    ______ ____
ROOT
ATOM      1  C   UNL     1       0.367  10.487  19.338  0.00  0.00    +0.000 C 
ATOM      2  C   UNL     1      -0.668  11.225  18.880  0.00  0.00    +0.000 C 
ATOM      3  C   UNL     1      -1.730  11.782  19.764  0.00  0.00    +0.000 A 
ATOM      4  C   UNL     1      -2.972  12.191  19.263  0.00  0.00    +0.000 A 
ATOM      5  C   UNL     1      -3.980  12.663  20.120  0.00  0.00    +0.000 A 
ATOM      6  C   UNL     1      -3.761  12.733  21.497  0.00  0.00    +0.000 A 
ATOM      7  C   UNL     1      -2.526  12.355  22.018  0.00  0.00    +0.000 A 
ATOM      8  C   UNL     1      -1.531  11.906  21.144  0.00  0.00    +0.000 A 
ATOM      9  S   UNL     1       0.032  11.437  21.777  0.00  0.00    +0.000 S 
ATOM     10  O   UNL     1       0.957  12.527  21.592  0.00  0.00    +0.000 OA
ATOM     11  O   UNL     1      -0.156  10.799  23.062  0.00  0.00    +0.000 OA
ATOM     12  N   UNL     1       0.460  10.221  20.730  0.00  0.00    +0.000 N 
ATOM     13  H   UNL     1       0.705   9.310  21.107  0.00  0.00    +0.000 HD
ENDROOT
BRANCH   1  15
ATOM     14  N   UNL     1       1.689   8.569  18.805  0.00  0.00    +0.000 N 
ATOM     15  C   UNL     1       1.403   9.877  18.437  0.00  0.00    +0.000 C 
ATOM     16  O   UNL     1       1.911  10.530  17.530  0.00  0.00    +0.000 OA
ATOM     17  H   UNL     1       1.296   8.231  19.670  0.00  0.00    +0.000 HD
BRANCH  14  20
ATOM     18  C   UNL     1       2.494   6.053  19.894  0.00  0.00    +0.000 C 
ATOM     19  C   UNL     1       2.976   6.665  18.587  0.00  0.00    +0.000 C 
ATOM     20  N   UNL     1       2.581   7.813  18.115  0.00  0.00    +0.000 NA
BRANCH  19  21
ATOM     21  C   UNL     1       3.938   5.834  17.774  0.00  0.00    +0.000 A 
ATOM     22  C   UNL     1       5.204   6.379  17.473  0.00  0.00    +0.000 A 
ATOM     23  C   UNL     1       6.165   5.636  16.781  0.00  0.00    +0.000 A 
ATOM     24  C   UNL     1       5.884   4.334  16.388  0.00  0.00    +0.000 A 
ATOM     25  C   UNL     1       4.632   3.787  16.659  0.00  0.00    +0.000 A 
ATOM     26  C   UNL     1       3.653   4.530  17.336  0.00  0.00    +0.000 A 
ATOM     27 CL   UNL     1       2.108   3.771  17.500  0.00  0.00    +0.000 Cl
ENDBRANCH  19  21
ENDBRANCH  14  20
ENDBRANCH   1  15
BRANCH   2  28
ATOM     28  O   UNL     1      -0.866  11.488  17.532  0.00  0.00    +0.000 OA
ATOM     29  H   UNL     1      -1.638  10.967  17.214  0.00  0.00    +0.000 HD
ENDBRANCH   2  28
TORSDOF 4
ENDMDL
MODEL 3
REMARK VINA RESULT:      -8.4      3.557      8.833
REMARK  Name = 
REMARK  5 active torsions:
REMARK  status: ('A' for Active; 'I' for Inactive)
REMARK    1  A    between atoms: C_1  and  C_2
REMARK    2  A    between atoms: C_2  and  C_20
REMARK    3  A    between atoms: N_3  and  N_4
REMARK    4  A    between atoms: C_5  and  C_7
REMARK    5  A    between atoms: C_8  and  O_9
REMARK                            x       y       z     vdW  Elec       q    Type
REMARK                         _______ _______ _______ _____ _____    ______ ____
ROOT
ATOM      1  C   UNL     1       0.957   9.834  19.586  0.00  0.00    +0.000 C 
ATOM      2  C   UNL     1       0.707  11.149  19.767  0.00  0.00    +0.000 C 
ATOM      3  C   UNL     1      -0.184  11.672  20.840  0.00  0.00    +0.000 A 
ATOM      4  C   UNL     1      -0.741  12.957  20.781  0.00  0.00    +0.000 A 
ATOM      5  C   UNL     1      -1.622  13.412  21.775  0.00  0.00    +0.000 A 
ATOM      6  C   UNL     1      -1.962  12.587  22.849  0.00  0.00    +0.000 A 
ATOM      7  C   UNL     1      -1.403  11.315  22.944  0.00  0.00    +0.000 A 
ATOM      8  C   UNL     1      -0.514  10.890  21.953  0.00  0.00    +0.000 A 
ATOM      9  S   UNL     1       0.208   9.299  22.059  0.00  0.00    +0.000 S 
ATOM     10  O   UNL     1       1.538   9.425  22.599  0.00  0.00    +0.000 OA
ATOM     11  O   UNL     1      -0.762   8.381  22.614  0.00  0.00    +0.000 OA
ATOM     12  N   UNL     1       0.346   8.892  20.455  0.00  0.00    +0.000 N 
ATOM     13  H   UNL     1      -0.068   8.023  20.130  0.00  0.00    +0.000 HD
ENDROOT
BRANCH   1  15
ATOM     14  N   UNL     1       2.347   8.066  18.779  0.00  0.00    +0.000 N 
ATOM     15  C   UNL     1       1.808   9.306  18.465  0.00  0.00    +0.000 C 
ATOM     16  O   UNL     1       1.983   9.965  17.445  0.00  0.00    +0.000 OA
ATOM     17  H   UNL     1       2.229   7.731  19.723  0.00  0.00    +0.000 HD
BRANCH  14  20
ATOM     18  C   UNL     1       3.632   5.668  19.653  0.00  0.00    +0.000 C 
ATOM     19  C   UNL     1       3.739   6.296  18.271  0.00  0.00    +0.000 C 
ATOM     20  N   UNL     1       3.132   7.388  17.902  0.00  0.00    +0.000 NA
BRANCH  19  21
ATOM     21  C   UNL     1       4.571   5.547  17.259  0.00  0.00    +0.000 A 
ATOM     22  C   UNL     1       5.756   6.151  16.789  0.00  0.00    +0.000 A 
ATOM     23  C   UNL     1       6.606   5.483  15.901  0.00  0.00    +0.000 A 
ATOM     24  C   UNL     1       6.293   4.198  15.478  0.00  0.00    +0.000 A 
ATOM     25  C   UNL     1       5.117   3.594  15.916  0.00  0.00    +0.000 A 
ATOM     26  C   UNL     1       4.247   4.263  16.791  0.00  0.00    +0.000 A 
ATOM     27 CL   UNL     1       2.769   3.444  17.158  0.00  0.00    +0.000 Cl
ENDBRANCH  19  21
ENDBRANCH  14  20
ENDBRANCH   1  15
BRANCH   2  28
ATOM     28  O   UNL     1       1.218  12.134  18.932  0.00  0.00    +0.000 OA
ATOM     29  H   UNL     1       2.171  11.948  18.765  0.00  0.00    +0.000 HD
ENDBRANCH   2  28
TORSDOF 4
ENDMDL
MODEL 4
REMARK VINA RESULT:      -8.3      1.498      1.738
REMARK  Name = 
REMARK  5 active torsions:
REMARK  status: ('A' for Active; 'I' for Inactive)
REMARK    1  A    between atoms: C_1  and  C_2
REMARK    2  A    between atoms: C_2  and  C_20
REMARK    3  A    between atoms: N_3  and  N_4
REMARK    4  A    between atoms: C_5  and  C_7
REMARK    5  A    between atoms: C_8  and  O_9
REMARK                            x       y       z     vdW  Elec       q    Type
REMARK                         _______ _______ _______ _____ _____    ______ ____
ROOT
ATOM      1  C   UNL     1       2.913   6.141  19.466  0.00  0.00    +0.000 C 
ATOM      2  C   UNL     1       3.194   6.551  18.210  0.00  0.00    +0.000 C 
ATOM      3  C   UNL     1       4.246   5.925  17.361  0.00  0.00    +0.000 A 
ATOM      4  C   UNL     1       4.791   6.582  16.251  0.00  0.00    +0.000 A 
ATOM      5  C   UNL     1       5.821   5.999  15.495  0.00  0.00    +0.000 A 
ATOM      6  C   UNL     1       6.323   4.742  15.838  0.00  0.00    +0.000 A 
ATOM      7  C   UNL     1       5.782   4.056  16.924  0.00  0.00    +0.000 A 
ATOM      8  C   UNL     1       4.745   4.649  17.650  0.00  0.00    +0.000 A 
ATOM      9  S   UNL     1       4.043   3.800  19.010  0.00  0.00    +0.000 S 
ATOM     10  O   UNL     1       2.816   3.174  18.586  0.00  0.00    +0.000 OA
ATOM     11  O   UNL     1       5.085   3.063  19.691  0.00  0.00    +0.000 OA
ATOM     12  N   UNL     1       3.651   5.060  20.018  0.00  0.00    +0.000 N 
ATOM     13  H   UNL     1       4.005   5.057  20.971  0.00  0.00    +0.000 HD
ENDROOT
BRANCH   1  15
ATOM     14  N   UNL     1       2.019   8.195  20.299  0.00  0.00    +0.000 N 
ATOM     15  C   UNL     1       1.893   6.813  20.342  0.00  0.00    +0.000 C 
ATOM     16  O   UNL     1       1.103   6.152  21.008  0.00  0.00    +0.000 OA
ATOM     17  H   UNL     1       2.822   8.576  19.819  0.00  0.00    +0.000 HD
BRANCH  14  20
ATOM     18  C   UNL     1       0.414  10.073  18.863  0.00  0.00    +0.000 C 
ATOM     19  C   UNL     1       0.446   9.882  20.372  0.00  0.00    +0.000 C 
ATOM     20  N   UNL     1       1.185   9.009  20.995  0.00  0.00    +0.000 NA
BRANCH  19  21
ATOM     21  C   UNL     1      -0.498  10.743  21.175  0.00  0.00    +0.000 A 
ATOM     22  C   UNL     1      -1.202  11.767  20.507  0.00  0.00    +0.000 A 
ATOM     23  C   UNL     1      -2.140  12.558  21.179  0.00  0.00    +0.000 A 
ATOM     24  C   UNL     1      -2.400  12.331  22.524  0.00  0.00    +0.000 A 
ATOM     25  C   UNL     1      -1.700  11.337  23.205  0.00  0.00    +0.000 A 
ATOM     26  C   UNL     1      -0.742  10.552  22.545  0.00  0.00    +0.000 A 
ATOM     27 CL   UNL     1       0.133   9.438  23.537  0.00  0.00    +0.000 Cl
ENDBRANCH  19  21
ENDBRANCH  14  20
ENDBRANCH   1  15
BRANCH   2  28
ATOM     28  O   UNL     1       2.561   7.632  17.613  0.00  0.00    +0.000 OA
ATOM     29  H   UNL     1       1.604   7.423  17.506  0.00  0.00    +0.000 HD
ENDBRANCH   2  28
TORSDOF 4
ENDMDL
MODEL 5
REMARK VINA RESULT:      -8.2      3.385      8.715
REMARK  Name = 
REMARK  5 active torsions:
REMARK  status: ('A' for Active; 'I' for Inactive)
REMARK    1  A    between atoms: C_1  and  C_2
REMARK    2  A    between atoms: C_2  and  C_20
REMARK    3  A    between atoms: N_3  and  N_4
REMARK    4  A    between atoms: C_5  and  C_7
REMARK    5  A    between atoms: C_8  and  O_9
REMARK                            x       y       z     vdW  Elec       q    Type
REMARK                         _______ _______ _______ _____ _____    ______ ____
ROOT
ATOM      1  C   UNL     1       1.043   9.782  19.534  0.00  0.00    +0.000 C 
ATOM      2  C   UNL     1       0.785  11.097  19.713  0.00  0.00    +0.000 C 
ATOM      3  C   UNL     1      -0.121  11.614  20.776  0.00  0.00    +0.000 A 
ATOM      4  C   UNL     1      -0.683  12.896  20.711  0.00  0.00    +0.000 A 
ATOM      5  C   UNL     1      -1.578  13.347  21.694  0.00  0.00    +0.000 A 
ATOM      6  C   UNL     1      -1.927  12.520  22.765  0.00  0.00    +0.000 A 
ATOM      7  C   UNL     1      -1.363  11.250  22.865  0.00  0.00    +0.000 A 
ATOM      8  C   UNL     1      -0.460  10.830  21.884  0.00  0.00    +0.000 A 
ATOM      9  S   UNL     1       0.268   9.243  21.998  0.00  0.00    +0.000 S 
ATOM     10  O   UNL     1       1.591   9.375  22.555  0.00  0.00    +0.000 OA
ATOM     11  O   UNL     1      -0.704   8.319  22.542  0.00  0.00    +0.000 OA
ATOM     12  N   UNL     1       0.427   8.837  20.396  0.00  0.00    +0.000 N 
ATOM     13  H   UNL     1       0.021   7.966  20.066  0.00  0.00    +0.000 HD
ENDROOT
BRANCH   1  15
ATOM     14  N   UNL     1       2.457   8.024  18.746  0.00  0.00    +0.000 N 
ATOM     15  C   UNL     1       1.910   9.259  18.424  0.00  0.00    +0.000 C 
ATOM     16  O   UNL     1       2.090   9.917  17.404  0.00  0.00    +0.000 OA
ATOM     17  H   UNL     1       2.332   7.691  19.690  0.00  0.00    +0.000 HD
BRANCH  14  20
ATOM     18  C   UNL     1       3.765   5.647  19.642  0.00  0.00    +0.000 C 
ATOM     19  C   UNL     1       3.873   6.269  18.258  0.00  0.00    +0.000 C 
ATOM     20  N   UNL     1       3.255   7.351  17.879  0.00  0.00    +0.000 NA
BRANCH  19  21
ATOM     21  C   UNL     1       4.722   5.525  17.256  0.00  0.00    +0.000 A 
ATOM     22  C   UNL     1       4.249   4.291  16.762  0.00  0.00    +0.000 A 
ATOM     23  C   UNL     1       4.956   3.584  15.785  0.00  0.00    +0.000 A 
ATOM     24  C   UNL     1       6.139   4.101  15.275  0.00  0.00    +0.000 A 
ATOM     25  C   UNL     1       6.632   5.309  15.765  0.00  0.00    +0.000 A 
ATOM     26  C   UNL     1       5.941   6.017  16.760  0.00  0.00    +0.000 A 
ATOM     27 CL   UNL     1       6.726   7.437  17.359  0.00  0.00    +0.000 Cl
ENDBRANCH  19  21
ENDBRANCH  14  20
ENDBRANCH   1  15
BRANCH   2  28
ATOM     28  O   UNL     1       1.301  12.084  18.885  0.00  0.00    +0.000 OA
ATOM     29  H   UNL     1       0.764  12.902  18.990  0.00  0.00    +0.000 HD
ENDBRANCH   2  28
TORSDOF 4
ENDMDL
MODEL 6
REMARK VINA RESULT:      -8.1      4.322      9.244
REMARK  Name = 
REMARK  5 active torsions:
REMARK  status: ('A' for Active; 'I' for Inactive)
REMARK    1  A    between atoms: C_1  and  C_2
REMARK    2  A    between atoms: C_2  and  C_20
REMARK    3  A    between atoms: N_3  and  N_4
REMARK    4  A    between atoms: C_5  and  C_7
REMARK    5  A    between atoms: C_8  and  O_9
REMARK                            x       y       z     vdW  Elec       q    Type
REMARK                         _______ _______ _______ _____ _____    ______ ____
ROOT
ATOM      1  C   UNL     1       0.658  11.154  18.977  0.00  0.00    +0.000 C 
ATOM      2  C   UNL     1      -0.624  11.290  18.573  0.00  0.00    +0.000 C 
ATOM      3  C   UNL     1      -1.643  12.066  19.332  0.00  0.00    +0.000 A 
ATOM      4  C   UNL     1      -3.017  11.882  19.131  0.00  0.00    +0.000 A 
ATOM      5  C   UNL     1      -3.963  12.584  19.895  0.00  0.00    +0.000 A 
ATOM      6  C   UNL     1      -3.549  13.487  20.877  0.00  0.00    +0.000 A 
ATOM      7  C   UNL     1      -2.188  13.706  21.080  0.00  0.00    +0.000 A 
ATOM      8  C   UNL     1      -1.265  13.010  20.295  0.00  0.00    +0.000 A 
ATOM      9  S   UNL     1       0.449  13.279  20.526  0.00  0.00    +0.000 S 
ATOM     10  O   UNL     1       0.919  14.192  19.514  0.00  0.00    +0.000 OA
ATOM     11  O   UNL     1       0.703  13.498  21.933  0.00  0.00    +0.000 OA
ATOM     12  N   UNL     1       1.068  11.776  20.185  0.00  0.00    +0.000 N 
ATOM     13  H   UNL     1       1.659  11.320  20.874  0.00  0.00    +0.000 HD
ENDROOT
BRANCH   1  15
ATOM     14  N   UNL     1       1.454   8.963  18.447  0.00  0.00    +0.000 N 
ATOM     15  C   UNL     1       1.668  10.320  18.240  0.00  0.00    +0.000 C 
ATOM     16  O   UNL     1       2.562  10.848  17.586  0.00  0.00    +0.000 OA
ATOM     17  H   UNL     1       0.769   8.699  19.138  0.00  0.00    +0.000 HD
BRANCH  14  20
ATOM     18  C   UNL     1       2.210   6.660  19.959  0.00  0.00    +0.000 C 
ATOM     19  C   UNL     1       2.604   6.964  18.522  0.00  0.00    +0.000 C 
ATOM     20  N   UNL     1       2.235   8.022  17.857  0.00  0.00    +0.000 NA
BRANCH  19  21
ATOM     21  C   UNL     1       3.439   5.919  17.823  0.00  0.00    +0.000 A 
ATOM     22  C   UNL     1       4.713   6.290  17.344  0.00  0.00    +0.000 A 
ATOM     23  C   UNL     1       5.562   5.354  16.746  0.00  0.00    +0.000 A 
ATOM     24  C   UNL     1       5.160   4.030  16.627  0.00  0.00    +0.000 A 
ATOM     25  C   UNL     1       3.897   3.649  17.077  0.00  0.00    +0.000 A 
ATOM     26  C   UNL     1       3.029   4.585  17.660  0.00  0.00    +0.000 A 
ATOM     27 CL   UNL     1       1.452   4.001  18.064  0.00  0.00    +0.000 Cl
ENDBRANCH  19  21
ENDBRANCH  14  20
ENDBRANCH   1  15
BRANCH   2  28
ATOM     28  O   UNL     1      -1.123  10.671  17.435  0.00  0.00    +0.000 OA
ATOM     29  H   UNL     1      -1.924  10.152  17.678  0.00  0.00    +0.000 HD
ENDBRANCH   2  28
TORSDOF 4
ENDMDL
MODEL 7
REMARK VINA RESULT:      -8.1      4.228      9.212
REMARK  Name = 
REMARK  5 active torsions:
REMARK  status: ('A' for Active; 'I' for Inactive)
REMARK    1  A    between atoms: C_1  and  C_2
REMARK    2  A    between atoms: C_2  and  C_20
REMARK    3  A    between atoms: N_3  and  N_4
REMARK    4  A    between atoms: C_5  and  C_7
REMARK    5  A    between atoms: C_8  and  O_9
REMARK                            x       y       z     vdW  Elec       q    Type
REMARK                         _______ _______ _______ _____ _____    ______ ____
ROOT
ATOM      1  C   UNL     1       0.239  10.660  21.534  0.00  0.00    +0.000 C 
ATOM      2  C   UNL     1      -0.797  10.938  22.355  0.00  0.00    +0.000 C 
ATOM      3  C   UNL     1      -1.629  12.167  22.235  0.00  0.00    +0.000 A 
ATOM      4  C   UNL     1      -2.419  12.633  23.293  0.00  0.00    +0.000 A 
ATOM      5  C   UNL     1      -3.155  13.824  23.180  0.00  0.00    +0.000 A 
ATOM      6  C   UNL     1      -3.112  14.571  22.001  0.00  0.00    +0.000 A 
ATOM      7  C   UNL     1      -2.353  14.117  20.925  0.00  0.00    +0.000 A 
ATOM      8  C   UNL     1      -1.644  12.919  21.054  0.00  0.00    +0.000 A 
ATOM      9  S   UNL     1      -0.693  12.324  19.711  0.00  0.00    +0.000 S 
ATOM     10  O   UNL     1      -1.446  11.309  19.019  0.00  0.00    +0.000 OA
ATOM     11  O   UNL     1      -0.107  13.451  19.017  0.00  0.00    +0.000 OA
ATOM     12  N   UNL     1       0.563  11.579  20.501  0.00  0.00    +0.000 N 
ATOM     13  H   UNL     1       1.516  11.849  20.274  0.00  0.00    +0.000 HD
ENDROOT
BRANCH   1  15
ATOM     14  N   UNL     1       1.025   8.608  20.594  0.00  0.00    +0.000 N 
ATOM     15  C   UNL     1       1.115   9.449  21.695  0.00  0.00    +0.000 C 
ATOM     16  O   UNL     1       1.770   9.279  22.718  0.00  0.00    +0.000 OA
ATOM     17  H   UNL     1       0.321   8.818  19.903  0.00  0.00    +0.000 HD
BRANCH  14  20
ATOM     18  C   UNL     1       2.207   7.905  18.089  0.00  0.00    +0.000 C 
ATOM     19  C   UNL     1       2.294   7.109  19.383  0.00  0.00    +0.000 C 
ATOM     20  N   UNL     1       1.749   7.463  20.512  0.00  0.00    +0.000 NA
BRANCH  19  21
ATOM     21  C   UNL     1       3.125   5.849  19.337  0.00  0.00    +0.000 A 
ATOM     22  C   UNL     1       4.444   5.935  18.847  0.00  0.00    +0.000 A 
ATOM     23  C   UNL     1       5.287   4.819  18.839  0.00  0.00    +0.000 A 
ATOM     24  C   UNL     1       4.832   3.603  19.332  0.00  0.00    +0.000 A 
ATOM     25  C   UNL     1       3.524   3.495  19.802  0.00  0.00    +0.000 A 
ATOM     26  C   UNL     1       2.664   4.603  19.795  0.00  0.00    +0.000 A 
ATOM     27 CL   UNL     1       1.037   4.298  20.295  0.00  0.00    +0.000 Cl
ENDBRANCH  19  21
ENDBRANCH  14  20
ENDBRANCH   1  15
BRANCH   2  28
ATOM     28  O   UNL     1      -1.149  10.124  23.423  0.00  0.00    +0.000 OA
ATOM     29  H   UNL     1      -0.647   9.279  23.360  0.00  0.00    +0.000 HD
ENDBRANCH   2  28
TORSDOF 4
ENDMDL
MODEL 8
REMARK VINA RESULT:      -8.0      3.861      8.927
REMARK  Name = 
REMARK  5 active torsions:
REMARK  status: ('A' for Active; 'I' for Inactive)
REMARK    1  A    between atoms: C_1  and  C_2
REMARK    2  A    between atoms: C_2  and  C_20
REMARK    3  A    between atoms: N_3  and  N_4
REMARK    4  A    between atoms: C_5  and  C_7
REMARK    5  A    between atoms: C_8  and  O_9
REMARK                            x       y       z     vdW  Elec       q    Type
REMARK                         _______ _______ _______ _____ _____    ______ ____
ROOT
ATOM      1  C   UNL     1       1.086  10.549  19.308  0.00  0.00    +0.000 C 
ATOM      2  C   UNL     1       0.166  10.428  20.290  0.00  0.00    +0.000 C 
ATOM      3  C   UNL     1      -0.301  11.574  21.119  0.00  0.00    +0.000 A 
ATOM      4  C   UNL     1      -0.932  11.385  22.356  0.00  0.00    +0.000 A 
ATOM      5  C   UNL     1      -1.316  12.479  23.148  0.00  0.00    +0.000 A 
ATOM      6  C   UNL     1      -1.075  13.785  22.715  0.00  0.00    +0.000 A 
ATOM      7  C   UNL     1      -0.470  13.999  21.479  0.00  0.00    +0.000 A 
ATOM      8  C   UNL     1      -0.114  12.895  20.699  0.00  0.00    +0.000 A 
ATOM      9  S   UNL     1       0.636  13.143  19.137  0.00  0.00    +0.000 S 
ATOM     10  O   UNL     1      -0.366  13.007  18.110  0.00  0.00    +0.000 OA
ATOM     11  O   UNL     1       1.505  14.297  19.213  0.00  0.00    +0.000 OA
ATOM     12  N   UNL     1       1.644  11.827  19.043  0.00  0.00    +0.000 N 
ATOM     13  H   UNL     1       2.635  11.976  18.870  0.00  0.00    +0.000 HD
ENDROOT
BRANCH   1  15
ATOM     14  N   UNL     1       1.906   8.304  19.335  0.00  0.00    +0.000 N 
ATOM     15  C   UNL     1       1.599   9.380  18.514  0.00  0.00    +0.000 C 
ATOM     16  O   UNL     1       1.733   9.458  17.297  0.00  0.00    +0.000 OA
ATOM     17  H   UNL     1       1.884   8.457  20.332  0.00  0.00    +0.000 HD
BRANCH  14  20
ATOM     18  C   UNL     1       1.602   5.925  20.888  0.00  0.00    +0.000 C 
ATOM     19  C   UNL     1       2.250   6.029  19.515  0.00  0.00    +0.000 C 
ATOM     20  N   UNL     1       2.365   7.131  18.830  0.00  0.00    +0.000 NA
BRANCH  19  21
ATOM     21  C   UNL     1       2.736   4.737  18.906  0.00  0.00    +0.000 A 
ATOM     22  C   UNL     1       1.776   3.805  18.458  0.00  0.00    +0.000 A 
ATOM     23  C   UNL     1       2.160   2.618  17.826  0.00  0.00    +0.000 A 
ATOM     24  C   UNL     1       3.506   2.348  17.619  0.00  0.00    +0.000 A 
ATOM     25  C   UNL     1       4.469   3.247  18.072  0.00  0.00    +0.000 A 
ATOM     26  C   UNL     1       4.096   4.431  18.727  0.00  0.00    +0.000 A 
ATOM     27 CL   UNL     1       5.393   5.395  19.340  0.00  0.00    +0.000 Cl
ENDBRANCH  19  21
ENDBRANCH  14  20
ENDBRANCH   1  15
BRANCH   2  28
ATOM     28  O   UNL     1      -0.392   9.209  20.652  0.00  0.00    +0.000 OA
ATOM     29  H   UNL     1      -0.869   8.833  19.877  0.00  0.00    +0.000 HD
ENDBRANCH   2  28
TORSDOF 4
ENDMDL
MODEL 9
REMARK VINA RESULT:      -8.0      4.292      8.816
REMARK  Name = 
REMARK  5 active torsions:
REMARK  status: ('A' for Active; 'I' for Inactive)
REMARK    1  A    between atoms: C_1  and  C_2
REMARK    2  A    between atoms: C_2  and  C_20
REMARK    3  A    between atoms: N_3  and  N_4
REMARK    4  A    between atoms: C_5  and  C_7
REMARK    5  A    between atoms: C_8  and  O_9
REMARK                            x       y       z     vdW  Elec       q    Type
REMARK                         _______ _______ _______ _____ _____    ______ ____
ROOT
ATOM      1  C   UNL     1       0.612  11.373  18.760  0.00  0.00    +0.000 C 
ATOM      2  C   UNL     1       1.481  12.371  18.489  0.00  0.00    +0.000 C 
ATOM      3  C   UNL     1       1.340  13.749  19.035  0.00  0.00    +0.000 A 
ATOM      4  C   UNL     1       1.991  14.846  18.456  0.00  0.00    +0.000 A 
ATOM      5  C   UNL     1       1.802  16.147  18.951  0.00  0.00    +0.000 A 
ATOM      6  C   UNL     1       0.956  16.372  20.039  0.00  0.00    +0.000 A 
ATOM      7  C   UNL     1       0.316  15.296  20.648  0.00  0.00    +0.000 A 
ATOM      8  C   UNL     1       0.534  14.008  20.150  0.00  0.00    +0.000 A 
ATOM      9  S   UNL     1      -0.252  12.640  20.908  0.00  0.00    +0.000 S 
ATOM     10  O   UNL     1       0.685  11.995  21.793  0.00  0.00    +0.000 OA
ATOM     11  O   UNL     1      -1.571  13.041  21.347  0.00  0.00    +0.000 OA
ATOM     12  N   UNL     1      -0.497  11.638  19.606  0.00  0.00    +0.000 N 
ATOM     13  H   UNL     1      -1.437  11.303  19.412  0.00  0.00    +0.000 HD
ENDROOT
BRANCH   1  15
ATOM     14  N   UNL     1       2.010   9.492  18.290  0.00  0.00    +0.000 N 
ATOM     15  C   UNL     1       0.724   9.999  18.160  0.00  0.00    +0.000 C 
ATOM     16  O   UNL     1      -0.239   9.474  17.610  0.00  0.00    +0.000 OA
ATOM     17  H   UNL     1       2.725  10.116  18.632  0.00  0.00    +0.000 HD
BRANCH  14  20
ATOM     18  C   UNL     1       2.141   7.338  20.163  0.00  0.00    +0.000 C 
ATOM     19  C   UNL     1       2.413   7.251  18.668  0.00  0.00    +0.000 C 
ATOM     20  N   UNL     1       2.336   8.254  17.839  0.00  0.00    +0.000 NA
BRANCH  19  21
ATOM     21  C   UNL     1       2.739   5.881  18.126  0.00  0.00    +0.000 A 
ATOM     22  C   UNL     1       1.759   4.872  18.222  0.00  0.00    +0.000 A 
ATOM     23  C   UNL     1       1.974   3.600  17.682  0.00  0.00    +0.000 A 
ATOM     24  C   UNL     1       3.165   3.318  17.026  0.00  0.00    +0.000 A 
ATOM     25  C   UNL     1       4.154   4.297  16.940  0.00  0.00    +0.000 A 
ATOM     26  C   UNL     1       3.956   5.570  17.497  0.00  0.00    +0.000 A 
ATOM     27 CL   UNL     1       5.309   6.645  17.420  0.00  0.00    +0.000 Cl
ENDBRANCH  19  21
ENDBRANCH  14  20
ENDBRANCH   1  15
BRANCH   2  28
ATOM     28  O   UNL     1       2.561  12.215  17.631  0.00  0.00    +0.000 OA
ATOM     29  H   UNL     1       2.881  13.104  17.355  0.00  0.00    +0.000 HD
ENDBRANCH   2  28
TORSDOF 4
ENDMDL
