MODEL 1
REMARK VINA RESULT:      -4.8      0.000      0.000
REMARK  Name = 
REMARK  7 active torsions:
REMARK  status: ('A' for Active; 'I' for Inactive)
REMARK    1  A    between atoms: C_1  and  C_2
REMARK    2  A    between atoms: C_2  and  S_4
REMARK    3  A    between atoms: S_4  and  C_5
REMARK    4  A    between atoms: C_5  and  C_6
REMARK    5  A    between atoms: C_6  and  N_7
REMARK    6  A    between atoms: C_8  and  C_10
REMARK    7  A    between atoms: C_10  and  N_11
REMARK                            x       y       z     vdW  Elec       q    Type
REMARK                         _______ _______ _______ _____ _____    ______ ____
ROOT
ATOM      1  N   UNL     1       5.506   3.494  19.256  0.00  0.00    +0.000 N 
ATOM      2  C   UNL     1       5.504   4.871  19.298  0.00  0.00    +0.000 C 
ATOM      3  O   UNL     1       4.502   5.536  19.538  0.00  0.00    +0.000 OA
ATOM      4  H   UNL     1       6.396   3.060  19.020  0.00  0.00    +0.000 HD
ENDROOT
BRANCH   1   5
ATOM      5  C   UNL     1       4.324   2.707  19.527  0.00  0.00    +0.000 C 
BRANCH   5   6
ATOM      6  C   UNL     1       3.622   2.236  18.250  0.00  0.00    +0.000 C 
BRANCH   6   7
ATOM      7  S   UNL     1       1.827   2.165  18.561  0.00  0.00    +0.000 S 
BRANCH   7   9
ATOM      8  C   UNL     1       0.968   4.139  20.264  0.00  0.00    +0.000 C 
ATOM      9  C   UNL     1       1.506   3.863  18.889  0.00  0.00    +0.000 C 
ATOM     10  O   UNL     1       1.613   4.712  18.014  0.00  0.00    +0.000 OA
ENDBRANCH   7   9
ENDBRANCH   6   7
ENDBRANCH   5   6
ENDBRANCH   1   5
BRANCH   2  11
ATOM     11  C   UNL     1       6.859   5.504  18.965  0.00  0.00    +0.000 C 
BRANCH  11  12
ATOM     12  N   UNL     1       7.761   5.481  20.137  0.00  0.00    +0.000 NA
ATOM     13  H   UNL     1       7.329   6.034  20.878  0.00  0.00    +0.000 HD
ATOM     14  H   UNL     1       8.611   5.991  19.885  0.00  0.00    +0.000 HD
ENDBRANCH  11  12
ENDBRANCH   2  11
TORSDOF 6
ENDMDL
MODEL 2
REMARK VINA RESULT:      -4.8      1.106      1.106
REMARK  Name = 
REMARK  7 active torsions:
REMARK  status: ('A' for Active; 'I' for Inactive)
REMARK    1  A    between atoms: C_1  and  C_2
REMARK    2  A    between atoms: C_2  and  S_4
REMARK    3  A    between atoms: S_4  and  C_5
REMARK    4  A    between atoms: C_5  and  C_6
REMARK    5  A    between atoms: C_6  and  N_7
REMARK    6  A    between atoms: C_8  and  C_10
REMARK    7  A    between atoms: C_10  and  N_11
REMARK                            x       y       z     vdW  Elec       q    Type
REMARK                         _______ _______ _______ _____ _____    ______ ____
ROOT
ATOM      1  N   UNL     1       5.629   3.655  19.174  0.00  0.00    +0.000 N 
ATOM      2  C   UNL     1       5.715   5.025  19.285  0.00  0.00    +0.000 C 
ATOM      3  O   UNL     1       4.747   5.745  19.504  0.00  0.00    +0.000 OA
ATOM      4  H   UNL     1       6.501   3.172  18.965  0.00  0.00    +0.000 HD
ENDROOT
BRANCH   1   5
ATOM      5  C   UNL     1       4.385   2.939  19.342  0.00  0.00    +0.000 C 
BRANCH   5   6
ATOM      6  C   UNL     1       3.678   2.662  18.012  0.00  0.00    +0.000 C 
BRANCH   6   7
ATOM      7  S   UNL     1       2.311   3.852  17.817  0.00  0.00    +0.000 S 
BRANCH   7   9
ATOM      8  C   UNL     1       0.949   3.937  20.198  0.00  0.00    +0.000 C 
ATOM      9  C   UNL     1       1.138   3.158  18.928  0.00  0.00    +0.000 C 
ATOM     10  O   UNL     1       0.620   2.071  18.711  0.00  0.00    +0.000 OA
ENDBRANCH   7   9
ENDBRANCH   6   7
ENDBRANCH   5   6
ENDBRANCH   1   5
BRANCH   2  11
ATOM     11  C   UNL     1       7.126   5.578  19.056  0.00  0.00    +0.000 C 
BRANCH  11  12
ATOM     12  N   UNL     1       7.950   5.459  20.279  0.00  0.00    +0.000 NA
ATOM     13  H   UNL     1       8.932   5.526  20.004  0.00  0.00    +0.000 HD
ATOM     14  H   UNL     1       7.839   4.508  20.637  0.00  0.00    +0.000 HD
ENDBRANCH  11  12
ENDBRANCH   2  11
TORSDOF 6
ENDMDL
MODEL 3
REMARK VINA RESULT:      -4.6      1.880      1.992
REMARK  Name = 
REMARK  7 active torsions:
REMARK  status: ('A' for Active; 'I' for Inactive)
REMARK    1  A    between atoms: C_1  and  C_2
REMARK    2  A    between atoms: C_2  and  S_4
REMARK    3  A    between atoms: S_4  and  C_5
REMARK    4  A    between atoms: C_5  and  C_6
REMARK    5  A    between atoms: C_6  and  N_7
REMARK    6  A    between atoms: C_8  and  C_10
REMARK    7  A    between atoms: C_10  and  N_11
REMARK                            x       y       z     vdW  Elec       q    Type
REMARK                         _______ _______ _______ _____ _____    ______ ____
ROOT
ATOM      1  N   UNL     1       5.427   3.642  18.018  0.00  0.00    +0.000 N 
ATOM      2  C   UNL     1       5.902   4.818  18.555  0.00  0.00    +0.000 C 
ATOM      3  O   UNL     1       5.184   5.642  19.112  0.00  0.00    +0.000 OA
ATOM      4  H   UNL     1       6.121   3.054  17.560  0.00  0.00    +0.000 HD
ENDROOT
BRANCH   1   5
ATOM      5  C   UNL     1       4.036   3.259  18.093  0.00  0.00    +0.000 C 
BRANCH   5   6
ATOM      6  C   UNL     1       3.711   2.456  19.356  0.00  0.00    +0.000 C 
BRANCH   6   7
ATOM      7  S   UNL     1       1.910   2.182  19.428  0.00  0.00    +0.000 S 
BRANCH   7   9
ATOM      8  C   UNL     1       1.304   4.570  20.635  0.00  0.00    +0.000 C 
ATOM      9  C   UNL     1       1.518   3.103  20.874  0.00  0.00    +0.000 C 
ATOM     10  O   UNL     1       1.536   2.586  21.983  0.00  0.00    +0.000 OA
ENDBRANCH   7   9
ENDBRANCH   6   7
ENDBRANCH   5   6
ENDBRANCH   1   5
BRANCH   2  11
ATOM     11  C   UNL     1       7.405   5.032  18.351  0.00  0.00    +0.000 C 
BRANCH  11  12
ATOM     12  N   UNL     1       7.910   4.227  17.217  0.00  0.00    +0.000 NA
ATOM     13  H   UNL     1       8.741   3.725  17.532  0.00  0.00    +0.000 HD
ATOM     14  H   UNL     1       8.247   4.876  16.502  0.00  0.00    +0.000 HD
ENDBRANCH  11  12
ENDBRANCH   2  11
TORSDOF 6
ENDMDL
MODEL 4
REMARK VINA RESULT:      -4.6      2.115      2.304
REMARK  Name = 
REMARK  7 active torsions:
REMARK  status: ('A' for Active; 'I' for Inactive)
REMARK    1  A    between atoms: C_1  and  C_2
REMARK    2  A    between atoms: C_2  and  S_4
REMARK    3  A    between atoms: S_4  and  C_5
REMARK    4  A    between atoms: C_5  and  C_6
REMARK    5  A    between atoms: C_6  and  N_7
REMARK    6  A    between atoms: C_8  and  C_10
REMARK    7  A    between atoms: C_10  and  N_11
REMARK                            x       y       z     vdW  Elec       q    Type
REMARK                         _______ _______ _______ _____ _____    ______ ____
ROOT
ATOM      1  N   UNL     1       5.901   4.854  18.092  0.00  0.00    +0.000 N 
ATOM      2  C   UNL     1       7.264   5.005  17.965  0.00  0.00    +0.000 C 
ATOM      3  O   UNL     1       7.938   4.377  17.155  0.00  0.00    +0.000 OA
ATOM      4  H   UNL     1       5.460   5.414  18.819  0.00  0.00    +0.000 HD
ENDROOT
BRANCH   1   5
ATOM      5  C   UNL     1       5.136   3.961  17.251  0.00  0.00    +0.000 C 
BRANCH   5   6
ATOM      6  C   UNL     1       3.624   4.137  17.422  0.00  0.00    +0.000 C 
BRANCH   6   7
ATOM      7  S   UNL     1       2.893   2.528  17.865  0.00  0.00    +0.000 S 
BRANCH   7   9
ATOM      8  C   UNL     1       1.122   3.140  19.870  0.00  0.00    +0.000 C 
ATOM      9  C   UNL     1       2.555   2.803  19.569  0.00  0.00    +0.000 C 
ATOM     10  O   UNL     1       3.451   2.825  20.402  0.00  0.00    +0.000 OA
ENDBRANCH   7   9
ENDBRANCH   6   7
ENDBRANCH   5   6
ENDBRANCH   1   5
BRANCH   2  11
ATOM     11  C   UNL     1       7.875   5.992  18.964  0.00  0.00    +0.000 C 
BRANCH  11  12
ATOM     12  N   UNL     1       7.966   5.396  20.315  0.00  0.00    +0.000 NA
ATOM     13  H   UNL     1       8.418   4.484  20.228  0.00  0.00    +0.000 HD
ATOM     14  H   UNL     1       7.015   5.192  20.630  0.00  0.00    +0.000 HD
ENDBRANCH  11  12
ENDBRANCH   2  11
TORSDOF 6
ENDMDL
MODEL 5
REMARK VINA RESULT:      -4.5      1.790      1.876
REMARK  Name = 
REMARK  7 active torsions:
REMARK  status: ('A' for Active; 'I' for Inactive)
REMARK    1  A    between atoms: C_1  and  C_2
REMARK    2  A    between atoms: C_2  and  S_4
REMARK    3  A    between atoms: S_4  and  C_5
REMARK    4  A    between atoms: C_5  and  C_6
REMARK    5  A    between atoms: C_6  and  N_7
REMARK    6  A    between atoms: C_8  and  C_10
REMARK    7  A    between atoms: C_10  and  N_11
REMARK                            x       y       z     vdW  Elec       q    Type
REMARK                         _______ _______ _______ _____ _____    ______ ____
ROOT
ATOM      1  N   UNL     1       5.118   4.401  18.418  0.00  0.00    +0.000 N 
ATOM      2  C   UNL     1       6.312   5.024  18.705  0.00  0.00    +0.000 C 
ATOM      3  O   UNL     1       6.662   5.320  19.843  0.00  0.00    +0.000 OA
ATOM      4  H   UNL     1       4.933   4.233  17.431  0.00  0.00    +0.000 HD
ENDROOT
BRANCH   1   5
ATOM      5  C   UNL     1       4.181   4.008  19.445  0.00  0.00    +0.000 C 
BRANCH   5   6
ATOM      6  C   UNL     1       3.902   2.502  19.446  0.00  0.00    +0.000 C 
BRANCH   6   7
ATOM      7  S   UNL     1       2.138   2.233  19.078  0.00  0.00    +0.000 S 
BRANCH   7   9
ATOM      8  C   UNL     1       1.632   2.573  21.754  0.00  0.00    +0.000 C 
ATOM      9  C   UNL     1       1.407   3.153  20.387  0.00  0.00    +0.000 C 
ATOM     10  O   UNL     1       0.688   4.117  20.164  0.00  0.00    +0.000 OA
ENDBRANCH   7   9
ENDBRANCH   6   7
ENDBRANCH   5   6
ENDBRANCH   1   5
BRANCH   2  11
ATOM     11  C   UNL     1       7.148   5.365  17.467  0.00  0.00    +0.000 C 
BRANCH  11  12
ATOM     12  N   UNL     1       7.925   4.193  17.008  0.00  0.00    +0.000 NA
ATOM     13  H   UNL     1       8.799   4.168  17.535  0.00  0.00    +0.000 HD
ATOM     14  H   UNL     1       8.204   4.364  16.039  0.00  0.00    +0.000 HD
ENDBRANCH  11  12
ENDBRANCH   2  11
TORSDOF 6
ENDMDL
MODEL 6
REMARK VINA RESULT:      -4.5      2.216      2.256
REMARK  Name = 
REMARK  7 active torsions:
REMARK  status: ('A' for Active; 'I' for Inactive)
REMARK    1  A    between atoms: C_1  and  C_2
REMARK    2  A    between atoms: C_2  and  S_4
REMARK    3  A    between atoms: S_4  and  C_5
REMARK    4  A    between atoms: C_5  and  C_6
REMARK    5  A    between atoms: C_6  and  N_7
REMARK    6  A    between atoms: C_8  and  C_10
REMARK    7  A    between atoms: C_10  and  N_11
REMARK                            x       y       z     vdW  Elec       q    Type
REMARK                         _______ _______ _______ _____ _____    ______ ____
ROOT
ATOM      1  N   UNL     1       5.503   4.007  17.906  0.00  0.00    +0.000 N 
ATOM      2  C   UNL     1       6.795   4.479  17.840  0.00  0.00    +0.000 C 
ATOM      3  O   UNL     1       7.458   4.767  18.831  0.00  0.00    +0.000 OA
ATOM      4  H   UNL     1       5.051   3.829  17.011  0.00  0.00    +0.000 HD
ENDROOT
BRANCH   1   5
ATOM      5  C   UNL     1       4.823   3.776  19.160  0.00  0.00    +0.000 C 
BRANCH   5   6
ATOM      6  C   UNL     1       3.746   2.692  19.058  0.00  0.00    +0.000 C 
BRANCH   6   7
ATOM      7  S   UNL     1       2.431   3.277  17.940  0.00  0.00    +0.000 S 
BRANCH   7   9
ATOM      8  C   UNL     1       0.965   3.542  20.245  0.00  0.00    +0.000 C 
ATOM      9  C   UNL     1       1.012   2.876  18.899  0.00  0.00    +0.000 C 
ATOM     10  O   UNL     1       0.206   2.036  18.524  0.00  0.00    +0.000 OA
ENDBRANCH   7   9
ENDBRANCH   6   7
ENDBRANCH   5   6
ENDBRANCH   1   5
BRANCH   2  11
ATOM     11  C   UNL     1       7.316   4.663  16.411  0.00  0.00    +0.000 C 
BRANCH  11  12
ATOM     12  N   UNL     1       7.366   6.095  16.041  0.00  0.00    +0.000 NA
ATOM     13  H   UNL     1       7.898   6.588  16.761  0.00  0.00    +0.000 HD
ATOM     14  H   UNL     1       6.416   6.468  16.112  0.00  0.00    +0.000 HD
ENDBRANCH  11  12
ENDBRANCH   2  11
TORSDOF 6
ENDMDL
MODEL 7
REMARK VINA RESULT:      -4.4      2.366      2.391
REMARK  Name = 
REMARK  7 active torsions:
REMARK  status: ('A' for Active; 'I' for Inactive)
REMARK    1  A    between atoms: C_1  and  C_2
REMARK    2  A    between atoms: C_2  and  S_4
REMARK    3  A    between atoms: S_4  and  C_5
REMARK    4  A    between atoms: C_5  and  C_6
REMARK    5  A    between atoms: C_6  and  N_7
REMARK    6  A    between atoms: C_8  and  C_10
REMARK    7  A    between atoms: C_10  and  N_11
REMARK                            x       y       z     vdW  Elec       q    Type
REMARK                         _______ _______ _______ _____ _____    ______ ____
ROOT
ATOM      1  N   UNL     1       5.964   3.929  18.251  0.00  0.00    +0.000 N 
ATOM      2  C   UNL     1       5.974   4.690  17.103  0.00  0.00    +0.000 C 
ATOM      3  O   UNL     1       5.058   5.441  16.785  0.00  0.00    +0.000 OA
ATOM      4  H   UNL     1       6.773   3.326  18.389  0.00  0.00    +0.000 HD
ENDROOT
BRANCH   1   5
ATOM      5  C   UNL     1       4.880   3.976  19.205  0.00  0.00    +0.000 C 
BRANCH   5   6
ATOM      6  C   UNL     1       3.815   2.907  18.944  0.00  0.00    +0.000 C 
BRANCH   6   7
ATOM      7  S   UNL     1       2.332   3.713  18.257  0.00  0.00    +0.000 S 
BRANCH   7   9
ATOM      8  C   UNL     1       1.194   2.946  20.634  0.00  0.00    +0.000 C 
ATOM      9  C   UNL     1       1.078   2.850  19.139  0.00  0.00    +0.000 C 
ATOM     10  O   UNL     1       0.262   2.146  18.561  0.00  0.00    +0.000 OA
ENDBRANCH   7   9
ENDBRANCH   6   7
ENDBRANCH   5   6
ENDBRANCH   1   5
BRANCH   2  11
ATOM     11  C   UNL     1       7.213   4.475  16.227  0.00  0.00    +0.000 C 
BRANCH  11  12
ATOM     12  N   UNL     1       7.496   5.670  15.402  0.00  0.00    +0.000 NA
ATOM     13  H   UNL     1       6.948   5.598  14.544  0.00  0.00    +0.000 HD
ATOM     14  H   UNL     1       8.471   5.615  15.100  0.00  0.00    +0.000 HD
ENDBRANCH  11  12
ENDBRANCH   2  11
TORSDOF 6
ENDMDL
MODEL 8
REMARK VINA RESULT:      -4.4      3.098      5.044
REMARK  Name = 
REMARK  7 active torsions:
REMARK  status: ('A' for Active; 'I' for Inactive)
REMARK    1  A    between atoms: C_1  and  C_2
REMARK    2  A    between atoms: C_2  and  S_4
REMARK    3  A    between atoms: S_4  and  C_5
REMARK    4  A    between atoms: C_5  and  C_6
REMARK    5  A    between atoms: C_6  and  N_7
REMARK    6  A    between atoms: C_8  and  C_10
REMARK    7  A    between atoms: C_10  and  N_11
REMARK                            x       y       z     vdW  Elec       q    Type
REMARK                         _______ _______ _______ _____ _____    ______ ____
ROOT
ATOM      1  N   UNL     1       4.037   3.856  17.402  0.00  0.00    +0.000 N 
ATOM      2  C   UNL     1       3.817   3.196  18.590  0.00  0.00    +0.000 C 
ATOM      3  O   UNL     1       4.159   3.640  19.681  0.00  0.00    +0.000 OA
ATOM      4  H   UNL     1       3.728   3.371  16.562  0.00  0.00    +0.000 HD
ENDROOT
BRANCH   1   5
ATOM      5  C   UNL     1       4.666   5.156  17.341  0.00  0.00    +0.000 C 
BRANCH   5   6
ATOM      6  C   UNL     1       5.907   5.171  16.444  0.00  0.00    +0.000 C 
BRANCH   6   7
ATOM      7  S   UNL     1       7.327   4.542  17.399  0.00  0.00    +0.000 S 
BRANCH   7   9
ATOM      8  C   UNL     1       7.837   7.100  18.252  0.00  0.00    +0.000 C 
ATOM      9  C   UNL     1       7.382   5.736  18.689  0.00  0.00    +0.000 C 
ATOM     10  O   UNL     1       7.172   5.426  19.854  0.00  0.00    +0.000 OA
ENDBRANCH   7   9
ENDBRANCH   6   7
ENDBRANCH   5   6
ENDBRANCH   1   5
BRANCH   2  11
ATOM     11  C   UNL     1       3.150   1.827  18.425  0.00  0.00    +0.000 C 
BRANCH  11  12
ATOM     12  N   UNL     1       4.159   0.749  18.333  0.00  0.00    +0.000 NA
ATOM     13  H   UNL     1       4.938   1.094  17.770  0.00  0.00    +0.000 HD
ATOM     14  H   UNL     1       3.752  -0.012  17.784  0.00  0.00    +0.000 HD
ENDBRANCH  11  12
ENDBRANCH   2  11
TORSDOF 6
ENDMDL
MODEL 9
REMARK VINA RESULT:      -4.4      2.481      2.694
REMARK  Name = 
REMARK  7 active torsions:
REMARK  status: ('A' for Active; 'I' for Inactive)
REMARK    1  A    between atoms: C_1  and  C_2
REMARK    2  A    between atoms: C_2  and  S_4
REMARK    3  A    between atoms: S_4  and  C_5
REMARK    4  A    between atoms: C_5  and  C_6
REMARK    5  A    between atoms: C_6  and  N_7
REMARK    6  A    between atoms: C_8  and  C_10
REMARK    7  A    between atoms: C_10  and  N_11
REMARK                            x       y       z     vdW  Elec       q    Type
REMARK                         _______ _______ _______ _____ _____    ______ ____
ROOT
ATOM      1  N   UNL     1       5.949   5.390  18.748  0.00  0.00    +0.000 N 
ATOM      2  C   UNL     1       7.287   5.463  18.431  0.00  0.00    +0.000 C 
ATOM      3  O   UNL     1       8.016   4.479  18.353  0.00  0.00    +0.000 OA
ATOM      4  H   UNL     1       5.459   6.281  18.805  0.00  0.00    +0.000 HD
ENDROOT
BRANCH   1   5
ATOM      5  C   UNL     1       5.274   4.134  18.985  0.00  0.00    +0.000 C 
BRANCH   5   6
ATOM      6  C   UNL     1       3.830   4.320  19.458  0.00  0.00    +0.000 C 
BRANCH   6   7
ATOM      7  S   UNL     1       3.132   2.685  19.863  0.00  0.00    +0.000 S 
BRANCH   7   9
ATOM      8  C   UNL     1       0.906   4.173  20.465  0.00  0.00    +0.000 C 
ATOM      9  C   UNL     1       1.878   3.161  21.001  0.00  0.00    +0.000 C 
ATOM     10  O   UNL     1       1.888   2.771  22.161  0.00  0.00    +0.000 OA
ENDBRANCH   7   9
ENDBRANCH   6   7
ENDBRANCH   5   6
ENDBRANCH   1   5
BRANCH   2  11
ATOM     11  C   UNL     1       7.802   6.892  18.233  0.00  0.00    +0.000 C 
BRANCH  11  12
ATOM     12  N   UNL     1       7.707   7.303  16.815  0.00  0.00    +0.000 NA
ATOM     13  H   UNL     1       8.149   6.578  16.248  0.00  0.00    +0.000 HD
ATOM     14  H   UNL     1       8.294   8.131  16.691  0.00  0.00    +0.000 HD
ENDBRANCH  11  12
ENDBRANCH   2  11
TORSDOF 6
ENDMDL
