MODEL 1
REMARK VINA RESULT:      -8.1      0.000      0.000
REMARK  Name = 
REMARK  6 active torsions:
REMARK  status: ('A' for Active; 'I' for Inactive)
REMARK    1  A    between atoms: C_1  and  C_2
REMARK    2  A    between atoms: C_2  and  N_3
REMARK    3  A    between atoms: C_2  and  C_20
REMARK    4  A    between atoms: C_4  and  C_6
REMARK    5  A    between atoms: C_6  and  N_7
REMARK    6  A    between atoms: C_8  and  C_10
REMARK                            x       y       z     vdW  Elec       q    Type
REMARK                         _______ _______ _______ _____ _____    ______ ____
ROOT
ATOM      1  N   UNL     1       6.119   7.351  17.525  0.00  0.00    +0.000 N 
ATOM      2  C   UNL     1       5.767   6.277  16.751  0.00  0.00    +0.000 C 
ATOM      3  O   UNL     1       6.367   6.001  15.708  0.00  0.00    +0.000 OA
ATOM      4  H   UNL     1       5.462   7.615  18.255  0.00  0.00    +0.000 HD
ENDROOT
BRANCH   2   5
ATOM      5  C   UNL     1       4.555   5.461  17.234  0.00  0.00    +0.000 C 
ATOM      6  C   UNL     1       4.496   5.538  18.768  0.00  0.00    +0.000 C 
ATOM      7  C   UNL     1       3.260   4.815  19.226  0.00  0.00    +0.000 A 
ATOM      8  C   UNL     1       2.444   5.303  20.247  0.00  0.00    +0.000 A 
ATOM      9  C   UNL     1       1.304   4.590  20.618  0.00  0.00    +0.000 A 
ATOM     10  C   UNL     1       0.992   3.391  19.978  0.00  0.00    +0.000 A 
ATOM     11  C   UNL     1       1.810   2.894  18.968  0.00  0.00    +0.000 A 
ATOM     12  C   UNL     1       2.951   3.606  18.572  0.00  0.00    +0.000 A 
ATOM     13  C   UNL     1       3.933   3.073  17.558  0.00  0.00    +0.000 C 
ATOM     14  N   UNL     1       4.551   4.078  16.673  0.00  0.00    +0.000 NA
ATOM     15  H   UNL     1       4.002   4.113  15.808  0.00  0.00    +0.000 HD
ENDBRANCH   2   5
BRANCH   1  16
ATOM     16  C   UNL     1       7.182   8.261  17.129  0.00  0.00    +0.000 C 
BRANCH  16  18
ATOM     17  N   UNL     1       8.690   9.745  18.366  0.00  0.00    +0.000 N 
ATOM     18  C   UNL     1       8.206   8.457  18.252  0.00  0.00    +0.000 C 
ATOM     19  O   UNL     1       8.579   7.528  18.964  0.00  0.00    +0.000 OA
ATOM     20  H   UNL     1       8.414  10.409  17.648  0.00  0.00    +0.000 HD
BRANCH  17  22
ATOM     21  C   UNL     1       8.880  10.686  20.648  0.00  0.00    +0.000 C 
ATOM     22  C   UNL     1       9.615  10.144  19.415  0.00  0.00    +0.000 C 
BRANCH  22  23
ATOM     23  C   UNL     1      10.620  11.193  18.967  0.00  0.00    +0.000 A 
ATOM     24  C   UNL     1      11.430  11.809  19.939  0.00  0.00    +0.000 A 
ATOM     25  C   UNL     1      12.249  12.889  19.609  0.00  0.00    +0.000 A 
ATOM     26  C   UNL     1      12.285  13.359  18.300  0.00  0.00    +0.000 A 
ATOM     27  C   UNL     1      11.510  12.745  17.319  0.00  0.00    +0.000 A 
ATOM     28  C   UNL     1      10.676  11.673  17.649  0.00  0.00    +0.000 A 
ENDBRANCH  22  23
ENDBRANCH  17  22
ENDBRANCH  16  18
ENDBRANCH   1  16
TORSDOF 5
ENDMDL
MODEL 2
REMARK VINA RESULT:      -8.0      1.262      1.463
REMARK  Name = 
REMARK  6 active torsions:
REMARK  status: ('A' for Active; 'I' for Inactive)
REMARK    1  A    between atoms: C_1  and  C_2
REMARK    2  A    between atoms: C_2  and  N_3
REMARK    3  A    between atoms: C_2  and  C_20
REMARK    4  A    between atoms: C_4  and  C_6
REMARK    5  A    between atoms: C_6  and  N_7
REMARK    6  A    between atoms: C_8  and  C_10
REMARK                            x       y       z     vdW  Elec       q    Type
REMARK                         _______ _______ _______ _____ _____    ______ ____
ROOT
ATOM      1  N   UNL     1       6.404   6.989  17.575  0.00  0.00    +0.000 N 
ATOM      2  C   UNL     1       5.627   6.290  16.690  0.00  0.00    +0.000 C 
ATOM      3  O   UNL     1       5.487   6.652  15.518  0.00  0.00    +0.000 OA
ATOM      4  H   UNL     1       6.312   6.733  18.555  0.00  0.00    +0.000 HD
ENDROOT
BRANCH   2   5
ATOM      5  C   UNL     1       4.905   5.052  17.252  0.00  0.00    +0.000 C 
ATOM      6  C   UNL     1       3.546   5.496  17.816  0.00  0.00    +0.000 C 
ATOM      7  C   UNL     1       2.810   4.270  18.281  0.00  0.00    +0.000 A 
ATOM      8  C   UNL     1       1.444   4.091  18.058  0.00  0.00    +0.000 A 
ATOM      9  C   UNL     1       0.821   2.926  18.505  0.00  0.00    +0.000 A 
ATOM     10  C   UNL     1       1.560   1.953  19.179  0.00  0.00    +0.000 A 
ATOM     11  C   UNL     1       2.920   2.135  19.414  0.00  0.00    +0.000 A 
ATOM     12  C   UNL     1       3.564   3.293  18.958  0.00  0.00    +0.000 A 
ATOM     13  C   UNL     1       5.009   3.597  19.268  0.00  0.00    +0.000 C 
ATOM     14  N   UNL     1       5.763   4.288  18.205  0.00  0.00    +0.000 NA
ATOM     15  H   UNL     1       6.251   3.576  17.654  0.00  0.00    +0.000 HD
ENDBRANCH   2   5
BRANCH   1  16
ATOM     16  C   UNL     1       7.059   8.232  17.199  0.00  0.00    +0.000 C 
BRANCH  16  18
ATOM     17  N   UNL     1       8.605   9.901  18.112  0.00  0.00    +0.000 N 
ATOM     18  C   UNL     1       8.201   8.582  18.159  0.00  0.00    +0.000 C 
ATOM     19  O   UNL     1       8.726   7.738  18.884  0.00  0.00    +0.000 OA
ATOM     20  H   UNL     1       8.194  10.485  17.389  0.00  0.00    +0.000 HD
BRANCH  17  22
ATOM     21  C   UNL     1       9.087  10.669  20.415  0.00  0.00    +0.000 C 
ATOM     22  C   UNL     1       9.625  10.440  18.996  0.00  0.00    +0.000 C 
BRANCH  22  23
ATOM     23  C   UNL     1      10.223  11.748  18.503  0.00  0.00    +0.000 A 
ATOM     24  C   UNL     1       9.539  12.947  18.776  0.00  0.00    +0.000 A 
ATOM     25  C   UNL     1       9.953  14.153  18.209  0.00  0.00    +0.000 A 
ATOM     26  C   UNL     1      11.066  14.182  17.375  0.00  0.00    +0.000 A 
ATOM     27  C   UNL     1      11.771  13.009  17.114  0.00  0.00    +0.000 A 
ATOM     28  C   UNL     1      11.349  11.797  17.667  0.00  0.00    +0.000 A 
ENDBRANCH  22  23
ENDBRANCH  17  22
ENDBRANCH  16  18
ENDBRANCH   1  16
TORSDOF 5
ENDMDL
MODEL 3
REMARK VINA RESULT:      -8.0      1.191      1.537
REMARK  Name = 
REMARK  6 active torsions:
REMARK  status: ('A' for Active; 'I' for Inactive)
REMARK    1  A    between atoms: C_1  and  C_2
REMARK    2  A    between atoms: C_2  and  N_3
REMARK    3  A    between atoms: C_2  and  C_20
REMARK    4  A    between atoms: C_4  and  C_6
REMARK    5  A    between atoms: C_6  and  N_7
REMARK    6  A    between atoms: C_8  and  C_10
REMARK                            x       y       z     vdW  Elec       q    Type
REMARK                         _______ _______ _______ _____ _____    ______ ____
ROOT
ATOM      1  N   UNL     1       6.402   7.352  17.639  0.00  0.00    +0.000 N 
ATOM      2  C   UNL     1       6.567   6.146  17.011  0.00  0.00    +0.000 C 
ATOM      3  O   UNL     1       7.432   5.975  16.146  0.00  0.00    +0.000 OA
ATOM      4  H   UNL     1       5.555   7.459  18.191  0.00  0.00    +0.000 HD
ENDROOT
BRANCH   2   5
ATOM      5  C   UNL     1       5.586   5.031  17.413  0.00  0.00    +0.000 C 
ATOM      6  C   UNL     1       4.264   5.681  17.852  0.00  0.00    +0.000 C 
ATOM      7  C   UNL     1       3.282   4.584  18.158  0.00  0.00    +0.000 A 
ATOM      8  C   UNL     1       1.942   4.655  17.778  0.00  0.00    +0.000 A 
ATOM      9  C   UNL     1       1.083   3.599  18.082  0.00  0.00    +0.000 A 
ATOM     10  C   UNL     1       1.563   2.485  18.771  0.00  0.00    +0.000 A 
ATOM     11  C   UNL     1       2.897   2.416  19.162  0.00  0.00    +0.000 A 
ATOM     12  C   UNL     1       3.776   3.462  18.852  0.00  0.00    +0.000 A 
ATOM     13  C   UNL     1       5.206   3.496  19.335  0.00  0.00    +0.000 C 
ATOM     14  N   UNL     1       6.184   4.089  18.405  0.00  0.00    +0.000 NA
ATOM     15  H   UNL     1       6.607   3.327  17.867  0.00  0.00    +0.000 HD
ENDBRANCH   2   5
BRANCH   1  16
ATOM     16  C   UNL     1       7.197   8.516  17.280  0.00  0.00    +0.000 C 
BRANCH  16  18
ATOM     17  N   UNL     1       8.740  10.084  18.359  0.00  0.00    +0.000 N 
ATOM     18  C   UNL     1       8.315   8.772  18.296  0.00  0.00    +0.000 C 
ATOM     19  O   UNL     1       8.804   7.868  18.970  0.00  0.00    +0.000 OA
ATOM     20  H   UNL     1       8.361  10.728  17.670  0.00  0.00    +0.000 HD
BRANCH  17  22
ATOM     21  C   UNL     1       9.140  10.773  20.702  0.00  0.00    +0.000 C 
ATOM     22  C   UNL     1       9.741  10.537  19.311  0.00  0.00    +0.000 C 
BRANCH  22  23
ATOM     23  C   UNL     1      10.449  11.812  18.881  0.00  0.00    +0.000 A 
ATOM     24  C   UNL     1      11.172  11.807  17.674  0.00  0.00    +0.000 A 
ATOM     25  C   UNL     1      11.972  12.892  17.314  0.00  0.00    +0.000 A 
ATOM     26  C   UNL     1      12.049  14.005  18.146  0.00  0.00    +0.000 A 
ATOM     27  C   UNL     1      11.320  14.038  19.332  0.00  0.00    +0.000 A 
ATOM     28  C   UNL     1      10.530  12.947  19.704  0.00  0.00    +0.000 A 
ENDBRANCH  22  23
ENDBRANCH  17  22
ENDBRANCH  16  18
ENDBRANCH   1  16
TORSDOF 5
ENDMDL
MODEL 4
REMARK VINA RESULT:      -7.9      1.462      9.607
REMARK  Name = 
REMARK  6 active torsions:
REMARK  status: ('A' for Active; 'I' for Inactive)
REMARK    1  A    between atoms: C_1  and  C_2
REMARK    2  A    between atoms: C_2  and  N_3
REMARK    3  A    between atoms: C_2  and  C_20
REMARK    4  A    between atoms: C_4  and  C_6
REMARK    5  A    between atoms: C_6  and  N_7
REMARK    6  A    between atoms: C_8  and  C_10
REMARK                            x       y       z     vdW  Elec       q    Type
REMARK                         _______ _______ _______ _____ _____    ______ ____
ROOT
ATOM      1  N   UNL     1       7.548   7.857  17.106  0.00  0.00    +0.000 N 
ATOM      2  C   UNL     1       8.352   8.266  18.137  0.00  0.00    +0.000 C 
ATOM      3  O   UNL     1       8.592   7.537  19.105  0.00  0.00    +0.000 OA
ATOM      4  H   UNL     1       7.253   8.579  16.453  0.00  0.00    +0.000 HD
ENDROOT
BRANCH   2   5
ATOM      5  C   UNL     1       8.903   9.699  18.041  0.00  0.00    +0.000 C 
ATOM      6  C   UNL     1       9.313  10.159  19.449  0.00  0.00    +0.000 C 
ATOM      7  C   UNL     1       9.932  11.524  19.334  0.00  0.00    +0.000 A 
ATOM      8  C   UNL     1      11.069  11.891  20.056  0.00  0.00    +0.000 A 
ATOM      9  C   UNL     1      11.602  13.170  19.897  0.00  0.00    +0.000 A 
ATOM     10  C   UNL     1      10.994  14.077  19.029  0.00  0.00    +0.000 A 
ATOM     11  C   UNL     1       9.853  13.718  18.316  0.00  0.00    +0.000 A 
ATOM     12  C   UNL     1       9.314  12.432  18.453  0.00  0.00    +0.000 A 
ATOM     13  C   UNL     1       8.024  12.014  17.790  0.00  0.00    +0.000 C 
ATOM     14  N   UNL     1       7.963  10.615  17.329  0.00  0.00    +0.000 NA
ATOM     15  H   UNL     1       8.229  10.599  16.341  0.00  0.00    +0.000 HD
ENDBRANCH   2   5
BRANCH   1  16
ATOM     16  C   UNL     1       6.883   6.564  17.123  0.00  0.00    +0.000 C 
BRANCH  16  18
ATOM     17  N   UNL     1       4.527   6.431  17.783  0.00  0.00    +0.000 N 
ATOM     18  C   UNL     1       5.403   6.685  16.747  0.00  0.00    +0.000 C 
ATOM     19  O   UNL     1       5.039   6.955  15.604  0.00  0.00    +0.000 OA
ATOM     20  H   UNL     1       4.925   6.091  18.654  0.00  0.00    +0.000 HD
BRANCH  17  22
ATOM     21  C   UNL     1       2.600   7.964  18.040  0.00  0.00    +0.000 C 
ATOM     22  C   UNL     1       3.086   6.564  17.641  0.00  0.00    +0.000 C 
BRANCH  22  23
ATOM     23  C   UNL     1       2.302   5.545  18.453  0.00  0.00    +0.000 A 
ATOM     24  C   UNL     1       2.223   5.712  19.848  0.00  0.00    +0.000 A 
ATOM     25  C   UNL     1       1.660   4.724  20.656  0.00  0.00    +0.000 A 
ATOM     26  C   UNL     1       1.152   3.563  20.082  0.00  0.00    +0.000 A 
ATOM     27  C   UNL     1       1.198   3.392  18.700  0.00  0.00    +0.000 A 
ATOM     28  C   UNL     1       1.776   4.373  17.889  0.00  0.00    +0.000 A 
ENDBRANCH  22  23
ENDBRANCH  17  22
ENDBRANCH  16  18
ENDBRANCH   1  16
TORSDOF 5
ENDMDL
MODEL 5
REMARK VINA RESULT:      -7.8      4.614      6.994
REMARK  Name = 
REMARK  6 active torsions:
REMARK  status: ('A' for Active; 'I' for Inactive)
REMARK    1  A    between atoms: C_1  and  C_2
REMARK    2  A    between atoms: C_2  and  N_3
REMARK    3  A    between atoms: C_2  and  C_20
REMARK    4  A    between atoms: C_4  and  C_6
REMARK    5  A    between atoms: C_6  and  N_7
REMARK    6  A    between atoms: C_8  and  C_10
REMARK                            x       y       z     vdW  Elec       q    Type
REMARK                         _______ _______ _______ _____ _____    ______ ____
ROOT
ATOM      1  N   UNL     1       3.821   4.788  19.587  0.00  0.00    +0.000 N 
ATOM      2  C   UNL     1       2.960   5.318  18.663  0.00  0.00    +0.000 C 
ATOM      3  O   UNL     1       2.952   4.939  17.488  0.00  0.00    +0.000 OA
ATOM      4  H   UNL     1       3.891   5.284  20.472  0.00  0.00    +0.000 HD
ENDROOT
BRANCH   2   5
ATOM      5  C   UNL     1       2.034   6.441  19.163  0.00  0.00    +0.000 C 
ATOM      6  C   UNL     1       2.459   7.757  18.495  0.00  0.00    +0.000 C 
ATOM      7  C   UNL     1       1.496   8.830  18.918  0.00  0.00    +0.000 A 
ATOM      8  C   UNL     1       1.010   9.791  18.030  0.00  0.00    +0.000 A 
ATOM      9  C   UNL     1       0.109  10.754  18.482  0.00  0.00    +0.000 A 
ATOM     10  C   UNL     1      -0.293  10.761  19.818  0.00  0.00    +0.000 A 
ATOM     11  C   UNL     1       0.199   9.812  20.710  0.00  0.00    +0.000 A 
ATOM     12  C   UNL     1       1.093   8.829  20.268  0.00  0.00    +0.000 A 
ATOM     13  C   UNL     1       1.742   7.837  21.203  0.00  0.00    +0.000 C 
ATOM     14  N   UNL     1       1.963   6.486  20.654  0.00  0.00    +0.000 NA
ATOM     15  H   UNL     1       1.167   5.903  20.928  0.00  0.00    +0.000 HD
ENDBRANCH   2   5
BRANCH   1  16
ATOM     16  C   UNL     1       4.816   3.793  19.222  0.00  0.00    +0.000 C 
BRANCH  16  18
ATOM     17  N   UNL     1       6.029   4.414  17.185  0.00  0.00    +0.000 N 
ATOM     18  C   UNL     1       6.043   4.434  18.565  0.00  0.00    +0.000 C 
ATOM     19  O   UNL     1       6.970   4.897  19.227  0.00  0.00    +0.000 OA
ATOM     20  H   UNL     1       5.279   3.896  16.736  0.00  0.00    +0.000 HD
BRANCH  17  22
ATOM     21  C   UNL     1       7.143   6.551  16.618  0.00  0.00    +0.000 C 
ATOM     22  C   UNL     1       7.070   5.037  16.383  0.00  0.00    +0.000 C 
BRANCH  22  23
ATOM     23  C   UNL     1       6.905   4.799  14.890  0.00  0.00    +0.000 A 
ATOM     24  C   UNL     1       5.941   3.869  14.459  0.00  0.00    +0.000 A 
ATOM     25  C   UNL     1       5.860   3.491  13.118  0.00  0.00    +0.000 A 
ATOM     26  C   UNL     1       6.728   4.051  12.185  0.00  0.00    +0.000 A 
ATOM     27  C   UNL     1       7.671   4.993  12.590  0.00  0.00    +0.000 A 
ATOM     28  C   UNL     1       7.766   5.361  13.935  0.00  0.00    +0.000 A 
ENDBRANCH  22  23
ENDBRANCH  17  22
ENDBRANCH  16  18
ENDBRANCH   1  16
TORSDOF 5
ENDMDL
MODEL 6
REMARK VINA RESULT:      -7.8      5.731      9.012
REMARK  Name = 
REMARK  6 active torsions:
REMARK  status: ('A' for Active; 'I' for Inactive)
REMARK    1  A    between atoms: C_1  and  C_2
REMARK    2  A    between atoms: C_2  and  N_3
REMARK    3  A    between atoms: C_2  and  C_20
REMARK    4  A    between atoms: C_4  and  C_6
REMARK    5  A    between atoms: C_6  and  N_7
REMARK    6  A    between atoms: C_8  and  C_10
REMARK                            x       y       z     vdW  Elec       q    Type
REMARK                         _______ _______ _______ _____ _____    ______ ____
ROOT
ATOM      1  N   UNL     1       1.972   7.600  20.446  0.00  0.00    +0.000 N 
ATOM      2  C   UNL     1       1.938   6.235  20.339  0.00  0.00    +0.000 C 
ATOM      3  O   UNL     1       1.158   5.548  21.006  0.00  0.00    +0.000 OA
ATOM      4  H   UNL     1       2.763   8.065  20.009  0.00  0.00    +0.000 HD
ENDROOT
BRANCH   2   5
ATOM      5  C   UNL     1       2.955   5.604  19.373  0.00  0.00    +0.000 C 
ATOM      6  C   UNL     1       3.012   6.459  18.098  0.00  0.00    +0.000 C 
ATOM      7  C   UNL     1       4.071   5.888  17.197  0.00  0.00    +0.000 A 
ATOM      8  C   UNL     1       4.958   6.695  16.482  0.00  0.00    +0.000 A 
ATOM      9  C   UNL     1       5.926   6.104  15.672  0.00  0.00    +0.000 A 
ATOM     10  C   UNL     1       5.998   4.714  15.570  0.00  0.00    +0.000 A 
ATOM     11  C   UNL     1       5.108   3.907  16.272  0.00  0.00    +0.000 A 
ATOM     12  C   UNL     1       4.138   4.485  17.102  0.00  0.00    +0.000 A 
ATOM     13  C   UNL     1       3.080   3.673  17.808  0.00  0.00    +0.000 C 
ATOM     14  N   UNL     1       2.687   4.153  19.145  0.00  0.00    +0.000 NA
ATOM     15  H   UNL     1       3.241   3.640  19.838  0.00  0.00    +0.000 HD
ENDBRANCH   2   5
BRANCH   1  16
ATOM     16  C   UNL     1       1.133   8.313  21.396  0.00  0.00    +0.000 C 
BRANCH  16  18
ATOM     17  N   UNL     1      -0.320   9.763  20.056  0.00  0.00    +0.000 N 
ATOM     18  C   UNL     1       0.777   9.716  20.893  0.00  0.00    +0.000 C 
ATOM     19  O   UNL     1       1.441  10.705  21.195  0.00  0.00    +0.000 OA
ATOM     20  H   UNL     1      -0.721   8.875  19.768  0.00  0.00    +0.000 HD
BRANCH  17  22
ATOM     21  C   UNL     1      -1.486  11.867  20.640  0.00  0.00    +0.000 C 
ATOM     22  C   UNL     1      -0.855  11.010  19.535  0.00  0.00    +0.000 C 
BRANCH  22  23
ATOM     23  C   UNL     1      -1.893  10.812  18.442  0.00  0.00    +0.000 A 
ATOM     24  C   UNL     1      -1.592   9.942  17.378  0.00  0.00    +0.000 A 
ATOM     25  C   UNL     1      -2.435   9.849  16.269  0.00  0.00    +0.000 A 
ATOM     26  C   UNL     1      -3.598  10.611  16.215  0.00  0.00    +0.000 A 
ATOM     27  C   UNL     1      -3.925  11.458  17.272  0.00  0.00    +0.000 A 
ATOM     28  C   UNL     1      -3.075  11.566  18.376  0.00  0.00    +0.000 A 
ENDBRANCH  22  23
ENDBRANCH  17  22
ENDBRANCH  16  18
ENDBRANCH   1  16
TORSDOF 5
ENDMDL
MODEL 7
REMARK VINA RESULT:      -7.8      4.911      7.533
REMARK  Name = 
REMARK  6 active torsions:
REMARK  status: ('A' for Active; 'I' for Inactive)
REMARK    1  A    between atoms: C_1  and  C_2
REMARK    2  A    between atoms: C_2  and  N_3
REMARK    3  A    between atoms: C_2  and  C_20
REMARK    4  A    between atoms: C_4  and  C_6
REMARK    5  A    between atoms: C_6  and  N_7
REMARK    6  A    between atoms: C_8  and  C_10
REMARK                            x       y       z     vdW  Elec       q    Type
REMARK                         _______ _______ _______ _____ _____    ______ ____
ROOT
ATOM      1  N   UNL     1       2.522   5.967  18.391  0.00  0.00    +0.000 N 
ATOM      2  C   UNL     1       2.385   6.200  19.733  0.00  0.00    +0.000 C 
ATOM      3  O   UNL     1       2.583   5.315  20.572  0.00  0.00    +0.000 OA
ATOM      4  H   UNL     1       2.159   6.685  17.770  0.00  0.00    +0.000 HD
ENDROOT
BRANCH   2   5
ATOM      5  C   UNL     1       1.928   7.614  20.133  0.00  0.00    +0.000 C 
ATOM      6  C   UNL     1       0.600   7.498  20.898  0.00  0.00    +0.000 C 
ATOM      7  C   UNL     1       0.206   8.873  21.362  0.00  0.00    +0.000 A 
ATOM      8  C   UNL     1      -0.328   9.108  22.630  0.00  0.00    +0.000 A 
ATOM      9  C   UNL     1      -0.664  10.408  23.005  0.00  0.00    +0.000 A 
ATOM     10  C   UNL     1      -0.475  11.463  22.112  0.00  0.00    +0.000 A 
ATOM     11  C   UNL     1       0.046  11.231  20.842  0.00  0.00    +0.000 A 
ATOM     12  C   UNL     1       0.402   9.932  20.455  0.00  0.00    +0.000 A 
ATOM     13  C   UNL     1       0.874   9.597  19.062  0.00  0.00    +0.000 C 
ATOM     14  N   UNL     1       1.903   8.546  18.967  0.00  0.00    +0.000 NA
ATOM     15  H   UNL     1       2.818   9.004  18.938  0.00  0.00    +0.000 HD
ENDBRANCH   2   5
BRANCH   1  16
ATOM     16  C   UNL     1       2.851   4.647  17.875  0.00  0.00    +0.000 C 
BRANCH  16  18
ATOM     17  N   UNL     1       4.874   4.769  16.497  0.00  0.00    +0.000 N 
ATOM     18  C   UNL     1       4.365   4.454  17.740  0.00  0.00    +0.000 C 
ATOM     19  O   UNL     1       5.052   4.023  18.664  0.00  0.00    +0.000 OA
ATOM     20  H   UNL     1       4.205   4.994  15.766  0.00  0.00    +0.000 HD
BRANCH  17  22
ATOM     21  C   UNL     1       7.010   6.015  16.600  0.00  0.00    +0.000 C 
ATOM     22  C   UNL     1       6.296   4.719  16.196  0.00  0.00    +0.000 C 
BRANCH  22  23
ATOM     23  C   UNL     1       6.594   4.454  14.729  0.00  0.00    +0.000 A 
ATOM     24  C   UNL     1       7.592   5.217  14.096  0.00  0.00    +0.000 A 
ATOM     25  C   UNL     1       7.793   5.132  12.718  0.00  0.00    +0.000 A 
ATOM     26  C   UNL     1       7.012   4.269  11.954  0.00  0.00    +0.000 A 
ATOM     27  C   UNL     1       6.037   3.486  12.568  0.00  0.00    +0.000 A 
ATOM     28  C   UNL     1       5.822   3.582  13.946  0.00  0.00    +0.000 A 
ENDBRANCH  22  23
ENDBRANCH  17  22
ENDBRANCH  16  18
ENDBRANCH   1  16
TORSDOF 5
ENDMDL
MODEL 8
REMARK VINA RESULT:      -7.8      6.776     10.174
REMARK  Name = 
REMARK  6 active torsions:
REMARK  status: ('A' for Active; 'I' for Inactive)
REMARK    1  A    between atoms: C_1  and  C_2
REMARK    2  A    between atoms: C_2  and  N_3
REMARK    3  A    between atoms: C_2  and  C_20
REMARK    4  A    between atoms: C_4  and  C_6
REMARK    5  A    between atoms: C_6  and  N_7
REMARK    6  A    between atoms: C_8  and  C_10
REMARK                            x       y       z     vdW  Elec       q    Type
REMARK                         _______ _______ _______ _____ _____    ______ ____
ROOT
ATOM      1  N   UNL     1       0.229   9.902  18.134  0.00  0.00    +0.000 N 
ATOM      2  C   UNL     1      -0.063  10.996  18.905  0.00  0.00    +0.000 C 
ATOM      3  O   UNL     1       0.818  11.759  19.314  0.00  0.00    +0.000 OA
ATOM      4  H   UNL     1      -0.523   9.231  18.003  0.00  0.00    +0.000 HD
ENDROOT
BRANCH   2   5
ATOM      5  C   UNL     1      -1.545  11.195  19.268  0.00  0.00    +0.000 C 
ATOM      6  C   UNL     1      -2.311  11.581  17.993  0.00  0.00    +0.000 C 
ATOM      7  C   UNL     1      -3.770  11.685  18.337  0.00  0.00    +0.000 A 
ATOM      8  C   UNL     1      -4.772  11.199  17.496  0.00  0.00    +0.000 A 
ATOM      9  C   UNL     1      -6.109  11.317  17.877  0.00  0.00    +0.000 A 
ATOM     10  C   UNL     1      -6.438  11.927  19.088  0.00  0.00    +0.000 A 
ATOM     11  C   UNL     1      -5.442  12.425  19.923  0.00  0.00    +0.000 A 
ATOM     12  C   UNL     1      -4.094  12.301  19.561  0.00  0.00    +0.000 A 
ATOM     13  C   UNL     1      -2.974  12.908  20.370  0.00  0.00    +0.000 C 
ATOM     14  N   UNL     1      -1.720  12.133  20.416  0.00  0.00    +0.000 NA
ATOM     15  H   UNL     1      -1.737  11.559  21.264  0.00  0.00    +0.000 HD
ENDBRANCH   2   5
BRANCH   1  16
ATOM     16  C   UNL     1       1.600   9.545  17.804  0.00  0.00    +0.000 C 
BRANCH  16  18
ATOM     17  N   UNL     1       2.777   7.401  17.969  0.00  0.00    +0.000 N 
ATOM     18  C   UNL     1       2.105   8.384  18.668  0.00  0.00    +0.000 C 
ATOM     19  O   UNL     1       1.893   8.330  19.877  0.00  0.00    +0.000 OA
ATOM     20  H   UNL     1       2.786   7.477  16.955  0.00  0.00    +0.000 HD
BRANCH  17  22
ATOM     21  C   UNL     1       4.523   5.657  17.777  0.00  0.00    +0.000 C 
ATOM     22  C   UNL     1       3.391   6.256  18.622  0.00  0.00    +0.000 C 
BRANCH  22  23
ATOM     23  C   UNL     1       2.405   5.145  18.944  0.00  0.00    +0.000 A 
ATOM     24  C   UNL     1       2.028   4.946  20.286  0.00  0.00    +0.000 A 
ATOM     25  C   UNL     1       1.259   3.843  20.658  0.00  0.00    +0.000 A 
ATOM     26  C   UNL     1       0.841   2.931  19.694  0.00  0.00    +0.000 A 
ATOM     27  C   UNL     1       1.181   3.126  18.357  0.00  0.00    +0.000 A 
ATOM     28  C   UNL     1       1.965   4.221  17.984  0.00  0.00    +0.000 A 
ENDBRANCH  22  23
ENDBRANCH  17  22
ENDBRANCH  16  18
ENDBRANCH   1  16
TORSDOF 5
ENDMDL
MODEL 9
REMARK VINA RESULT:      -7.7      5.465      8.156
REMARK  Name = 
REMARK  6 active torsions:
REMARK  status: ('A' for Active; 'I' for Inactive)
REMARK    1  A    between atoms: C_1  and  C_2
REMARK    2  A    between atoms: C_2  and  N_3
REMARK    3  A    between atoms: C_2  and  C_20
REMARK    4  A    between atoms: C_4  and  C_6
REMARK    5  A    between atoms: C_6  and  N_7
REMARK    6  A    between atoms: C_8  and  C_10
REMARK                            x       y       z     vdW  Elec       q    Type
REMARK                         _______ _______ _______ _____ _____    ______ ____
ROOT
ATOM      1  N   UNL     1       1.641   6.319  20.950  0.00  0.00    +0.000 N 
ATOM      2  C   UNL     1       2.067   7.339  20.142  0.00  0.00    +0.000 C 
ATOM      3  O   UNL     1       2.971   7.182  19.316  0.00  0.00    +0.000 OA
ATOM      4  H   UNL     1       1.033   6.580  21.722  0.00  0.00    +0.000 HD
ENDROOT
BRANCH   2   5
ATOM      5  C   UNL     1       1.383   8.701  20.351  0.00  0.00    +0.000 C 
ATOM      6  C   UNL     1       0.230   8.519  21.351  0.00  0.00    +0.000 C 
ATOM      7  C   UNL     1      -0.375   9.869  21.619  0.00  0.00    +0.000 A 
ATOM      8  C   UNL     1      -0.763  10.273  22.897  0.00  0.00    +0.000 A 
ATOM      9  C   UNL     1      -1.309  11.543  23.082  0.00  0.00    +0.000 A 
ATOM     10  C   UNL     1      -1.475  12.397  21.991  0.00  0.00    +0.000 A 
ATOM     11  C   UNL     1      -1.100  11.993  20.713  0.00  0.00    +0.000 A 
ATOM     12  C   UNL     1      -0.537  10.725  20.512  0.00  0.00    +0.000 A 
ATOM     13  C   UNL     1      -0.205  10.188  19.142  0.00  0.00    +0.000 C 
ATOM     14  N   UNL     1       0.999   9.340  19.058  0.00  0.00    +0.000 NA
ATOM     15  H   UNL     1       1.784   9.937  18.781  0.00  0.00    +0.000 HD
ENDBRANCH   2   5
BRANCH   1  16
ATOM     16  C   UNL     1       2.272   5.009  20.923  0.00  0.00    +0.000 C 
BRANCH  16  18
ATOM     17  N   UNL     1       3.442   4.227  18.917  0.00  0.00    +0.000 N 
ATOM     18  C   UNL     1       2.214   4.382  19.526  0.00  0.00    +0.000 C 
ATOM     19  O   UNL     1       1.150   4.075  18.992  0.00  0.00    +0.000 OA
ATOM     20  H   UNL     1       4.248   4.629  19.389  0.00  0.00    +0.000 HD
BRANCH  17  22
ATOM     21  C   UNL     1       3.539   2.058  17.728  0.00  0.00    +0.000 C 
ATOM     22  C   UNL     1       3.599   3.587  17.621  0.00  0.00    +0.000 C 
BRANCH  22  23
ATOM     23  C   UNL     1       4.894   3.959  16.916  0.00  0.00    +0.000 A 
ATOM     24  C   UNL     1       5.999   4.344  17.697  0.00  0.00    +0.000 A 
ATOM     25  C   UNL     1       7.155   4.851  17.101  0.00  0.00    +0.000 A 
ATOM     26  C   UNL     1       7.230   4.965  15.717  0.00  0.00    +0.000 A 
ATOM     27  C   UNL     1       6.155   4.564  14.926  0.00  0.00    +0.000 A 
ATOM     28  C   UNL     1       4.990   4.071  15.520  0.00  0.00    +0.000 A 
ENDBRANCH  22  23
ENDBRANCH  17  22
ENDBRANCH  16  18
ENDBRANCH   1  16
TORSDOF 5
ENDMDL
