MODEL 1
REMARK VINA RESULT:      -8.3      0.000      0.000
REMARK  Name = 
REMARK  6 active torsions:
REMARK  status: ('A' for Active; 'I' for Inactive)
REMARK    1  A    between atoms: C_1  and  C_2
REMARK    2  A    between atoms: C_5  and  N_6
REMARK    3  A    between atoms: N_6  and  C_7
REMARK    4  A    between atoms: N_6  and  S_8
REMARK    5  A    between atoms: S_8  and  C_11
REMARK    6  A    between atoms: C_20  and  C_21
REMARK                            x       y       z     vdW  Elec       q    Type
REMARK                         _______ _______ _______ _____ _____    ______ ____
ROOT
ATOM      1  C   UNL     1       2.479   6.794  19.146  0.00  0.00    +0.000 A 
ATOM      2  C   UNL     1       2.404   7.734  18.118  0.00  0.00    +0.000 A 
ATOM      3  C   UNL     1       1.807   8.972  18.358  0.00  0.00    +0.000 A 
ATOM      4  C   UNL     1       1.278   9.282  19.618  0.00  0.00    +0.000 A 
ATOM      5  C   UNL     1       1.351   8.334  20.649  0.00  0.00    +0.000 A 
ATOM      6  C   UNL     1       1.933   7.081  20.406  0.00  0.00    +0.000 A 
ATOM      7  N   UNL     1       0.922   8.620  21.954  0.00  0.00    +0.000 N 
ATOM      8  C   UNL     1       0.282   9.764  22.369  0.00  0.00    +0.000 C 
ATOM      9  O   UNL     1       0.191   9.987  23.576  0.00  0.00    +0.000 OA
ATOM     10  C   UNL     1      -0.425  10.608  21.314  0.00  0.00    +0.000 C 
ATOM     11  C   UNL     1      -0.892  11.952  21.865  0.00  0.00    +0.000 C 
ATOM     12  S   UNL     1       0.631  10.921  19.868  0.00  0.00    +0.000 S 
ATOM     13  H   UNL     1       1.203   8.005  22.709  0.00  0.00    +0.000 HD
ENDROOT
BRANCH   1  14
ATOM     14  S   UNL     1       3.121   5.160  18.807  0.00  0.00    +0.000 S 
ATOM     15  O   UNL     1       2.393   4.657  17.657  0.00  0.00    +0.000 OA
ATOM     16  O   UNL     1       3.092   4.439  20.063  0.00  0.00    +0.000 OA
BRANCH  14  17
ATOM     17  N   UNL     1       4.733   5.404  18.338  0.00  0.00    +0.000 N 
ATOM     18  C   UNL     1       5.772   5.439  19.372  0.00  0.00    +0.000 C 
BRANCH  17  23
ATOM     19  C   UNL     1       6.398   3.962  13.048  0.00  0.00    +0.000 C 
ATOM     20  C   UNL     1       5.931   4.338  14.423  0.00  0.00    +0.000 A 
ATOM     21  C   UNL     1       5.866   3.383  15.443  0.00  0.00    +0.000 A 
ATOM     22  C   UNL     1       5.466   3.749  16.729  0.00  0.00    +0.000 A 
ATOM     23  C   UNL     1       5.114   5.071  17.004  0.00  0.00    +0.000 A 
ATOM     24  C   UNL     1       5.148   6.026  15.987  0.00  0.00    +0.000 A 
ATOM     25  C   UNL     1       5.561   5.662  14.704  0.00  0.00    +0.000 A 
ENDBRANCH  17  23
ENDBRANCH  14  17
ENDBRANCH   1  14
TORSDOF 3
ENDMDL
MODEL 2
REMARK VINA RESULT:      -7.7      2.039      3.078
REMARK  Name = 
REMARK  6 active torsions:
REMARK  status: ('A' for Active; 'I' for Inactive)
REMARK    1  A    between atoms: C_1  and  C_2
REMARK    2  A    between atoms: C_5  and  N_6
REMARK    3  A    between atoms: N_6  and  C_7
REMARK    4  A    between atoms: N_6  and  S_8
REMARK    5  A    between atoms: S_8  and  C_11
REMARK    6  A    between atoms: C_20  and  C_21
REMARK                            x       y       z     vdW  Elec       q    Type
REMARK                         _______ _______ _______ _____ _____    ______ ____
ROOT
ATOM      1  C   UNL     1       3.689   5.688  18.448  0.00  0.00    +0.000 A 
ATOM      2  C   UNL     1       3.511   6.519  17.341  0.00  0.00    +0.000 A 
ATOM      3  C   UNL     1       2.765   7.690  17.470  0.00  0.00    +0.000 A 
ATOM      4  C   UNL     1       2.189   8.043  18.698  0.00  0.00    +0.000 A 
ATOM      5  C   UNL     1       2.366   7.205  19.809  0.00  0.00    +0.000 A 
ATOM      6  C   UNL     1       3.099   6.016  19.678  0.00  0.00    +0.000 A 
ATOM      7  N   UNL     1       1.891   7.550  21.084  0.00  0.00    +0.000 N 
ATOM      8  C   UNL     1       1.112   8.638  21.396  0.00  0.00    +0.000 C 
ATOM      9  O   UNL     1       0.981   8.954  22.578  0.00  0.00    +0.000 OA
ATOM     10  C   UNL     1       0.318   9.294  20.271  0.00  0.00    +0.000 C 
ATOM     11  C   UNL     1      -0.316  10.613  20.701  0.00  0.00    +0.000 C 
ATOM     12  S   UNL     1       1.343   9.605  18.802  0.00  0.00    +0.000 S 
ATOM     13  H   UNL     1       2.237   7.042  21.890  0.00  0.00    +0.000 HD
ENDROOT
BRANCH   1  14
ATOM     14  S   UNL     1       4.530   4.122  18.255  0.00  0.00    +0.000 S 
ATOM     15  O   UNL     1       3.654   3.274  17.468  0.00  0.00    +0.000 OA
ATOM     16  O   UNL     1       4.946   3.713  19.580  0.00  0.00    +0.000 OA
BRANCH  14  17
ATOM     17  N   UNL     1       5.901   4.466  17.319  0.00  0.00    +0.000 N 
ATOM     18  C   UNL     1       5.988   3.916  15.962  0.00  0.00    +0.000 C 
BRANCH  17  23
ATOM     19  C   UNL     1       8.923   9.126  18.733  0.00  0.00    +0.000 C 
ATOM     20  C   UNL     1       8.155   7.898  18.340  0.00  0.00    +0.000 A 
ATOM     21  C   UNL     1       8.218   6.736  19.117  0.00  0.00    +0.000 A 
ATOM     22  C   UNL     1       7.471   5.611  18.765  0.00  0.00    +0.000 A 
ATOM     23  C   UNL     1       6.665   5.632  17.627  0.00  0.00    +0.000 A 
ATOM     24  C   UNL     1       6.616   6.776  16.829  0.00  0.00    +0.000 A 
ATOM     25  C   UNL     1       7.354   7.907  17.189  0.00  0.00    +0.000 A 
ENDBRANCH  17  23
ENDBRANCH  14  17
ENDBRANCH   1  14
TORSDOF 3
ENDMDL
MODEL 3
REMARK VINA RESULT:      -7.7      1.202      1.461
REMARK  Name = 
REMARK  6 active torsions:
REMARK  status: ('A' for Active; 'I' for Inactive)
REMARK    1  A    between atoms: C_1  and  C_2
REMARK    2  A    between atoms: C_5  and  N_6
REMARK    3  A    between atoms: N_6  and  C_7
REMARK    4  A    between atoms: N_6  and  S_8
REMARK    5  A    between atoms: S_8  and  C_11
REMARK    6  A    between atoms: C_20  and  C_21
REMARK                            x       y       z     vdW  Elec       q    Type
REMARK                         _______ _______ _______ _____ _____    ______ ____
ROOT
ATOM      1  C   UNL     1       2.516   6.948  19.610  0.00  0.00    +0.000 A 
ATOM      2  C   UNL     1       2.463   7.657  18.409  0.00  0.00    +0.000 A 
ATOM      3  C   UNL     1       1.771   8.867  18.351  0.00  0.00    +0.000 A 
ATOM      4  C   UNL     1       1.125   9.379  19.484  0.00  0.00    +0.000 A 
ATOM      5  C   UNL     1       1.175   8.663  20.689  0.00  0.00    +0.000 A 
ATOM      6  C   UNL     1       1.853   7.436  20.746  0.00  0.00    +0.000 A 
ATOM      7  N   UNL     1       0.625   9.168  21.878  0.00  0.00    +0.000 N 
ATOM      8  C   UNL     1      -0.118  10.317  22.007  0.00  0.00    +0.000 C 
ATOM      9  O   UNL     1      -0.321  10.768  23.134  0.00  0.00    +0.000 OA
ATOM     10  C   UNL     1      -0.791  10.877  20.758  0.00  0.00    +0.000 C 
ATOM     11  C   UNL     1      -1.386  12.262  20.991  0.00  0.00    +0.000 C 
ATOM     12  S   UNL     1       0.356  10.978  19.351  0.00  0.00    +0.000 S 
ATOM     13  H   UNL     1       0.883   8.739  22.759  0.00  0.00    +0.000 HD
ENDROOT
BRANCH   1  14
ATOM     14  S   UNL     1       3.286   5.335  19.654  0.00  0.00    +0.000 S 
ATOM     15  O   UNL     1       2.554   4.551  20.631  0.00  0.00    +0.000 OA
ATOM     16  O   UNL     1       4.707   5.563  19.816  0.00  0.00    +0.000 OA
BRANCH  14  17
ATOM     17  N   UNL     1       2.998   4.663  18.124  0.00  0.00    +0.000 N 
ATOM     18  C   UNL     1       1.612   4.479  17.682  0.00  0.00    +0.000 C 
BRANCH  17  23
ATOM     19  C   UNL     1       7.191   4.931  14.226  0.00  0.00    +0.000 C 
ATOM     20  C   UNL     1       6.071   4.865  15.222  0.00  0.00    +0.000 A 
ATOM     21  C   UNL     1       5.633   3.635  15.726  0.00  0.00    +0.000 A 
ATOM     22  C   UNL     1       4.617   3.584  16.680  0.00  0.00    +0.000 A 
ATOM     23  C   UNL     1       4.019   4.761  17.131  0.00  0.00    +0.000 A 
ATOM     24  C   UNL     1       4.427   5.992  16.615  0.00  0.00    +0.000 A 
ATOM     25  C   UNL     1       5.454   6.043  15.669  0.00  0.00    +0.000 A 
ENDBRANCH  17  23
ENDBRANCH  14  17
ENDBRANCH   1  14
TORSDOF 3
ENDMDL
MODEL 4
REMARK VINA RESULT:      -7.7      1.811      2.939
REMARK  Name = 
REMARK  6 active torsions:
REMARK  status: ('A' for Active; 'I' for Inactive)
REMARK    1  A    between atoms: C_1  and  C_2
REMARK    2  A    between atoms: C_5  and  N_6
REMARK    3  A    between atoms: N_6  and  C_7
REMARK    4  A    between atoms: N_6  and  S_8
REMARK    5  A    between atoms: S_8  and  C_11
REMARK    6  A    between atoms: C_20  and  C_21
REMARK                            x       y       z     vdW  Elec       q    Type
REMARK                         _______ _______ _______ _____ _____    ______ ____
ROOT
ATOM      1  C   UNL     1       3.257   5.749  18.573  0.00  0.00    +0.000 A 
ATOM      2  C   UNL     1       3.003   6.552  17.460  0.00  0.00    +0.000 A 
ATOM      3  C   UNL     1       2.335   7.766  17.623  0.00  0.00    +0.000 A 
ATOM      4  C   UNL     1       1.912   8.188  18.891  0.00  0.00    +0.000 A 
ATOM      5  C   UNL     1       2.164   7.377  20.008  0.00  0.00    +0.000 A 
ATOM      6  C   UNL     1       2.818   6.146  19.844  0.00  0.00    +0.000 A 
ATOM      7  N   UNL     1       1.846   7.787  21.312  0.00  0.00    +0.000 N 
ATOM      8  C   UNL     1       1.161   8.926  21.663  0.00  0.00    +0.000 C 
ATOM      9  O   UNL     1       1.173   9.285  22.840  0.00  0.00    +0.000 OA
ATOM     10  C   UNL     1       0.286   9.587  20.604  0.00  0.00    +0.000 C 
ATOM     11  C   UNL     1      -0.231  10.952  21.049  0.00  0.00    +0.000 C 
ATOM     12  S   UNL     1       1.163   9.796  19.025  0.00  0.00    +0.000 S 
ATOM     13  H   UNL     1       2.250   7.287  22.095  0.00  0.00    +0.000 HD
ENDROOT
BRANCH   1  14
ATOM     14  S   UNL     1       3.991   4.134  18.350  0.00  0.00    +0.000 S 
ATOM     15  O   UNL     1       3.048   3.350  17.575  0.00  0.00    +0.000 OA
ATOM     16  O   UNL     1       4.406   3.687  19.664  0.00  0.00    +0.000 OA
BRANCH  14  17
ATOM     17  N   UNL     1       5.363   4.398  17.389  0.00  0.00    +0.000 N 
ATOM     18  C   UNL     1       5.379   3.875  16.019  0.00  0.00    +0.000 C 
BRANCH  17  23
ATOM     19  C   UNL     1       8.821   8.838  18.476  0.00  0.00    +0.000 C 
ATOM     20  C   UNL     1       7.896   7.685  18.217  0.00  0.00    +0.000 A 
ATOM     21  C   UNL     1       6.962   7.737  17.176  0.00  0.00    +0.000 A 
ATOM     22  C   UNL     1       6.132   6.646  16.918  0.00  0.00    +0.000 A 
ATOM     23  C   UNL     1       6.217   5.498  17.704  0.00  0.00    +0.000 A 
ATOM     24  C   UNL     1       7.125   5.445  18.762  0.00  0.00    +0.000 A 
ATOM     25  C   UNL     1       7.966   6.532  19.013  0.00  0.00    +0.000 A 
ENDBRANCH  17  23
ENDBRANCH  14  17
ENDBRANCH   1  14
TORSDOF 3
ENDMDL
MODEL 5
REMARK VINA RESULT:      -7.6      3.139      7.635
REMARK  Name = 
REMARK  6 active torsions:
REMARK  status: ('A' for Active; 'I' for Inactive)
REMARK    1  A    between atoms: C_1  and  C_2
REMARK    2  A    between atoms: C_5  and  N_6
REMARK    3  A    between atoms: N_6  and  C_7
REMARK    4  A    between atoms: N_6  and  S_8
REMARK    5  A    between atoms: S_8  and  C_11
REMARK    6  A    between atoms: C_20  and  C_21
REMARK                            x       y       z     vdW  Elec       q    Type
REMARK                         _______ _______ _______ _____ _____    ______ ____
ROOT
ATOM      1  C   UNL     1       1.400   9.609  19.364  0.00  0.00    +0.000 A 
ATOM      2  C   UNL     1       1.980   9.456  18.104  0.00  0.00    +0.000 A 
ATOM      3  C   UNL     1       2.551   8.233  17.750  0.00  0.00    +0.000 A 
ATOM      4  C   UNL     1       2.553   7.156  18.647  0.00  0.00    +0.000 A 
ATOM      5  C   UNL     1       1.974   7.313  19.915  0.00  0.00    +0.000 A 
ATOM      6  C   UNL     1       1.416   8.547  20.281  0.00  0.00    +0.000 A 
ATOM      7  N   UNL     1       1.865   6.245  20.819  0.00  0.00    +0.000 N 
ATOM      8  C   UNL     1       2.395   4.987  20.661  0.00  0.00    +0.000 C 
ATOM      9  O   UNL     1       2.013   4.085  21.407  0.00  0.00    +0.000 OA
ATOM     10  C   UNL     1       3.550   4.816  19.680  0.00  0.00    +0.000 C 
ATOM     11  C   UNL     1       3.888   3.349  19.432  0.00  0.00    +0.000 C 
ATOM     12  S   UNL     1       3.206   5.602  18.077  0.00  0.00    +0.000 S 
ATOM     13  H   UNL     1       1.242   6.337  21.613  0.00  0.00    +0.000 HD
ENDROOT
BRANCH   1  14
ATOM     14  S   UNL     1       0.788  11.211  19.870  0.00  0.00    +0.000 S 
ATOM     15  O   UNL     1       1.109  12.136  18.799  0.00  0.00    +0.000 OA
ATOM     16  O   UNL     1       1.293  11.439  21.208  0.00  0.00    +0.000 OA
BRANCH  14  17
ATOM     17  N   UNL     1      -0.898  11.044  19.928  0.00  0.00    +0.000 N 
ATOM     18  C   UNL     1      -1.623  11.584  21.083  0.00  0.00    +0.000 C 
BRANCH  17  23
ATOM     19  C   UNL     1      -3.913  10.359  15.102  0.00  0.00    +0.000 C 
ATOM     20  C   UNL     1      -3.100  10.555  16.348  0.00  0.00    +0.000 A 
ATOM     21  C   UNL     1      -3.436  11.551  17.272  0.00  0.00    +0.000 A 
ATOM     22  C   UNL     1      -2.699  11.702  18.447  0.00  0.00    +0.000 A 
ATOM     23  C   UNL     1      -1.610  10.868  18.703  0.00  0.00    +0.000 A 
ATOM     24  C   UNL     1      -1.248   9.890  17.776  0.00  0.00    +0.000 A 
ATOM     25  C   UNL     1      -1.996   9.730  16.606  0.00  0.00    +0.000 A 
ENDBRANCH  17  23
ENDBRANCH  14  17
ENDBRANCH   1  14
TORSDOF 3
ENDMDL
MODEL 6
REMARK VINA RESULT:      -7.5      1.771      2.483
REMARK  Name = 
REMARK  6 active torsions:
REMARK  status: ('A' for Active; 'I' for Inactive)
REMARK    1  A    between atoms: C_1  and  C_2
REMARK    2  A    between atoms: C_5  and  N_6
REMARK    3  A    between atoms: N_6  and  C_7
REMARK    4  A    between atoms: N_6  and  S_8
REMARK    5  A    between atoms: S_8  and  C_11
REMARK    6  A    between atoms: C_20  and  C_21
REMARK                            x       y       z     vdW  Elec       q    Type
REMARK                         _______ _______ _______ _____ _____    ______ ____
ROOT
ATOM      1  C   UNL     1       2.119   5.171  19.104  0.00  0.00    +0.000 A 
ATOM      2  C   UNL     1       2.248   5.896  17.918  0.00  0.00    +0.000 A 
ATOM      3  C   UNL     1       2.106   7.284  17.939  0.00  0.00    +0.000 A 
ATOM      4  C   UNL     1       1.833   7.959  19.137  0.00  0.00    +0.000 A 
ATOM      5  C   UNL     1       1.700   7.228  20.326  0.00  0.00    +0.000 A 
ATOM      6  C   UNL     1       1.822   5.830  20.305  0.00  0.00    +0.000 A 
ATOM      7  N   UNL     1       1.517   7.856  21.568  0.00  0.00    +0.000 N 
ATOM      8  C   UNL     1       1.323   9.200  21.781  0.00  0.00    +0.000 C 
ATOM      9  O   UNL     1       1.428   9.640  22.925  0.00  0.00    +0.000 OA
ATOM     10  C   UNL     1       0.822  10.042  20.612  0.00  0.00    +0.000 C 
ATOM     11  C   UNL     1       0.868  11.537  20.913  0.00  0.00    +0.000 C 
ATOM     12  S   UNL     1       1.774   9.737  19.093  0.00  0.00    +0.000 S 
ATOM     13  H   UNL     1       1.660   7.318  22.415  0.00  0.00    +0.000 HD
ENDROOT
BRANCH   1  14
ATOM     14  S   UNL     1       2.166   3.384  19.059  0.00  0.00    +0.000 S 
ATOM     15  O   UNL     1       1.609   2.985  17.779  0.00  0.00    +0.000 OA
ATOM     16  O   UNL     1       1.563   2.926  20.293  0.00  0.00    +0.000 OA
BRANCH  14  17
ATOM     17  N   UNL     1       3.813   2.982  19.057  0.00  0.00    +0.000 N 
ATOM     18  C   UNL     1       4.197   1.567  19.054  0.00  0.00    +0.000 C 
BRANCH  17  23
ATOM     19  C   UNL     1       7.510   6.944  17.190  0.00  0.00    +0.000 C 
ATOM     20  C   UNL     1       6.566   5.883  17.675  0.00  0.00    +0.000 A 
ATOM     21  C   UNL     1       6.334   5.702  19.043  0.00  0.00    +0.000 A 
ATOM     22  C   UNL     1       5.426   4.739  19.483  0.00  0.00    +0.000 A 
ATOM     23  C   UNL     1       4.750   3.939  18.562  0.00  0.00    +0.000 A 
ATOM     24  C   UNL     1       4.994   4.091  17.197  0.00  0.00    +0.000 A 
ATOM     25  C   UNL     1       5.893   5.065  16.755  0.00  0.00    +0.000 A 
ENDBRANCH  17  23
ENDBRANCH  14  17
ENDBRANCH   1  14
TORSDOF 3
ENDMDL
MODEL 7
REMARK VINA RESULT:      -7.5      3.417      7.985
REMARK  Name = 
REMARK  6 active torsions:
REMARK  status: ('A' for Active; 'I' for Inactive)
REMARK    1  A    between atoms: C_1  and  C_2
REMARK    2  A    between atoms: C_5  and  N_6
REMARK    3  A    between atoms: N_6  and  C_7
REMARK    4  A    between atoms: N_6  and  S_8
REMARK    5  A    between atoms: S_8  and  C_11
REMARK    6  A    between atoms: C_20  and  C_21
REMARK                            x       y       z     vdW  Elec       q    Type
REMARK                         _______ _______ _______ _____ _____    ______ ____
ROOT
ATOM      1  C   UNL     1       1.118   9.595  19.657  0.00  0.00    +0.000 A 
ATOM      2  C   UNL     1       1.631   9.561  18.359  0.00  0.00    +0.000 A 
ATOM      3  C   UNL     1       2.285   8.416  17.905  0.00  0.00    +0.000 A 
ATOM      4  C   UNL     1       2.436   7.298  18.738  0.00  0.00    +0.000 A 
ATOM      5  C   UNL     1       1.923   7.336  20.042  0.00  0.00    +0.000 A 
ATOM      6  C   UNL     1       1.283   8.493  20.509  0.00  0.00    +0.000 A 
ATOM      7  N   UNL     1       1.964   6.217  20.890  0.00  0.00    +0.000 N 
ATOM      8  C   UNL     1       2.592   5.022  20.631  0.00  0.00    +0.000 C 
ATOM      9  O   UNL     1       2.336   4.052  21.344  0.00  0.00    +0.000 OA
ATOM     10  C   UNL     1       3.696   5.009  19.579  0.00  0.00    +0.000 C 
ATOM     11  C   UNL     1       4.146   3.594  19.229  0.00  0.00    +0.000 C 
ATOM     12  S   UNL     1       3.188   5.842  18.045  0.00  0.00    +0.000 S 
ATOM     13  H   UNL     1       1.384   6.210  21.721  0.00  0.00    +0.000 HD
ENDROOT
BRANCH   1  14
ATOM     14  S   UNL     1       0.399  11.106  20.286  0.00  0.00    +0.000 S 
ATOM     15  O   UNL     1       1.415  11.741  21.104  0.00  0.00    +0.000 OA
ATOM     16  O   UNL     1      -0.881  10.744  20.859  0.00  0.00    +0.000 OA
BRANCH  14  17
ATOM     17  N   UNL     1       0.146  12.080  18.921  0.00  0.00    +0.000 N 
ATOM     18  C   UNL     1      -1.182  12.096  18.299  0.00  0.00    +0.000 C 
BRANCH  17  23
ATOM     19  C   UNL     1       3.451  16.674  18.019  0.00  0.00    +0.000 C 
ATOM     20  C   UNL     1       2.603  15.465  18.282  0.00  0.00    +0.000 A 
ATOM     21  C   UNL     1       1.323  15.595  18.834  0.00  0.00    +0.000 A 
ATOM     22  C   UNL     1       0.526  14.469  19.041  0.00  0.00    +0.000 A 
ATOM     23  C   UNL     1       1.004  13.201  18.712  0.00  0.00    +0.000 A 
ATOM     24  C   UNL     1       2.290  13.056  18.188  0.00  0.00    +0.000 A 
ATOM     25  C   UNL     1       3.082  14.185  17.968  0.00  0.00    +0.000 A 
ENDBRANCH  17  23
ENDBRANCH  14  17
ENDBRANCH   1  14
TORSDOF 3
ENDMDL
MODEL 8
REMARK VINA RESULT:      -7.5      1.623      1.963
REMARK  Name = 
REMARK  6 active torsions:
REMARK  status: ('A' for Active; 'I' for Inactive)
REMARK    1  A    between atoms: C_1  and  C_2
REMARK    2  A    between atoms: C_5  and  N_6
REMARK    3  A    between atoms: N_6  and  C_7
REMARK    4  A    between atoms: N_6  and  S_8
REMARK    5  A    between atoms: S_8  and  C_11
REMARK    6  A    between atoms: C_20  and  C_21
REMARK                            x       y       z     vdW  Elec       q    Type
REMARK                         _______ _______ _______ _____ _____    ______ ____
ROOT
ATOM      1  C   UNL     1       2.266   5.350  19.454  0.00  0.00    +0.000 A 
ATOM      2  C   UNL     1       2.479   5.923  18.199  0.00  0.00    +0.000 A 
ATOM      3  C   UNL     1       2.273   7.290  18.020  0.00  0.00    +0.000 A 
ATOM      4  C   UNL     1       1.852   8.098  19.086  0.00  0.00    +0.000 A 
ATOM      5  C   UNL     1       1.634   7.520  20.345  0.00  0.00    +0.000 A 
ATOM      6  C   UNL     1       1.821   6.141  20.523  0.00  0.00    +0.000 A 
ATOM      7  N   UNL     1       1.300   8.291  21.470  0.00  0.00    +0.000 N 
ATOM      8  C   UNL     1       1.024   9.637  21.481  0.00  0.00    +0.000 C 
ATOM      9  O   UNL     1       0.995  10.227  22.561  0.00  0.00    +0.000 OA
ATOM     10  C   UNL     1       0.605  10.291  20.168  0.00  0.00    +0.000 C 
ATOM     11  C   UNL     1       0.552  11.812  20.270  0.00  0.00    +0.000 C 
ATOM     12  S   UNL     1       1.716   9.849  18.799  0.00  0.00    +0.000 S 
ATOM     13  H   UNL     1       1.382   7.876  22.391  0.00  0.00    +0.000 HD
ENDROOT
BRANCH   1  14
ATOM     14  S   UNL     1       2.399   3.578  19.653  0.00  0.00    +0.000 S 
ATOM     15  O   UNL     1       1.773   2.980  18.489  0.00  0.00    +0.000 OA
ATOM     16  O   UNL     1       1.909   3.277  20.982  0.00  0.00    +0.000 OA
BRANCH  14  17
ATOM     17  N   UNL     1       4.060   3.245  19.580  0.00  0.00    +0.000 N 
ATOM     18  C   UNL     1       4.582   2.084  20.307  0.00  0.00    +0.000 C 
BRANCH  17  23
ATOM     19  C   UNL     1       7.062   5.071  15.052  0.00  0.00    +0.000 C 
ATOM     20  C   UNL     1       6.260   4.622  16.237  0.00  0.00    +0.000 A 
ATOM     21  C   UNL     1       5.179   3.747  16.080  0.00  0.00    +0.000 A 
ATOM     22  C   UNL     1       4.462   3.304  17.192  0.00  0.00    +0.000 A 
ATOM     23  C   UNL     1       4.808   3.742  18.470  0.00  0.00    +0.000 A 
ATOM     24  C   UNL     1       5.866   4.637  18.636  0.00  0.00    +0.000 A 
ATOM     25  C   UNL     1       6.593   5.069  17.524  0.00  0.00    +0.000 A 
ENDBRANCH  17  23
ENDBRANCH  14  17
ENDBRANCH   1  14
TORSDOF 3
ENDMDL
MODEL 9
REMARK VINA RESULT:      -7.4      1.681      2.110
REMARK  Name = 
REMARK  6 active torsions:
REMARK  status: ('A' for Active; 'I' for Inactive)
REMARK    1  A    between atoms: C_1  and  C_2
REMARK    2  A    between atoms: C_5  and  N_6
REMARK    3  A    between atoms: N_6  and  C_7
REMARK    4  A    between atoms: N_6  and  S_8
REMARK    5  A    between atoms: S_8  and  C_11
REMARK    6  A    between atoms: C_20  and  C_21
REMARK                            x       y       z     vdW  Elec       q    Type
REMARK                         _______ _______ _______ _____ _____    ______ ____
ROOT
ATOM      1  C   UNL     1       2.219   5.462  19.506  0.00  0.00    +0.000 A 
ATOM      2  C   UNL     1       2.480   5.943  18.222  0.00  0.00    +0.000 A 
ATOM      3  C   UNL     1       2.310   7.300  17.945  0.00  0.00    +0.000 A 
ATOM      4  C   UNL     1       1.877   8.186  18.940  0.00  0.00    +0.000 A 
ATOM      5  C   UNL     1       1.610   7.700  20.228  0.00  0.00    +0.000 A 
ATOM      6  C   UNL     1       1.761   6.333  20.505  0.00  0.00    +0.000 A 
ATOM      7  N   UNL     1       1.261   8.553  21.287  0.00  0.00    +0.000 N 
ATOM      8  C   UNL     1       1.015   9.903  21.199  0.00  0.00    +0.000 C 
ATOM      9  O   UNL     1       0.968  10.565  22.235  0.00  0.00    +0.000 OA
ATOM     10  C   UNL     1       0.649  10.473  19.833  0.00  0.00    +0.000 C 
ATOM     11  C   UNL     1       0.627  11.999  19.830  0.00  0.00    +0.000 C 
ATOM     12  S   UNL     1       1.788   9.916  18.531  0.00  0.00    +0.000 S 
ATOM     13  H   UNL     1       1.307   8.201  22.237  0.00  0.00    +0.000 HD
ENDROOT
BRANCH   1  14
ATOM     14  S   UNL     1       2.306   3.706  19.829  0.00  0.00    +0.000 S 
ATOM     15  O   UNL     1       1.620   3.046  18.733  0.00  0.00    +0.000 OA
ATOM     16  O   UNL     1       1.857   3.516  21.192  0.00  0.00    +0.000 OA
BRANCH  14  17
ATOM     17  N   UNL     1       3.953   3.315  19.722  0.00  0.00    +0.000 N 
ATOM     18  C   UNL     1       4.458   2.165  20.479  0.00  0.00    +0.000 C 
BRANCH  17  23
ATOM     19  C   UNL     1       6.892   5.209  15.181  0.00  0.00    +0.000 C 
ATOM     20  C   UNL     1       6.140   4.685  16.369  0.00  0.00    +0.000 A 
ATOM     21  C   UNL     1       6.472   5.097  17.664  0.00  0.00    +0.000 A 
ATOM     22  C   UNL     1       5.743   4.634  18.760  0.00  0.00    +0.000 A 
ATOM     23  C   UNL     1       4.684   3.745  18.574  0.00  0.00    +0.000 A 
ATOM     24  C   UNL     1       4.363   3.305  17.289  0.00  0.00    +0.000 A 
ATOM     25  C   UNL     1       5.084   3.779  16.191  0.00  0.00    +0.000 A 
ENDBRANCH  17  23
ENDBRANCH  14  17
ENDBRANCH   1  14
TORSDOF 3
ENDMDL
