MODEL 1
REMARK VINA RESULT:      -8.2      0.000      0.000
REMARK  Name = 
REMARK  8 active torsions:
REMARK  status: ('A' for Active; 'I' for Inactive)
REMARK    1  A    between atoms: C_1  and  C_2
REMARK    2  A    between atoms: C_2  and  C_3
REMARK    3  A    between atoms: C_3  and  C_4
REMARK    4  A    between atoms: C_4  and  C_5
REMARK    5  A    between atoms: C_4  and  N_6
REMARK    6  A    between atoms: C_7  and  C_9
REMARK    7  A    between atoms: C_11  and  C_12
REMARK    8  A    between atoms: C_20  and  N_21
REMARK                            x       y       z     vdW  Elec       q    Type
REMARK                         _______ _______ _______ _____ _____    ______ ____
ROOT
ATOM      1  C   UNL     1       6.211   5.037  16.046  0.00  0.00    +0.000 A 
ATOM      2  N   UNL     1       5.165   4.229  16.409  0.00  0.00    +0.000 NA
ATOM      3  C   UNL     1       4.537   4.570  17.570  0.00  0.00    +0.000 A 
ATOM      4  C   UNL     1       4.994   5.650  18.330  0.00  0.00    +0.000 A 
ATOM      5  N   UNL     1       6.044   6.432  17.980  0.00  0.00    +0.000 NA
ATOM      6  C   UNL     1       6.655   6.127  16.817  0.00  0.00    +0.000 A 
ENDROOT
BRANCH   3   7
ATOM      7  C   UNL     1       3.363   3.766  17.958  0.00  0.00    +0.000 A 
ATOM      8  C   UNL     1       2.063   4.289  17.849  0.00  0.00    +0.000 A 
ATOM      9  C   UNL     1       0.942   3.546  18.235  0.00  0.00    +0.000 A 
ATOM     10  C   UNL     1       1.098   2.259  18.741  0.00  0.00    +0.000 A 
ATOM     11  C   UNL     1       2.371   1.712  18.853  0.00  0.00    +0.000 A 
ATOM     12  C   UNL     1       3.491   2.457  18.466  0.00  0.00    +0.000 A 
ENDBRANCH   3   7
BRANCH   1  14
ATOM     13  N   UNL     1       6.208   3.804  13.937  0.00  0.00    +0.000 N 
ATOM     14  C   UNL     1       6.851   4.747  14.723  0.00  0.00    +0.000 C 
ATOM     15  O   UNL     1       7.876   5.329  14.373  0.00  0.00    +0.000 OA
ATOM     16  H   UNL     1       5.289   3.504  14.247  0.00  0.00    +0.000 HD
BRANCH  13  17
ATOM     17  C   UNL     1       6.690   3.448  12.604  0.00  0.00    +0.000 C 
ATOM     18  C   UNL     1       7.203   4.694  11.880  0.00  0.00    +0.000 C 
BRANCH  17  19
ATOM     19  C   UNL     1       5.583   2.721  11.818  0.00  0.00    +0.000 C 
BRANCH  19  21
ATOM     20  C   UNL     1       3.501   3.259  10.487  0.00  0.00    +0.000 C 
ATOM     21  C   UNL     1       4.255   3.485  11.788  0.00  0.00    +0.000 C 
ENDBRANCH  19  21
ENDBRANCH  17  19
ENDBRANCH  13  17
ENDBRANCH   1  14
BRANCH   6  22
ATOM     22  N   UNL     1       7.787   6.881  16.538  0.00  0.00    +0.000 N 
ATOM     23  H   UNL     1       7.513   7.761  16.118  0.00  0.00    +0.000 HD
ATOM     24  H   UNL     1       8.477   6.351  16.005  0.00  0.00    +0.000 HD
ENDBRANCH   6  22
TORSDOF 6
ENDMDL
MODEL 2
REMARK VINA RESULT:      -8.1      1.433      1.533
REMARK  Name = 
REMARK  8 active torsions:
REMARK  status: ('A' for Active; 'I' for Inactive)
REMARK    1  A    between atoms: C_1  and  C_2
REMARK    2  A    between atoms: C_2  and  C_3
REMARK    3  A    between atoms: C_3  and  C_4
REMARK    4  A    between atoms: C_4  and  C_5
REMARK    5  A    between atoms: C_4  and  N_6
REMARK    6  A    between atoms: C_7  and  C_9
REMARK    7  A    between atoms: C_11  and  C_12
REMARK    8  A    between atoms: C_20  and  N_21
REMARK                            x       y       z     vdW  Elec       q    Type
REMARK                         _______ _______ _______ _____ _____    ______ ____
ROOT
ATOM      1  C   UNL     1       5.612   4.338  16.515  0.00  0.00    +0.000 A 
ATOM      2  N   UNL     1       4.356   4.028  16.968  0.00  0.00    +0.000 NA
ATOM      3  C   UNL     1       4.230   3.924  18.321  0.00  0.00    +0.000 A 
ATOM      4  C   UNL     1       5.344   4.084  19.149  0.00  0.00    +0.000 A 
ATOM      5  N   UNL     1       6.590   4.366  18.696  0.00  0.00    +0.000 NA
ATOM      6  C   UNL     1       6.724   4.504  17.361  0.00  0.00    +0.000 A 
ENDROOT
BRANCH   3   7
ATOM      7  C   UNL     1       2.878   3.661  18.851  0.00  0.00    +0.000 A 
ATOM      8  C   UNL     1       2.394   4.361  19.970  0.00  0.00    +0.000 A 
ATOM      9  C   UNL     1       1.123   4.105  20.496  0.00  0.00    +0.000 A 
ATOM     10  C   UNL     1       0.307   3.140  19.914  0.00  0.00    +0.000 A 
ATOM     11  C   UNL     1       0.756   2.438  18.801  0.00  0.00    +0.000 A 
ATOM     12  C   UNL     1       2.028   2.695  18.276  0.00  0.00    +0.000 A 
ENDBRANCH   3   7
BRANCH   1  14
ATOM     13  N   UNL     1       6.031   3.430  14.286  0.00  0.00    +0.000 N 
ATOM     14  C   UNL     1       5.754   4.559  15.040  0.00  0.00    +0.000 C 
ATOM     15  O   UNL     1       5.618   5.678  14.551  0.00  0.00    +0.000 OA
ATOM     16  H   UNL     1       5.965   2.536  14.763  0.00  0.00    +0.000 HD
BRANCH  13  17
ATOM     17  C   UNL     1       6.155   3.482  12.831  0.00  0.00    +0.000 C 
ATOM     18  C   UNL     1       7.309   4.403  12.434  0.00  0.00    +0.000 C 
BRANCH  17  19
ATOM     19  C   UNL     1       4.816   3.906  12.200  0.00  0.00    +0.000 C 
BRANCH  19  21
ATOM     20  C   UNL     1       3.277   3.561  10.224  0.00  0.00    +0.000 C 
ATOM     21  C   UNL     1       4.296   2.918  11.151  0.00  0.00    +0.000 C 
ENDBRANCH  19  21
ENDBRANCH  17  19
ENDBRANCH  13  17
ENDBRANCH   1  14
BRANCH   6  22
ATOM     22  N   UNL     1       8.027   4.691  16.922  0.00  0.00    +0.000 N 
ATOM     23  H   UNL     1       8.082   4.500  15.928  0.00  0.00    +0.000 HD
ATOM     24  H   UNL     1       8.700   4.176  17.492  0.00  0.00    +0.000 HD
ENDBRANCH   6  22
TORSDOF 6
ENDMDL
MODEL 3
REMARK VINA RESULT:      -8.1      0.061      1.051
REMARK  Name = 
REMARK  8 active torsions:
REMARK  status: ('A' for Active; 'I' for Inactive)
REMARK    1  A    between atoms: C_1  and  C_2
REMARK    2  A    between atoms: C_2  and  C_3
REMARK    3  A    between atoms: C_3  and  C_4
REMARK    4  A    between atoms: C_4  and  C_5
REMARK    5  A    between atoms: C_4  and  N_6
REMARK    6  A    between atoms: C_7  and  C_9
REMARK    7  A    between atoms: C_11  and  C_12
REMARK    8  A    between atoms: C_20  and  N_21
REMARK                            x       y       z     vdW  Elec       q    Type
REMARK                         _______ _______ _______ _____ _____    ______ ____
ROOT
ATOM      1  C   UNL     1       6.199   5.010  16.056  0.00  0.00    +0.000 A 
ATOM      2  N   UNL     1       5.151   4.211  16.434  0.00  0.00    +0.000 NA
ATOM      3  C   UNL     1       4.534   4.564  17.597  0.00  0.00    +0.000 A 
ATOM      4  C   UNL     1       5.004   5.647  18.344  0.00  0.00    +0.000 A 
ATOM      5  N   UNL     1       6.056   6.421  17.980  0.00  0.00    +0.000 NA
ATOM      6  C   UNL     1       6.656   6.103  16.815  0.00  0.00    +0.000 A 
ENDROOT
BRANCH   3   7
ATOM      7  C   UNL     1       3.359   3.771  18.001  0.00  0.00    +0.000 A 
ATOM      8  C   UNL     1       3.507   2.461  18.491  0.00  0.00    +0.000 A 
ATOM      9  C   UNL     1       2.399   1.689  18.856  0.00  0.00    +0.000 A 
ATOM     10  C   UNL     1       1.114   2.212  18.739  0.00  0.00    +0.000 A 
ATOM     11  C   UNL     1       0.937   3.506  18.265  0.00  0.00    +0.000 A 
ATOM     12  C   UNL     1       2.047   4.277  17.899  0.00  0.00    +0.000 A 
ENDBRANCH   3   7
BRANCH   1  14
ATOM     13  N   UNL     1       6.172   3.762  13.956  0.00  0.00    +0.000 N 
ATOM     14  C   UNL     1       6.827   4.706  14.730  0.00  0.00    +0.000 C 
ATOM     15  O   UNL     1       7.853   5.278  14.369  0.00  0.00    +0.000 OA
ATOM     16  H   UNL     1       5.253   3.470  14.275  0.00  0.00    +0.000 HD
BRANCH  13  17
ATOM     17  C   UNL     1       6.641   3.393  12.622  0.00  0.00    +0.000 C 
ATOM     18  C   UNL     1       7.204   4.620  11.905  0.00  0.00    +0.000 C 
BRANCH  17  19
ATOM     19  C   UNL     1       5.507   2.715  11.832  0.00  0.00    +0.000 C 
BRANCH  19  21
ATOM     20  C   UNL     1       3.412   3.183  10.494  0.00  0.00    +0.000 C 
ATOM     21  C   UNL     1       4.254   3.586  11.694  0.00  0.00    +0.000 C 
ENDBRANCH  19  21
ENDBRANCH  17  19
ENDBRANCH  13  17
ENDBRANCH   1  14
BRANCH   6  22
ATOM     22  N   UNL     1       7.790   6.848  16.522  0.00  0.00    +0.000 N 
ATOM     23  H   UNL     1       7.610   7.828  16.708  0.00  0.00    +0.000 HD
ATOM     24  H   UNL     1       8.145   6.651  15.586  0.00  0.00    +0.000 HD
ENDBRANCH   6  22
TORSDOF 6
ENDMDL
MODEL 4
REMARK VINA RESULT:      -8.1      1.418      1.624
REMARK  Name = 
REMARK  8 active torsions:
REMARK  status: ('A' for Active; 'I' for Inactive)
REMARK    1  A    between atoms: C_1  and  C_2
REMARK    2  A    between atoms: C_2  and  C_3
REMARK    3  A    between atoms: C_3  and  C_4
REMARK    4  A    between atoms: C_4  and  C_5
REMARK    5  A    between atoms: C_4  and  N_6
REMARK    6  A    between atoms: C_7  and  C_9
REMARK    7  A    between atoms: C_11  and  C_12
REMARK    8  A    between atoms: C_20  and  N_21
REMARK                            x       y       z     vdW  Elec       q    Type
REMARK                         _______ _______ _______ _____ _____    ______ ____
ROOT
ATOM      1  C   UNL     1       5.612   4.321  16.453  0.00  0.00    +0.000 A 
ATOM      2  N   UNL     1       4.369   4.003  16.937  0.00  0.00    +0.000 NA
ATOM      3  C   UNL     1       4.273   3.915  18.293  0.00  0.00    +0.000 A 
ATOM      4  C   UNL     1       5.403   4.096  19.095  0.00  0.00    +0.000 A 
ATOM      5  N   UNL     1       6.636   4.386  18.612  0.00  0.00    +0.000 NA
ATOM      6  C   UNL     1       6.739   4.509  17.272  0.00  0.00    +0.000 A 
ENDROOT
BRANCH   3   7
ATOM      7  C   UNL     1       2.937   3.643  18.855  0.00  0.00    +0.000 A 
ATOM      8  C   UNL     1       2.121   2.633  18.318  0.00  0.00    +0.000 A 
ATOM      9  C   UNL     1       0.842   2.380  18.827  0.00  0.00    +0.000 A 
ATOM     10  C   UNL     1       0.350   3.134  19.888  0.00  0.00    +0.000 A 
ATOM     11  C   UNL     1       1.138   4.135  20.444  0.00  0.00    +0.000 A 
ATOM     12  C   UNL     1       2.417   4.387  19.934  0.00  0.00    +0.000 A 
ENDBRANCH   3   7
BRANCH   1  14
ATOM     13  N   UNL     1       5.976   3.389  14.224  0.00  0.00    +0.000 N 
ATOM     14  C   UNL     1       5.720   4.527  14.973  0.00  0.00    +0.000 C 
ATOM     15  O   UNL     1       5.575   5.641  14.476  0.00  0.00    +0.000 OA
ATOM     16  H   UNL     1       5.919   2.501  14.713  0.00  0.00    +0.000 HD
BRANCH  13  17
ATOM     17  C   UNL     1       6.066   3.425  12.766  0.00  0.00    +0.000 C 
ATOM     18  C   UNL     1       7.254   4.284  12.334  0.00  0.00    +0.000 C 
BRANCH  17  19
ATOM     19  C   UNL     1       4.734   3.912  12.166  0.00  0.00    +0.000 C 
BRANCH  19  21
ATOM     20  C   UNL     1       3.254   3.680  10.129  0.00  0.00    +0.000 C 
ATOM     21  C   UNL     1       4.150   2.956  11.121  0.00  0.00    +0.000 C 
ENDBRANCH  19  21
ENDBRANCH  17  19
ENDBRANCH  13  17
ENDBRANCH   1  14
BRANCH   6  22
ATOM     22  N   UNL     1       8.031   4.705  16.803  0.00  0.00    +0.000 N 
ATOM     23  H   UNL     1       8.454   3.809  16.590  0.00  0.00    +0.000 HD
ATOM     24  H   UNL     1       8.579   5.296  17.429  0.00  0.00    +0.000 HD
ENDBRANCH   6  22
TORSDOF 6
ENDMDL
MODEL 5
REMARK VINA RESULT:      -8.1      0.935      1.476
REMARK  Name = 
REMARK  8 active torsions:
REMARK  status: ('A' for Active; 'I' for Inactive)
REMARK    1  A    between atoms: C_1  and  C_2
REMARK    2  A    between atoms: C_2  and  C_3
REMARK    3  A    between atoms: C_3  and  C_4
REMARK    4  A    between atoms: C_4  and  C_5
REMARK    5  A    between atoms: C_4  and  N_6
REMARK    6  A    between atoms: C_7  and  C_9
REMARK    7  A    between atoms: C_11  and  C_12
REMARK    8  A    between atoms: C_20  and  N_21
REMARK                            x       y       z     vdW  Elec       q    Type
REMARK                         _______ _______ _______ _____ _____    ______ ____
ROOT
ATOM      1  C   UNL     1       5.829   4.803  15.814  0.00  0.00    +0.000 A 
ATOM      2  N   UNL     1       4.750   4.087  16.262  0.00  0.00    +0.000 NA
ATOM      3  C   UNL     1       4.366   4.347  17.544  0.00  0.00    +0.000 A 
ATOM      4  C   UNL     1       5.084   5.255  18.326  0.00  0.00    +0.000 A 
ATOM      5  N   UNL     1       6.166   5.944  17.887  0.00  0.00    +0.000 NA
ATOM      6  C   UNL     1       6.538   5.721  16.610  0.00  0.00    +0.000 A 
ENDROOT
BRANCH   3   7
ATOM      7  C   UNL     1       3.166   3.647  18.040  0.00  0.00    +0.000 A 
ATOM      8  C   UNL     1       1.878   4.133  17.755  0.00  0.00    +0.000 A 
ATOM      9  C   UNL     1       0.733   3.492  18.238  0.00  0.00    +0.000 A 
ATOM     10  C   UNL     1       0.850   2.346  19.019  0.00  0.00    +0.000 A 
ATOM     11  C   UNL     1       2.111   1.838  19.311  0.00  0.00    +0.000 A 
ATOM     12  C   UNL     1       3.256   2.481  18.827  0.00  0.00    +0.000 A 
ENDBRANCH   3   7
BRANCH   1  14
ATOM     13  N   UNL     1       5.403   3.746  13.653  0.00  0.00    +0.000 N 
ATOM     14  C   UNL     1       6.206   4.613  14.376  0.00  0.00    +0.000 C 
ATOM     15  O   UNL     1       7.165   5.208  13.889  0.00  0.00    +0.000 OA
ATOM     16  H   UNL     1       4.549   3.433  14.104  0.00  0.00    +0.000 HD
BRANCH  13  17
ATOM     17  C   UNL     1       5.621   3.493  12.231  0.00  0.00    +0.000 C 
ATOM     18  C   UNL     1       4.279   3.377  11.506  0.00  0.00    +0.000 C 
BRANCH  17  19
ATOM     19  C   UNL     1       6.503   2.245  12.044  0.00  0.00    +0.000 C 
BRANCH  19  21
ATOM     20  C   UNL     1       6.227  -0.178  11.374  0.00  0.00    +0.000 C 
ATOM     21  C   UNL     1       5.966   1.271  10.991  0.00  0.00    +0.000 C 
ENDBRANCH  19  21
ENDBRANCH  17  19
ENDBRANCH  13  17
ENDBRANCH   1  14
BRANCH   6  22
ATOM     22  N   UNL     1       7.707   6.363  16.224  0.00  0.00    +0.000 N 
ATOM     23  H   UNL     1       8.002   6.999  16.955  0.00  0.00    +0.000 HD
ATOM     24  H   UNL     1       7.622   6.787  15.300  0.00  0.00    +0.000 HD
ENDBRANCH   6  22
TORSDOF 6
ENDMDL
MODEL 6
REMARK VINA RESULT:      -8.0      1.506      2.023
REMARK  Name = 
REMARK  8 active torsions:
REMARK  status: ('A' for Active; 'I' for Inactive)
REMARK    1  A    between atoms: C_1  and  C_2
REMARK    2  A    between atoms: C_2  and  C_3
REMARK    3  A    between atoms: C_3  and  C_4
REMARK    4  A    between atoms: C_4  and  C_5
REMARK    5  A    between atoms: C_4  and  N_6
REMARK    6  A    between atoms: C_7  and  C_9
REMARK    7  A    between atoms: C_11  and  C_12
REMARK    8  A    between atoms: C_20  and  N_21
REMARK                            x       y       z     vdW  Elec       q    Type
REMARK                         _______ _______ _______ _____ _____    ______ ____
ROOT
ATOM      1  C   UNL     1       5.593   4.345  16.253  0.00  0.00    +0.000 A 
ATOM      2  N   UNL     1       4.353   4.020  16.737  0.00  0.00    +0.000 NA
ATOM      3  C   UNL     1       4.265   3.900  18.092  0.00  0.00    +0.000 A 
ATOM      4  C   UNL     1       5.401   4.058  18.890  0.00  0.00    +0.000 A 
ATOM      5  N   UNL     1       6.632   4.355  18.406  0.00  0.00    +0.000 NA
ATOM      6  C   UNL     1       6.727   4.509  17.069  0.00  0.00    +0.000 A 
ENDROOT
BRANCH   3   7
ATOM      7  C   UNL     1       2.931   3.620  18.656  0.00  0.00    +0.000 A 
ATOM      8  C   UNL     1       2.137   2.577  18.146  0.00  0.00    +0.000 A 
ATOM      9  C   UNL     1       0.861   2.316  18.657  0.00  0.00    +0.000 A 
ATOM     10  C   UNL     1       0.350   3.093  19.691  0.00  0.00    +0.000 A 
ATOM     11  C   UNL     1       1.115   4.126  20.220  0.00  0.00    +0.000 A 
ATOM     12  C   UNL     1       2.391   4.387  19.708  0.00  0.00    +0.000 A 
ENDBRANCH   3   7
BRANCH   1  14
ATOM     13  N   UNL     1       5.827   3.452  13.991  0.00  0.00    +0.000 N 
ATOM     14  C   UNL     1       5.693   4.584  14.777  0.00  0.00    +0.000 C 
ATOM     15  O   UNL     1       5.645   5.722  14.316  0.00  0.00    +0.000 OA
ATOM     16  H   UNL     1       5.696   2.558  14.455  0.00  0.00    +0.000 HD
BRANCH  13  17
ATOM     17  C   UNL     1       5.893   3.523  12.533  0.00  0.00    +0.000 C 
ATOM     18  C   UNL     1       4.490   3.404  11.938  0.00  0.00    +0.000 C 
BRANCH  17  19
ATOM     19  C   UNL     1       6.858   2.452  11.994  0.00  0.00    +0.000 C 
BRANCH  19  21
ATOM     20  C   UNL     1       6.235   0.088  11.343  0.00  0.00    +0.000 C 
ATOM     21  C   UNL     1       6.232   1.551  10.924  0.00  0.00    +0.000 C 
ENDBRANCH  19  21
ENDBRANCH  17  19
ENDBRANCH  13  17
ENDBRANCH   1  14
BRANCH   6  22
ATOM     22  N   UNL     1       8.017   4.711  16.597  0.00  0.00    +0.000 N 
ATOM     23  H   UNL     1       8.500   5.366  17.201  0.00  0.00    +0.000 HD
ATOM     24  H   UNL     1       8.027   4.958  15.607  0.00  0.00    +0.000 HD
ENDBRANCH   6  22
TORSDOF 6
ENDMDL
MODEL 7
REMARK VINA RESULT:      -7.9      3.080      4.233
REMARK  Name = 
REMARK  8 active torsions:
REMARK  status: ('A' for Active; 'I' for Inactive)
REMARK    1  A    between atoms: C_1  and  C_2
REMARK    2  A    between atoms: C_2  and  C_3
REMARK    3  A    between atoms: C_3  and  C_4
REMARK    4  A    between atoms: C_4  and  C_5
REMARK    5  A    between atoms: C_4  and  N_6
REMARK    6  A    between atoms: C_7  and  C_9
REMARK    7  A    between atoms: C_11  and  C_12
REMARK    8  A    between atoms: C_20  and  N_21
REMARK                            x       y       z     vdW  Elec       q    Type
REMARK                         _______ _______ _______ _____ _____    ______ ____
ROOT
ATOM      1  C   UNL     1       4.583   4.605  18.251  0.00  0.00    +0.000 A 
ATOM      2  N   UNL     1       3.926   5.804  18.154  0.00  0.00    +0.000 NA
ATOM      3  C   UNL     1       3.017   6.056  19.138  0.00  0.00    +0.000 A 
ATOM      4  C   UNL     1       2.771   5.105  20.132  0.00  0.00    +0.000 A 
ATOM      5  N   UNL     1       3.405   3.909  20.211  0.00  0.00    +0.000 NA
ATOM      6  C   UNL     1       4.330   3.660  19.262  0.00  0.00    +0.000 A 
ENDROOT
BRANCH   3   7
ATOM      7  C   UNL     1       2.340   7.366  19.107  0.00  0.00    +0.000 A 
ATOM      8  C   UNL     1       2.330   8.144  17.936  0.00  0.00    +0.000 A 
ATOM      9  C   UNL     1       1.711   9.398  17.899  0.00  0.00    +0.000 A 
ATOM     10  C   UNL     1       1.087   9.903  19.037  0.00  0.00    +0.000 A 
ATOM     11  C   UNL     1       1.076   9.153  20.207  0.00  0.00    +0.000 A 
ATOM     12  C   UNL     1       1.695   7.898  20.242  0.00  0.00    +0.000 A 
ENDBRANCH   3   7
BRANCH   1  14
ATOM     13  N   UNL     1       5.237   4.227  15.928  0.00  0.00    +0.000 N 
ATOM     14  C   UNL     1       5.660   4.350  17.241  0.00  0.00    +0.000 C 
ATOM     15  O   UNL     1       6.839   4.270  17.579  0.00  0.00    +0.000 OA
ATOM     16  H   UNL     1       4.269   4.467  15.737  0.00  0.00    +0.000 HD
BRANCH  13  17
ATOM     17  C   UNL     1       6.176   4.019  14.827  0.00  0.00    +0.000 C 
ATOM     18  C   UNL     1       7.150   5.195  14.739  0.00  0.00    +0.000 C 
BRANCH  17  19
ATOM     19  C   UNL     1       5.408   3.787  13.513  0.00  0.00    +0.000 C 
BRANCH  19  21
ATOM     20  C   UNL     1       5.766   2.222  11.559  0.00  0.00    +0.000 C 
ATOM     21  C   UNL     1       6.313   3.409  12.337  0.00  0.00    +0.000 C 
ENDBRANCH  19  21
ENDBRANCH  17  19
ENDBRANCH  13  17
ENDBRANCH   1  14
BRANCH   6  22
ATOM     22  N   UNL     1       4.887   2.389  19.311  0.00  0.00    +0.000 N 
ATOM     23  H   UNL     1       5.895   2.457  19.232  0.00  0.00    +0.000 HD
ATOM     24  H   UNL     1       4.449   1.755  18.643  0.00  0.00    +0.000 HD
ENDBRANCH   6  22
TORSDOF 6
ENDMDL
MODEL 8
REMARK VINA RESULT:      -7.9      1.130      1.609
REMARK  Name = 
REMARK  8 active torsions:
REMARK  status: ('A' for Active; 'I' for Inactive)
REMARK    1  A    between atoms: C_1  and  C_2
REMARK    2  A    between atoms: C_2  and  C_3
REMARK    3  A    between atoms: C_3  and  C_4
REMARK    4  A    between atoms: C_4  and  C_5
REMARK    5  A    between atoms: C_4  and  N_6
REMARK    6  A    between atoms: C_7  and  C_9
REMARK    7  A    between atoms: C_11  and  C_12
REMARK    8  A    between atoms: C_20  and  N_21
REMARK                            x       y       z     vdW  Elec       q    Type
REMARK                         _______ _______ _______ _____ _____    ______ ____
ROOT
ATOM      1  C   UNL     1       5.658   5.145  16.580  0.00  0.00    +0.000 A 
ATOM      2  N   UNL     1       4.669   4.339  17.081  0.00  0.00    +0.000 NA
ATOM      3  C   UNL     1       3.863   4.914  18.018  0.00  0.00    +0.000 A 
ATOM      4  C   UNL     1       4.097   6.225  18.442  0.00  0.00    +0.000 A 
ATOM      5  N   UNL     1       5.091   7.011  17.962  0.00  0.00    +0.000 NA
ATOM      6  C   UNL     1       5.877   6.466  17.011  0.00  0.00    +0.000 A 
ENDROOT
BRANCH   3   7
ATOM      7  C   UNL     1       2.744   4.101  18.530  0.00  0.00    +0.000 A 
ATOM      8  C   UNL     1       2.422   2.865  17.942  0.00  0.00    +0.000 A 
ATOM      9  C   UNL     1       1.349   2.095  18.404  0.00  0.00    +0.000 A 
ATOM     10  C   UNL     1       0.572   2.545  19.467  0.00  0.00    +0.000 A 
ATOM     11  C   UNL     1       0.871   3.760  20.073  0.00  0.00    +0.000 A 
ATOM     12  C   UNL     1       1.945   4.530  19.610  0.00  0.00    +0.000 A 
ENDBRANCH   3   7
BRANCH   1  14
ATOM     13  N   UNL     1       5.833   4.348  14.277  0.00  0.00    +0.000 N 
ATOM     14  C   UNL     1       6.492   4.570  15.475  0.00  0.00    +0.000 C 
ATOM     15  O   UNL     1       7.686   4.331  15.642  0.00  0.00    +0.000 OA
ATOM     16  H   UNL     1       4.895   4.727  14.197  0.00  0.00    +0.000 HD
BRANCH  13  17
ATOM     17  C   UNL     1       6.524   3.833  13.097  0.00  0.00    +0.000 C 
ATOM     18  C   UNL     1       7.456   4.901  12.526  0.00  0.00    +0.000 C 
BRANCH  17  19
ATOM     19  C   UNL     1       5.500   3.327  12.064  0.00  0.00    +0.000 C 
BRANCH  19  21
ATOM     20  C   UNL     1       7.162   1.727  11.028  0.00  0.00    +0.000 C 
ATOM     21  C   UNL     1       5.762   1.891  11.599  0.00  0.00    +0.000 C 
ENDBRANCH  19  21
ENDBRANCH  17  19
ENDBRANCH  13  17
ENDBRANCH   1  14
BRANCH   6  22
ATOM     22  N   UNL     1       6.946   7.258  16.615  0.00  0.00    +0.000 N 
ATOM     23  H   UNL     1       6.692   7.778  15.783  0.00  0.00    +0.000 HD
ATOM     24  H   UNL     1       7.810   6.721  16.534  0.00  0.00    +0.000 HD
ENDBRANCH   6  22
TORSDOF 6
ENDMDL
MODEL 9
REMARK VINA RESULT:      -7.9      1.316      1.535
REMARK  Name = 
REMARK  8 active torsions:
REMARK  status: ('A' for Active; 'I' for Inactive)
REMARK    1  A    between atoms: C_1  and  C_2
REMARK    2  A    between atoms: C_2  and  C_3
REMARK    3  A    between atoms: C_3  and  C_4
REMARK    4  A    between atoms: C_4  and  C_5
REMARK    5  A    between atoms: C_4  and  N_6
REMARK    6  A    between atoms: C_7  and  C_9
REMARK    7  A    between atoms: C_11  and  C_12
REMARK    8  A    between atoms: C_20  and  N_21
REMARK                            x       y       z     vdW  Elec       q    Type
REMARK                         _______ _______ _______ _____ _____    ______ ____
ROOT
ATOM      1  C   UNL     1       5.696   5.299  16.729  0.00  0.00    +0.000 A 
ATOM      2  N   UNL     1       4.713   4.469  17.201  0.00  0.00    +0.000 NA
ATOM      3  C   UNL     1       3.817   5.045  18.052  0.00  0.00    +0.000 A 
ATOM      4  C   UNL     1       3.961   6.383  18.427  0.00  0.00    +0.000 A 
ATOM      5  N   UNL     1       4.949   7.195  17.978  0.00  0.00    +0.000 NA
ATOM      6  C   UNL     1       5.824   6.647  17.110  0.00  0.00    +0.000 A 
ENDROOT
BRANCH   3   7
ATOM      7  C   UNL     1       2.704   4.202  18.526  0.00  0.00    +0.000 A 
ATOM      8  C   UNL     1       1.938   4.581  19.643  0.00  0.00    +0.000 A 
ATOM      9  C   UNL     1       0.894   3.780  20.117  0.00  0.00    +0.000 A 
ATOM     10  C   UNL     1       0.591   2.579  19.483  0.00  0.00    +0.000 A 
ATOM     11  C   UNL     1       1.326   2.182  18.371  0.00  0.00    +0.000 A 
ATOM     12  C   UNL     1       2.371   2.985  17.898  0.00  0.00    +0.000 A 
ENDBRANCH   3   7
BRANCH   1  14
ATOM     13  N   UNL     1       6.108   4.551  14.441  0.00  0.00    +0.000 N 
ATOM     14  C   UNL     1       6.631   4.717  15.713  0.00  0.00    +0.000 C 
ATOM     15  O   UNL     1       7.787   4.423  16.010  0.00  0.00    +0.000 OA
ATOM     16  H   UNL     1       5.201   4.970  14.263  0.00  0.00    +0.000 HD
BRANCH  13  17
ATOM     17  C   UNL     1       6.912   4.035  13.334  0.00  0.00    +0.000 C 
ATOM     18  C   UNL     1       7.673   5.178  12.660  0.00  0.00    +0.000 C 
BRANCH  17  19
ATOM     19  C   UNL     1       6.019   3.258  12.350  0.00  0.00    +0.000 C 
BRANCH  19  21
ATOM     20  C   UNL     1       6.254   1.029  11.177  0.00  0.00    +0.000 C 
ATOM     21  C   UNL     1       6.811   2.437  11.327  0.00  0.00    +0.000 C 
ENDBRANCH  19  21
ENDBRANCH  17  19
ENDBRANCH  13  17
ENDBRANCH   1  14
BRANCH   6  22
ATOM     22  N   UNL     1       6.880   7.472  16.749  0.00  0.00    +0.000 N 
ATOM     23  H   UNL     1       6.587   8.441  16.801  0.00  0.00    +0.000 HD
ATOM     24  H   UNL     1       7.290   7.199  15.855  0.00  0.00    +0.000 HD
ENDBRANCH   6  22
TORSDOF 6
ENDMDL
