MODEL 1
REMARK VINA RESULT:      -7.3      0.000      0.000
REMARK  Name = 
REMARK  17 active torsions:
REMARK  status: ('A' for Active; 'I' for Inactive)
REMARK    1  A    between atoms: C_1  and  O_2
REMARK    2  A    between atoms: O_2  and  C_3
REMARK    3  A    between atoms: C_6  and  O_7
REMARK    4  A    between atoms: O_7  and  C_8
REMARK    5  A    between atoms: C_9  and  N_10
REMARK    6  A    between atoms: C_11  and  C_13
REMARK    7  A    between atoms: C_13  and  N_14
REMARK    8  A    between atoms: N_14  and  C_15
REMARK    9  A    between atoms: N_14  and  C_29
REMARK   10  A    between atoms: C_15  and  C_16
REMARK   11  A    between atoms: C_19  and  O_20
REMARK   12  A    between atoms: O_20  and  C_21
REMARK   13  A    between atoms: C_21  and  C_22
REMARK   14  A    between atoms: C_21  and  C_23
REMARK   15  A    between atoms: C_21  and  C_24
REMARK   16  A    between atoms: C_24  and  O_26
REMARK   17  A    between atoms: C_29  and  C_30
REMARK                            x       y       z     vdW  Elec       q    Type
REMARK                         _______ _______ _______ _____ _____    ______ ____
ROOT
ATOM      1  N   UNL     1       0.599   9.892  19.373  0.00  0.00    +0.000 NA
ENDROOT
BRANCH   1   2
ATOM      2  C   UNL     1       1.767   9.294  18.602  0.00  0.00    +0.000 C 
BRANCH   2   4
ATOM      3  N   UNL     1       2.723   7.191  17.928  0.00  0.00    +0.000 N 
ATOM      4  C   UNL     1       2.161   7.859  18.985  0.00  0.00    +0.000 C 
ATOM      5  O   UNL     1       1.987   7.457  20.130  0.00  0.00    +0.000 OA
ATOM      6  H   UNL     1       2.594   7.685  17.051  0.00  0.00    +0.000 HD
BRANCH   3  11
ATOM      7  C   UNL     1       2.669   3.532  17.724  0.00  0.00    +0.000 A 
ATOM      8  C   UNL     1       4.004   3.185  17.586  0.00  0.00    +0.000 A 
ATOM      9  C   UNL     1       4.984   4.186  17.564  0.00  0.00    +0.000 A 
ATOM     10  C   UNL     1       4.645   5.549  17.669  0.00  0.00    +0.000 A 
ATOM     11  C   UNL     1       3.291   5.898  17.834  0.00  0.00    +0.000 A 
ATOM     12  C   UNL     1       2.330   4.873  17.872  0.00  0.00    +0.000 A 
BRANCH   7  14
ATOM     13  C   UNL     1       0.896   2.549  18.957  0.00  0.00    +0.000 C 
ATOM     14  O   UNL     1       1.600   2.682  17.732  0.00  0.00    +0.000 OA
ENDBRANCH   7  14
BRANCH  10  15
ATOM     15  O   UNL     1       5.577   6.537  17.505  0.00  0.00    +0.000 OA
ATOM     16  C   UNL     1       6.918   6.253  17.894  0.00  0.00    +0.000 C 
ENDBRANCH  10  15
ENDBRANCH   3  11
ENDBRANCH   2   4
ENDBRANCH   1   2
BRANCH   1  17
ATOM     17  C   UNL     1       1.077  10.497  20.660  0.00  0.00    +0.000 C 
BRANCH  17  18
ATOM     18  C   UNL     1       0.056  11.196  21.578  0.00  0.00    +0.000 A 
ATOM     19  C   UNL     1      -0.754  10.539  22.507  0.00  0.00    +0.000 A 
ATOM     20  C   UNL     1      -1.715  11.254  23.261  0.00  0.00    +0.000 A 
ATOM     21  C   UNL     1      -1.873  12.647  23.152  0.00  0.00    +0.000 A 
ATOM     22  C   UNL     1      -0.986  13.321  22.327  0.00  0.00    +0.000 A 
ATOM     23  C   UNL     1      -0.050  12.604  21.548  0.00  0.00    +0.000 A 
BRANCH  21  24
ATOM     24  O   UNL     1      -2.924  13.151  23.858  0.00  0.00    +0.000 OA
BRANCH  24  25
ATOM     25  C   UNL     1      -4.269  13.399  23.415  0.00  0.00    +0.000 C 
ATOM     26  C   UNL     1      -5.142  12.586  24.405  0.00  0.00    +0.000 C 
ATOM     27  C   UNL     1      -4.630  14.879  23.628  0.00  0.00    +0.000 C 
BRANCH  25  28
ATOM     28  C   UNL     1      -4.751  12.951  22.012  0.00  0.00    +0.000 C 
ATOM     29  O   UNL     1      -4.280  13.341  20.951  0.00  0.00    +0.000 OA
BRANCH  28  30
ATOM     30  O   UNL     1      -5.805  12.105  22.049  0.00  0.00    +0.000 OA
ATOM     31  H   UNL     1      -5.830  11.574  22.875  0.00  0.00    +0.000 HD
ENDBRANCH  28  30
ENDBRANCH  25  28
ENDBRANCH  24  25
ENDBRANCH  21  24
ENDBRANCH  17  18
ENDBRANCH   1  17
BRANCH   1  32
ATOM     32  C   UNL     1       0.055  10.970  18.491  0.00  0.00    +0.000 C 
BRANCH  32  33
ATOM     33  C   UNL     1      -1.379  10.762  18.115  0.00  0.00    +0.000 A 
ATOM     34  C   UNL     1      -2.042   9.830  17.342  0.00  0.00    +0.000 A 
ATOM     35  C   UNL     1      -3.415  10.183  17.373  0.00  0.00    +0.000 A 
ATOM     36  C   UNL     1      -3.504  11.305  18.165  0.00  0.00    +0.000 A 
ATOM     37  O   UNL     1      -2.275  11.664  18.619  0.00  0.00    +0.000 OA
ENDBRANCH  32  33
ENDBRANCH   1  32
TORSDOF 13
ENDMDL
MODEL 2
REMARK VINA RESULT:      -7.2      2.408      9.636
REMARK  Name = 
REMARK  17 active torsions:
REMARK  status: ('A' for Active; 'I' for Inactive)
REMARK    1  A    between atoms: C_1  and  O_2
REMARK    2  A    between atoms: O_2  and  C_3
REMARK    3  A    between atoms: C_6  and  O_7
REMARK    4  A    between atoms: O_7  and  C_8
REMARK    5  A    between atoms: C_9  and  N_10
REMARK    6  A    between atoms: C_11  and  C_13
REMARK    7  A    between atoms: C_13  and  N_14
REMARK    8  A    between atoms: N_14  and  C_15
REMARK    9  A    between atoms: N_14  and  C_29
REMARK   10  A    between atoms: C_15  and  C_16
REMARK   11  A    between atoms: C_19  and  O_20
REMARK   12  A    between atoms: O_20  and  C_21
REMARK   13  A    between atoms: C_21  and  C_22
REMARK   14  A    between atoms: C_21  and  C_23
REMARK   15  A    between atoms: C_21  and  C_24
REMARK   16  A    between atoms: C_24  and  O_26
REMARK   17  A    between atoms: C_29  and  C_30
REMARK                            x       y       z     vdW  Elec       q    Type
REMARK                         _______ _______ _______ _____ _____    ______ ____
ROOT
ATOM      1  N   UNL     1       1.555  11.179  18.661  0.00  0.00    +0.000 NA
ENDROOT
BRANCH   1   2
ATOM      2  C   UNL     1       0.080  11.470  18.428  0.00  0.00    +0.000 C 
BRANCH   2   4
ATOM      3  N   UNL     1      -1.179  12.181  20.351  0.00  0.00    +0.000 N 
ATOM      4  C   UNL     1      -0.869  11.093  19.577  0.00  0.00    +0.000 C 
ATOM      5  O   UNL     1      -1.274   9.943  19.690  0.00  0.00    +0.000 OA
ATOM      6  H   UNL     1      -0.580  12.977  20.152  0.00  0.00    +0.000 HD
BRANCH   3  11
ATOM      7  C   UNL     1      -4.344  12.993  22.010  0.00  0.00    +0.000 A 
ATOM      8  C   UNL     1      -4.113  12.683  23.342  0.00  0.00    +0.000 A 
ATOM      9  C   UNL     1      -2.862  12.189  23.734  0.00  0.00    +0.000 A 
ATOM     10  C   UNL     1      -1.826  11.989  22.801  0.00  0.00    +0.000 A 
ATOM     11  C   UNL     1      -2.055  12.327  21.454  0.00  0.00    +0.000 A 
ATOM     12  C   UNL     1      -3.313  12.838  21.090  0.00  0.00    +0.000 A 
BRANCH   7  14
ATOM     13  C   UNL     1      -6.162  14.510  22.151  0.00  0.00    +0.000 C 
ATOM     14  O   UNL     1      -5.512  13.450  21.468  0.00  0.00    +0.000 OA
ENDBRANCH   7  14
BRANCH  10  15
ATOM     15  O   UNL     1      -0.654  11.375  23.149  0.00  0.00    +0.000 OA
ATOM     16  C   UNL     1      -0.646   9.953  23.215  0.00  0.00    +0.000 C 
ENDBRANCH  10  15
ENDBRANCH   3  11
ENDBRANCH   2   4
ENDBRANCH   1   2
BRANCH   1  17
ATOM     17  C   UNL     1       2.006  10.036  17.800  0.00  0.00    +0.000 C 
BRANCH  17  18
ATOM     18  C   UNL     1       2.215   8.654  18.447  0.00  0.00    +0.000 A 
ATOM     19  C   UNL     1       1.691   8.271  19.685  0.00  0.00    +0.000 A 
ATOM     20  C   UNL     1       1.992   7.002  20.234  0.00  0.00    +0.000 A 
ATOM     21  C   UNL     1       2.780   6.055  19.556  0.00  0.00    +0.000 A 
ATOM     22  C   UNL     1       3.195   6.380  18.274  0.00  0.00    +0.000 A 
ATOM     23  C   UNL     1       2.925   7.660  17.739  0.00  0.00    +0.000 A 
BRANCH  21  24
ATOM     24  O   UNL     1       3.067   4.939  20.283  0.00  0.00    +0.000 OA
BRANCH  24  25
ATOM     25  C   UNL     1       2.718   3.572  20.009  0.00  0.00    +0.000 C 
ATOM     26  C   UNL     1       2.469   2.963  21.413  0.00  0.00    +0.000 C 
ATOM     27  C   UNL     1       1.374   3.510  19.263  0.00  0.00    +0.000 C 
BRANCH  25  28
ATOM     28  C   UNL     1       3.723   2.602  19.336  0.00  0.00    +0.000 C 
ATOM     29  O   UNL     1       3.421   1.553  18.782  0.00  0.00    +0.000 OA
BRANCH  28  30
ATOM     30  O   UNL     1       5.012   2.992  19.459  0.00  0.00    +0.000 OA
ATOM     31  H   UNL     1       5.208   3.803  18.939  0.00  0.00    +0.000 HD
ENDBRANCH  28  30
ENDBRANCH  25  28
ENDBRANCH  24  25
ENDBRANCH  21  24
ENDBRANCH  17  18
ENDBRANCH   1  17
BRANCH   1  32
ATOM     32  C   UNL     1       2.273  12.424  18.248  0.00  0.00    +0.000 C 
BRANCH  32  33
ATOM     33  C   UNL     1       2.630  13.314  19.398  0.00  0.00    +0.000 A 
ATOM     34  C   UNL     1       2.172  13.434  20.694  0.00  0.00    +0.000 A 
ATOM     35  C   UNL     1       2.920  14.479  21.291  0.00  0.00    +0.000 A 
ATOM     36  C   UNL     1       3.788  14.929  20.323  0.00  0.00    +0.000 A 
ATOM     37  O   UNL     1       3.619  14.229  19.172  0.00  0.00    +0.000 OA
ENDBRANCH  32  33
ENDBRANCH   1  32
TORSDOF 13
ENDMDL
MODEL 3
REMARK VINA RESULT:      -7.2      2.387      9.417
REMARK  Name = 
REMARK  17 active torsions:
REMARK  status: ('A' for Active; 'I' for Inactive)
REMARK    1  A    between atoms: C_1  and  O_2
REMARK    2  A    between atoms: O_2  and  C_3
REMARK    3  A    between atoms: C_6  and  O_7
REMARK    4  A    between atoms: O_7  and  C_8
REMARK    5  A    between atoms: C_9  and  N_10
REMARK    6  A    between atoms: C_11  and  C_13
REMARK    7  A    between atoms: C_13  and  N_14
REMARK    8  A    between atoms: N_14  and  C_15
REMARK    9  A    between atoms: N_14  and  C_29
REMARK   10  A    between atoms: C_15  and  C_16
REMARK   11  A    between atoms: C_19  and  O_20
REMARK   12  A    between atoms: O_20  and  C_21
REMARK   13  A    between atoms: C_21  and  C_22
REMARK   14  A    between atoms: C_21  and  C_23
REMARK   15  A    between atoms: C_21  and  C_24
REMARK   16  A    between atoms: C_24  and  O_26
REMARK   17  A    between atoms: C_29  and  C_30
REMARK                            x       y       z     vdW  Elec       q    Type
REMARK                         _______ _______ _______ _____ _____    ______ ____
ROOT
ATOM      1  N   UNL     1       0.940  10.620  19.231  0.00  0.00    +0.000 NA
ENDROOT
BRANCH   1   2
ATOM      2  C   UNL     1       0.871  12.073  18.784  0.00  0.00    +0.000 C 
BRANCH   2   4
ATOM      3  N   UNL     1      -1.427  11.554  18.295  0.00  0.00    +0.000 N 
ATOM      4  C   UNL     1      -0.509  12.572  18.328  0.00  0.00    +0.000 C 
ATOM      5  O   UNL     1      -0.683  13.758  18.078  0.00  0.00    +0.000 OA
ATOM      6  H   UNL     1      -0.990  10.642  18.379  0.00  0.00    +0.000 HD
BRANCH   3  11
ATOM      7  C   UNL     1      -4.981  12.049  19.037  0.00  0.00    +0.000 A 
ATOM      8  C   UNL     1      -5.616  11.759  17.838  0.00  0.00    +0.000 A 
ATOM      9  C   UNL     1      -4.858  11.374  16.724  0.00  0.00    +0.000 A 
ATOM     10  C   UNL     1      -3.455  11.282  16.788  0.00  0.00    +0.000 A 
ATOM     11  C   UNL     1      -2.813  11.554  18.011  0.00  0.00    +0.000 A 
ATOM     12  C   UNL     1      -3.599  11.919  19.118  0.00  0.00    +0.000 A 
BRANCH   7  14
ATOM     13  C   UNL     1      -6.855  13.061  20.080  0.00  0.00    +0.000 C 
ATOM     14  O   UNL     1      -5.572  12.466  20.195  0.00  0.00    +0.000 OA
ENDBRANCH   7  14
BRANCH  10  15
ATOM     15  O   UNL     1      -2.698  11.048  15.672  0.00  0.00    +0.000 OA
ATOM     16  C   UNL     1      -3.238  10.183  14.677  0.00  0.00    +0.000 C 
ENDBRANCH  10  15
ENDBRANCH   3  11
ENDBRANCH   2   4
ENDBRANCH   1   2
BRANCH   1  17
ATOM     17  C   UNL     1       1.870   9.843  18.346  0.00  0.00    +0.000 C 
BRANCH  17  18
ATOM     18  C   UNL     1       2.175   8.374  18.696  0.00  0.00    +0.000 A 
ATOM     19  C   UNL     1       1.839   7.761  19.905  0.00  0.00    +0.000 A 
ATOM     20  C   UNL     1       2.220   6.423  20.166  0.00  0.00    +0.000 A 
ATOM     21  C   UNL     1       2.904   5.636  19.223  0.00  0.00    +0.000 A 
ATOM     22  C   UNL     1       3.127   6.197  17.975  0.00  0.00    +0.000 A 
ATOM     23  C   UNL     1       2.777   7.544  17.725  0.00  0.00    +0.000 A 
BRANCH  21  24
ATOM     24  O   UNL     1       3.298   4.418  19.687  0.00  0.00    +0.000 OA
BRANCH  24  25
ATOM     25  C   UNL     1       2.625   3.152  19.577  0.00  0.00    +0.000 C 
ATOM     26  C   UNL     1       3.118   2.360  20.815  0.00  0.00    +0.000 C 
ATOM     27  C   UNL     1       1.109   3.343  19.756  0.00  0.00    +0.000 C 
BRANCH  25  28
ATOM     28  C   UNL     1       2.884   2.203  18.378  0.00  0.00    +0.000 C 
ATOM     29  O   UNL     1       2.208   2.162  17.358  0.00  0.00    +0.000 OA
BRANCH  28  30
ATOM     30  O   UNL     1       3.919   1.356  18.575  0.00  0.00    +0.000 OA
ATOM     31  H   UNL     1       3.953   1.015  19.496  0.00  0.00    +0.000 HD
ENDBRANCH  28  30
ENDBRANCH  25  28
ENDBRANCH  24  25
ENDBRANCH  21  24
ENDBRANCH  17  18
ENDBRANCH   1  17
BRANCH   1  32
ATOM     32  C   UNL     1       1.494  10.659  20.619  0.00  0.00    +0.000 C 
BRANCH  32  33
ATOM     33  C   UNL     1       0.440  10.611  21.681  0.00  0.00    +0.000 A 
ATOM     34  C   UNL     1      -0.562  11.472  22.077  0.00  0.00    +0.000 A 
ATOM     35  C   UNL     1      -1.230  10.845  23.159  0.00  0.00    +0.000 A 
ATOM     36  C   UNL     1      -0.595   9.640  23.353  0.00  0.00    +0.000 A 
ATOM     37  O   UNL     1       0.419   9.489  22.462  0.00  0.00    +0.000 OA
ENDBRANCH  32  33
ENDBRANCH   1  32
TORSDOF 13
ENDMDL
MODEL 4
REMARK VINA RESULT:      -7.1      2.148      9.610
REMARK  Name = 
REMARK  17 active torsions:
REMARK  status: ('A' for Active; 'I' for Inactive)
REMARK    1  A    between atoms: C_1  and  O_2
REMARK    2  A    between atoms: O_2  and  C_3
REMARK    3  A    between atoms: C_6  and  O_7
REMARK    4  A    between atoms: O_7  and  C_8
REMARK    5  A    between atoms: C_9  and  N_10
REMARK    6  A    between atoms: C_11  and  C_13
REMARK    7  A    between atoms: C_13  and  N_14
REMARK    8  A    between atoms: N_14  and  C_15
REMARK    9  A    between atoms: N_14  and  C_29
REMARK   10  A    between atoms: C_15  and  C_16
REMARK   11  A    between atoms: C_19  and  O_20
REMARK   12  A    between atoms: O_20  and  C_21
REMARK   13  A    between atoms: C_21  and  C_22
REMARK   14  A    between atoms: C_21  and  C_23
REMARK   15  A    between atoms: C_21  and  C_24
REMARK   16  A    between atoms: C_24  and  O_26
REMARK   17  A    between atoms: C_29  and  C_30
REMARK                            x       y       z     vdW  Elec       q    Type
REMARK                         _______ _______ _______ _____ _____    ______ ____
ROOT
ATOM      1  N   UNL     1       0.845  10.377  19.018  0.00  0.00    +0.000 NA
ENDROOT
BRANCH   1   2
ATOM      2  C   UNL     1       0.824  11.861  18.681  0.00  0.00    +0.000 C 
BRANCH   2   4
ATOM      3  N   UNL     1      -1.504  11.474  18.213  0.00  0.00    +0.000 N 
ATOM      4  C   UNL     1      -0.551  12.452  18.334  0.00  0.00    +0.000 C 
ATOM      5  O   UNL     1      -0.692  13.665  18.230  0.00  0.00    +0.000 OA
ATOM      6  H   UNL     1      -1.096  10.545  18.175  0.00  0.00    +0.000 HD
BRANCH   3  11
ATOM      7  C   UNL     1      -5.005  12.092  19.101  0.00  0.00    +0.000 A 
ATOM      8  C   UNL     1      -5.692  11.889  17.914  0.00  0.00    +0.000 A 
ATOM      9  C   UNL     1      -4.990  11.524  16.757  0.00  0.00    +0.000 A 
ATOM     10  C   UNL     1      -3.591  11.366  16.767  0.00  0.00    +0.000 A 
ATOM     11  C   UNL     1      -2.897  11.549  17.979  0.00  0.00    +0.000 A 
ATOM     12  C   UNL     1      -3.628  11.896  19.128  0.00  0.00    +0.000 A 
BRANCH   7  14
ATOM     13  C   UNL     1      -4.754  13.354  21.094  0.00  0.00    +0.000 C 
ATOM     14  O   UNL     1      -5.538  12.478  20.298  0.00  0.00    +0.000 OA
ENDBRANCH   7  14
BRANCH  10  15
ATOM     15  O   UNL     1      -2.883  11.152  15.615  0.00  0.00    +0.000 OA
ATOM     16  C   UNL     1      -3.373  10.165  14.712  0.00  0.00    +0.000 C 
ENDBRANCH  10  15
ENDBRANCH   3  11
ENDBRANCH   2   4
ENDBRANCH   1   2
BRANCH   1  17
ATOM     17  C   UNL     1       1.617   9.616  17.980  0.00  0.00    +0.000 C 
BRANCH  17  18
ATOM     18  C   UNL     1       2.296   8.292  18.381  0.00  0.00    +0.000 A 
ATOM     19  C   UNL     1       3.371   7.715  17.700  0.00  0.00    +0.000 A 
ATOM     20  C   UNL     1       3.888   6.460  18.099  0.00  0.00    +0.000 A 
ATOM     21  C   UNL     1       3.390   5.759  19.212  0.00  0.00    +0.000 A 
ATOM     22  C   UNL     1       2.410   6.386  19.967  0.00  0.00    +0.000 A 
ATOM     23  C   UNL     1       1.870   7.623  19.549  0.00  0.00    +0.000 A 
BRANCH  21  24
ATOM     24  O   UNL     1       3.921   4.515  19.377  0.00  0.00    +0.000 OA
BRANCH  24  25
ATOM     25  C   UNL     1       3.269   3.238  19.278  0.00  0.00    +0.000 C 
ATOM     26  C   UNL     1       2.326   3.206  20.509  0.00  0.00    +0.000 C 
ATOM     27  C   UNL     1       2.365   3.202  18.034  0.00  0.00    +0.000 C 
BRANCH  25  28
ATOM     28  C   UNL     1       4.071   1.914  19.368  0.00  0.00    +0.000 C 
ATOM     29  O   UNL     1       4.927   1.668  20.207  0.00  0.00    +0.000 OA
BRANCH  28  30
ATOM     30  O   UNL     1       3.779   1.040  18.378  0.00  0.00    +0.000 OA
ATOM     31  H   UNL     1       4.264   1.240  17.547  0.00  0.00    +0.000 HD
ENDBRANCH  28  30
ENDBRANCH  25  28
ENDBRANCH  24  25
ENDBRANCH  21  24
ENDBRANCH  17  18
ENDBRANCH   1  17
BRANCH   1  32
ATOM     32  C   UNL     1       1.554  10.280  20.331  0.00  0.00    +0.000 C 
BRANCH  32  33
ATOM     33  C   UNL     1       0.625  10.244  21.505  0.00  0.00    +0.000 A 
ATOM     34  C   UNL     1      -0.564  10.876  21.806  0.00  0.00    +0.000 A 
ATOM     35  C   UNL     1      -0.951  10.419  23.090  0.00  0.00    +0.000 A 
ATOM     36  C   UNL     1       0.025   9.535  23.492  0.00  0.00    +0.000 A 
ATOM     37  O   UNL     1       0.985   9.424  22.537  0.00  0.00    +0.000 OA
ENDBRANCH  32  33
ENDBRANCH   1  32
TORSDOF 13
ENDMDL
MODEL 5
REMARK VINA RESULT:      -7.1      3.716      9.576
REMARK  Name = 
REMARK  17 active torsions:
REMARK  status: ('A' for Active; 'I' for Inactive)
REMARK    1  A    between atoms: C_1  and  O_2
REMARK    2  A    between atoms: O_2  and  C_3
REMARK    3  A    between atoms: C_6  and  O_7
REMARK    4  A    between atoms: O_7  and  C_8
REMARK    5  A    between atoms: C_9  and  N_10
REMARK    6  A    between atoms: C_11  and  C_13
REMARK    7  A    between atoms: C_13  and  N_14
REMARK    8  A    between atoms: N_14  and  C_15
REMARK    9  A    between atoms: N_14  and  C_29
REMARK   10  A    between atoms: C_15  and  C_16
REMARK   11  A    between atoms: C_19  and  O_20
REMARK   12  A    between atoms: O_20  and  C_21
REMARK   13  A    between atoms: C_21  and  C_22
REMARK   14  A    between atoms: C_21  and  C_23
REMARK   15  A    between atoms: C_21  and  C_24
REMARK   16  A    between atoms: C_24  and  O_26
REMARK   17  A    between atoms: C_29  and  C_30
REMARK                            x       y       z     vdW  Elec       q    Type
REMARK                         _______ _______ _______ _____ _____    ______ ____
ROOT
ATOM      1  N   UNL     1       0.370  10.305  19.295  0.00  0.00    +0.000 NA
ENDROOT
BRANCH   1   2
ATOM      2  C   UNL     1       0.469  11.776  19.673  0.00  0.00    +0.000 C 
BRANCH   2   4
ATOM      3  N   UNL     1       1.960  13.649  19.917  0.00  0.00    +0.000 N 
ATOM      4  C   UNL     1       1.726  12.513  19.186  0.00  0.00    +0.000 C 
ATOM      5  O   UNL     1       2.396  12.050  18.270  0.00  0.00    +0.000 OA
ATOM      6  H   UNL     1       1.167  13.899  20.499  0.00  0.00    +0.000 HD
BRANCH   3  11
ATOM      7  C   UNL     1       3.814  16.531  18.617  0.00  0.00    +0.000 A 
ATOM      8  C   UNL     1       4.882  16.663  19.492  0.00  0.00    +0.000 A 
ATOM      9  C   UNL     1       5.021  15.768  20.561  0.00  0.00    +0.000 A 
ATOM     10  C   UNL     1       4.090  14.734  20.778  0.00  0.00    +0.000 A 
ATOM     11  C   UNL     1       3.019  14.586  19.876  0.00  0.00    +0.000 A 
ATOM     12  C   UNL     1       2.914  15.486  18.801  0.00  0.00    +0.000 A 
BRANCH   7  14
ATOM     13  C   UNL     1       2.151  17.571  17.284  0.00  0.00    +0.000 C 
ATOM     14  O   UNL     1       3.524  17.337  17.554  0.00  0.00    +0.000 OA
ENDBRANCH   7  14
BRANCH  10  15
ATOM     15  O   UNL     1       4.137  13.948  21.897  0.00  0.00    +0.000 OA
ATOM     16  C   UNL     1       5.394  13.804  22.552  0.00  0.00    +0.000 C 
ENDBRANCH  10  15
ENDBRANCH   3  11
ENDBRANCH   2   4
ENDBRANCH   1   2
BRANCH   1  17
ATOM     17  C   UNL     1       1.214   9.471  20.212  0.00  0.00    +0.000 C 
BRANCH  17  18
ATOM     18  C   UNL     1       1.656   8.070  19.748  0.00  0.00    +0.000 A 
ATOM     19  C   UNL     1       2.191   7.784  18.490  0.00  0.00    +0.000 A 
ATOM     20  C   UNL     1       2.505   6.453  18.125  0.00  0.00    +0.000 A 
ATOM     21  C   UNL     1       2.344   5.371  19.008  0.00  0.00    +0.000 A 
ATOM     22  C   UNL     1       1.934   5.665  20.299  0.00  0.00    +0.000 A 
ATOM     23  C   UNL     1       1.587   6.989  20.654  0.00  0.00    +0.000 A 
BRANCH  21  24
ATOM     24  O   UNL     1       2.579   4.151  18.450  0.00  0.00    +0.000 OA
BRANCH  24  25
ATOM     25  C   UNL     1       3.839   3.513  18.178  0.00  0.00    +0.000 C 
ATOM     26  C   UNL     1       3.480   2.009  18.076  0.00  0.00    +0.000 C 
ATOM     27  C   UNL     1       4.355   3.935  16.791  0.00  0.00    +0.000 C 
BRANCH  25  28
ATOM     28  C   UNL     1       5.006   3.567  19.197  0.00  0.00    +0.000 C 
ATOM     29  O   UNL     1       5.752   4.524  19.359  0.00  0.00    +0.000 OA
BRANCH  28  30
ATOM     30  O   UNL     1       5.178   2.414  19.882  0.00  0.00    +0.000 OA
ATOM     31  H   UNL     1       5.996   2.420  20.425  0.00  0.00    +0.000 HD
ENDBRANCH  28  30
ENDBRANCH  25  28
ENDBRANCH  24  25
ENDBRANCH  21  24
ENDBRANCH  17  18
ENDBRANCH   1  17
BRANCH   1  32
ATOM     32  C   UNL     1      -1.070   9.946  19.481  0.00  0.00    +0.000 C 
BRANCH  32  33
ATOM     33  C   UNL     1      -1.926  10.297  18.305  0.00  0.00    +0.000 A 
ATOM     34  C   UNL     1      -1.978   9.867  16.995  0.00  0.00    +0.000 A 
ATOM     35  C   UNL     1      -3.023  10.596  16.372  0.00  0.00    +0.000 A 
ATOM     36  C   UNL     1      -3.543  11.422  17.341  0.00  0.00    +0.000 A 
ATOM     37  O   UNL     1      -2.885  11.248  18.517  0.00  0.00    +0.000 OA
ENDBRANCH  32  33
ENDBRANCH   1  32
TORSDOF 13
ENDMDL
MODEL 6
REMARK VINA RESULT:      -7.1      2.039      9.709
REMARK  Name = 
REMARK  17 active torsions:
REMARK  status: ('A' for Active; 'I' for Inactive)
REMARK    1  A    between atoms: C_1  and  O_2
REMARK    2  A    between atoms: O_2  and  C_3
REMARK    3  A    between atoms: C_6  and  O_7
REMARK    4  A    between atoms: O_7  and  C_8
REMARK    5  A    between atoms: C_9  and  N_10
REMARK    6  A    between atoms: C_11  and  C_13
REMARK    7  A    between atoms: C_13  and  N_14
REMARK    8  A    between atoms: N_14  and  C_15
REMARK    9  A    between atoms: N_14  and  C_29
REMARK   10  A    between atoms: C_15  and  C_16
REMARK   11  A    between atoms: C_19  and  O_20
REMARK   12  A    between atoms: O_20  and  C_21
REMARK   13  A    between atoms: C_21  and  C_22
REMARK   14  A    between atoms: C_21  and  C_23
REMARK   15  A    between atoms: C_21  and  C_24
REMARK   16  A    between atoms: C_24  and  O_26
REMARK   17  A    between atoms: C_29  and  C_30
REMARK                            x       y       z     vdW  Elec       q    Type
REMARK                         _______ _______ _______ _____ _____    ______ ____
ROOT
ATOM      1  N   UNL     1      -0.307  11.174  18.569  0.00  0.00    +0.000 NA
ENDROOT
BRANCH   1   2
ATOM      2  C   UNL     1      -0.489  12.682  18.665  0.00  0.00    +0.000 C 
BRANCH   2   4
ATOM      3  N   UNL     1      -2.339  13.655  19.857  0.00  0.00    +0.000 N 
ATOM      4  C   UNL     1      -1.051  13.208  19.995  0.00  0.00    +0.000 C 
ATOM      5  O   UNL     1      -0.369  13.164  21.012  0.00  0.00    +0.000 OA
ATOM      6  H   UNL     1      -2.611  13.743  18.883  0.00  0.00    +0.000 HD
BRANCH   3  11
ATOM      7  C   UNL     1      -4.653  13.424  22.689  0.00  0.00    +0.000 A 
ATOM      8  C   UNL     1      -5.073  14.731  22.885  0.00  0.00    +0.000 A 
ATOM      9  C   UNL     1      -4.589  15.750  22.053  0.00  0.00    +0.000 A 
ATOM     10  C   UNL     1      -3.673  15.480  21.019  0.00  0.00    +0.000 A 
ATOM     11  C   UNL     1      -3.265  14.149  20.806  0.00  0.00    +0.000 A 
ATOM     12  C   UNL     1      -3.781  13.144  21.643  0.00  0.00    +0.000 A 
BRANCH   7  14
ATOM     13  C   UNL     1      -4.536  12.290  24.769  0.00  0.00    +0.000 C 
ATOM     14  O   UNL     1      -5.006  12.333  23.430  0.00  0.00    +0.000 OA
ENDBRANCH   7  14
BRANCH  10  15
ATOM     15  O   UNL     1      -3.087  16.484  20.297  0.00  0.00    +0.000 OA
ATOM     16  C   UNL     1      -1.969  17.150  20.876  0.00  0.00    +0.000 C 
ENDBRANCH  10  15
ENDBRANCH   3  11
ENDBRANCH   2   4
ENDBRANCH   1   2
BRANCH   1  17
ATOM     17  C   UNL     1       0.646  10.693  19.623  0.00  0.00    +0.000 C 
BRANCH  17  18
ATOM     18  C   UNL     1       1.328   9.324  19.440  0.00  0.00    +0.000 A 
ATOM     19  C   UNL     1       1.443   8.356  20.441  0.00  0.00    +0.000 A 
ATOM     20  C   UNL     1       2.148   7.152  20.202  0.00  0.00    +0.000 A 
ATOM     21  C   UNL     1       2.720   6.848  18.955  0.00  0.00    +0.000 A 
ATOM     22  C   UNL     1       2.499   7.746  17.922  0.00  0.00    +0.000 A 
ATOM     23  C   UNL     1       1.825   8.964  18.168  0.00  0.00    +0.000 A 
BRANCH  21  24
ATOM     24  O   UNL     1       3.463   5.706  18.940  0.00  0.00    +0.000 OA
BRANCH  24  25
ATOM     25  C   UNL     1       3.039   4.360  18.663  0.00  0.00    +0.000 C 
ATOM     26  C   UNL     1       3.597   4.080  17.244  0.00  0.00    +0.000 C 
ATOM     27  C   UNL     1       3.746   3.378  19.612  0.00  0.00    +0.000 C 
BRANCH  25  28
ATOM     28  C   UNL     1       1.536   3.991  18.571  0.00  0.00    +0.000 C 
ATOM     29  O   UNL     1       0.831   3.679  19.521  0.00  0.00    +0.000 OA
BRANCH  28  30
ATOM     30  O   UNL     1       1.058   3.989  17.306  0.00  0.00    +0.000 OA
ATOM     31  H   UNL     1       0.788   3.092  17.009  0.00  0.00    +0.000 HD
ENDBRANCH  28  30
ENDBRANCH  25  28
ENDBRANCH  24  25
ENDBRANCH  21  24
ENDBRANCH  17  18
ENDBRANCH   1  17
BRANCH   1  32
ATOM     32  C   UNL     1      -1.663  10.596  18.827  0.00  0.00    +0.000 C 
BRANCH  32  33
ATOM     33  C   UNL     1      -2.591  10.716  17.659  0.00  0.00    +0.000 A 
ATOM     34  C   UNL     1      -2.609  10.176  16.389  0.00  0.00    +0.000 A 
ATOM     35  C   UNL     1      -3.767  10.686  15.750  0.00  0.00    +0.000 A 
ATOM     36  C   UNL     1      -4.383  11.504  16.669  0.00  0.00    +0.000 A 
ATOM     37  O   UNL     1      -3.678  11.528  17.830  0.00  0.00    +0.000 OA
ENDBRANCH  32  33
ENDBRANCH   1  32
TORSDOF 13
ENDMDL
MODEL 7
REMARK VINA RESULT:      -7.1      2.237      9.936
REMARK  Name = 
REMARK  17 active torsions:
REMARK  status: ('A' for Active; 'I' for Inactive)
REMARK    1  A    between atoms: C_1  and  O_2
REMARK    2  A    between atoms: O_2  and  C_3
REMARK    3  A    between atoms: C_6  and  O_7
REMARK    4  A    between atoms: O_7  and  C_8
REMARK    5  A    between atoms: C_9  and  N_10
REMARK    6  A    between atoms: C_11  and  C_13
REMARK    7  A    between atoms: C_13  and  N_14
REMARK    8  A    between atoms: N_14  and  C_15
REMARK    9  A    between atoms: N_14  and  C_29
REMARK   10  A    between atoms: C_15  and  C_16
REMARK   11  A    between atoms: C_19  and  O_20
REMARK   12  A    between atoms: O_20  and  C_21
REMARK   13  A    between atoms: C_21  and  C_22
REMARK   14  A    between atoms: C_21  and  C_23
REMARK   15  A    between atoms: C_21  and  C_24
REMARK   16  A    between atoms: C_24  and  O_26
REMARK   17  A    between atoms: C_29  and  C_30
REMARK                            x       y       z     vdW  Elec       q    Type
REMARK                         _______ _______ _______ _____ _____    ______ ____
ROOT
ATOM      1  N   UNL     1      -0.734  11.567  18.886  0.00  0.00    +0.000 NA
ENDROOT
BRANCH   1   2
ATOM      2  C   UNL     1      -1.256  11.735  20.306  0.00  0.00    +0.000 C 
BRANCH   2   4
ATOM      3  N   UNL     1      -3.480  12.453  20.877  0.00  0.00    +0.000 N 
ATOM      4  C   UNL     1      -2.232  12.901  20.530  0.00  0.00    +0.000 C 
ATOM      5  O   UNL     1      -1.845  14.058  20.421  0.00  0.00    +0.000 OA
ATOM      6  H   UNL     1      -3.584  11.454  20.729  0.00  0.00    +0.000 HD
BRANCH   3  11
ATOM      7  C   UNL     1      -6.376  14.628  20.316  0.00  0.00    +0.000 A 
ATOM      8  C   UNL     1      -7.041  14.620  21.533  0.00  0.00    +0.000 A 
ATOM      9  C   UNL     1      -6.525  13.876  22.603  0.00  0.00    +0.000 A 
ATOM     10  C   UNL     1      -5.343  13.122  22.471  0.00  0.00    +0.000 A 
ATOM     11  C   UNL     1      -4.657  13.150  21.242  0.00  0.00    +0.000 A 
ATOM     12  C   UNL     1      -5.185  13.920  20.191  0.00  0.00    +0.000 A 
BRANCH   7  14
ATOM     13  C   UNL     1      -6.894  14.480  18.006  0.00  0.00    +0.000 C 
ATOM     14  O   UNL     1      -6.765  15.272  19.177  0.00  0.00    +0.000 OA
ENDBRANCH   7  14
BRANCH  10  15
ATOM     15  O   UNL     1      -4.911  12.283  23.461  0.00  0.00    +0.000 OA
ATOM     16  C   UNL     1      -4.117  12.842  24.503  0.00  0.00    +0.000 C 
ENDBRANCH  10  15
ENDBRANCH   3  11
ENDBRANCH   2   4
ENDBRANCH   1   2
BRANCH   1  17
ATOM     17  C   UNL     1       0.742  11.299  18.899  0.00  0.00    +0.000 C 
BRANCH  17  18
ATOM     18  C   UNL     1       1.233   9.853  19.105  0.00  0.00    +0.000 A 
ATOM     19  C   UNL     1       1.096   9.131  20.294  0.00  0.00    +0.000 A 
ATOM     20  C   UNL     1       1.639   7.830  20.414  0.00  0.00    +0.000 A 
ATOM     21  C   UNL     1       2.294   7.185  19.351  0.00  0.00    +0.000 A 
ATOM     22  C   UNL     1       2.321   7.845  18.132  0.00  0.00    +0.000 A 
ATOM     23  C   UNL     1       1.809   9.158  18.020  0.00  0.00    +0.000 A 
BRANCH  21  24
ATOM     24  O   UNL     1       2.860   5.990  19.680  0.00  0.00    +0.000 OA
BRANCH  24  25
ATOM     25  C   UNL     1       2.440   4.665  19.315  0.00  0.00    +0.000 C 
ATOM     26  C   UNL     1       3.619   3.764  19.766  0.00  0.00    +0.000 C 
ATOM     27  C   UNL     1       1.223   4.246  20.157  0.00  0.00    +0.000 C 
BRANCH  25  28
ATOM     28  C   UNL     1       2.197   4.275  17.834  0.00  0.00    +0.000 C 
ATOM     29  O   UNL     1       1.098   4.196  17.301  0.00  0.00    +0.000 OA
BRANCH  28  30
ATOM     30  O   UNL     1       3.331   3.968  17.164  0.00  0.00    +0.000 OA
ATOM     31  H   UNL     1       3.411   4.461  16.318  0.00  0.00    +0.000 HD
ENDBRANCH  28  30
ENDBRANCH  25  28
ENDBRANCH  24  25
ENDBRANCH  21  24
ENDBRANCH  17  18
ENDBRANCH   1  17
BRANCH   1  32
ATOM     32  C   UNL     1      -1.450  10.372  18.342  0.00  0.00    +0.000 C 
BRANCH  32  33
ATOM     33  C   UNL     1      -2.566  10.723  17.408  0.00  0.00    +0.000 A 
ATOM     34  C   UNL     1      -3.851  11.194  17.584  0.00  0.00    +0.000 A 
ATOM     35  C   UNL     1      -4.415  11.324  16.290  0.00  0.00    +0.000 A 
ATOM     36  C   UNL     1      -3.438  10.926  15.406  0.00  0.00    +0.000 A 
ATOM     37  O   UNL     1      -2.314  10.560  16.075  0.00  0.00    +0.000 OA
ENDBRANCH  32  33
ENDBRANCH   1  32
TORSDOF 13
ENDMDL
MODEL 8
REMARK VINA RESULT:      -7.0      2.643      5.324
REMARK  Name = 
REMARK  17 active torsions:
REMARK  status: ('A' for Active; 'I' for Inactive)
REMARK    1  A    between atoms: C_1  and  O_2
REMARK    2  A    between atoms: O_2  and  C_3
REMARK    3  A    between atoms: C_6  and  O_7
REMARK    4  A    between atoms: O_7  and  C_8
REMARK    5  A    between atoms: C_9  and  N_10
REMARK    6  A    between atoms: C_11  and  C_13
REMARK    7  A    between atoms: C_13  and  N_14
REMARK    8  A    between atoms: N_14  and  C_15
REMARK    9  A    between atoms: N_14  and  C_29
REMARK   10  A    between atoms: C_15  and  C_16
REMARK   11  A    between atoms: C_19  and  O_20
REMARK   12  A    between atoms: O_20  and  C_21
REMARK   13  A    between atoms: C_21  and  C_22
REMARK   14  A    between atoms: C_21  and  C_23
REMARK   15  A    between atoms: C_21  and  C_24
REMARK   16  A    between atoms: C_24  and  O_26
REMARK   17  A    between atoms: C_29  and  C_30
REMARK                            x       y       z     vdW  Elec       q    Type
REMARK                         _______ _______ _______ _____ _____    ______ ____
ROOT
ATOM      1  N   UNL     1       2.423   6.241  20.253  0.00  0.00    +0.000 NA
ENDROOT
BRANCH   1   2
ATOM      2  C   UNL     1       2.228   6.077  18.752  0.00  0.00    +0.000 C 
BRANCH   2   4
ATOM      3  N   UNL     1       4.155   5.333  17.518  0.00  0.00    +0.000 N 
ATOM      4  C   UNL     1       3.435   6.444  17.874  0.00  0.00    +0.000 C 
ATOM      5  O   UNL     1       3.632   7.610  17.554  0.00  0.00    +0.000 OA
ATOM      6  H   UNL     1       3.884   4.514  18.053  0.00  0.00    +0.000 HD
BRANCH   3  11
ATOM      7  C   UNL     1       5.964   4.171  14.551  0.00  0.00    +0.000 A 
ATOM      8  C   UNL     1       7.235   4.703  14.704  0.00  0.00    +0.000 A 
ATOM      9  C   UNL     1       7.534   5.478  15.833  0.00  0.00    +0.000 A 
ATOM     10  C   UNL     1       6.565   5.740  16.820  0.00  0.00    +0.000 A 
ATOM     11  C   UNL     1       5.281   5.179  16.675  0.00  0.00    +0.000 A 
ATOM     12  C   UNL     1       5.014   4.390  15.543  0.00  0.00    +0.000 A 
BRANCH   7  14
ATOM     13  C   UNL     1       6.193   3.583  12.264  0.00  0.00    +0.000 C 
ATOM     14  O   UNL     1       5.511   3.427  13.499  0.00  0.00    +0.000 OA
ENDBRANCH   7  14
BRANCH  10  15
ATOM     15  O   UNL     1       6.804   6.610  17.849  0.00  0.00    +0.000 OA
ATOM     16  C   UNL     1       7.743   7.657  17.625  0.00  0.00    +0.000 C 
ENDBRANCH  10  15
ENDBRANCH   3  11
ENDBRANCH   2   4
ENDBRANCH   1   2
BRANCH   1  17
ATOM     17  C   UNL     1       1.188   6.816  20.881  0.00  0.00    +0.000 C 
BRANCH  17  18
ATOM     18  C   UNL     1       0.927   8.330  20.759  0.00  0.00    +0.000 A 
ATOM     19  C   UNL     1       1.168   9.085  19.609  0.00  0.00    +0.000 A 
ATOM     20  C   UNL     1       0.964  10.485  19.609  0.00  0.00    +0.000 A 
ATOM     21  C   UNL     1       0.471  11.175  20.731  0.00  0.00    +0.000 A 
ATOM     22  C   UNL     1       0.110  10.414  21.832  0.00  0.00    +0.000 A 
ATOM     23  C   UNL     1       0.346   9.020  21.845  0.00  0.00    +0.000 A 
BRANCH  21  24
ATOM     24  O   UNL     1       0.453  12.530  20.595  0.00  0.00    +0.000 OA
BRANCH  24  25
ATOM     25  C   UNL     1      -0.438  13.344  19.813  0.00  0.00    +0.000 C 
ATOM     26  C   UNL     1      -1.334  14.037  20.871  0.00  0.00    +0.000 C 
ATOM     27  C   UNL     1       0.350  14.462  19.108  0.00  0.00    +0.000 C 
BRANCH  25  28
ATOM     28  C   UNL     1      -1.437  12.711  18.810  0.00  0.00    +0.000 C 
ATOM     29  O   UNL     1      -2.464  12.122  19.121  0.00  0.00    +0.000 OA
BRANCH  28  30
ATOM     30  O   UNL     1      -1.046  12.818  17.520  0.00  0.00    +0.000 OA
ATOM     31  H   UNL     1      -1.698  13.307  16.971  0.00  0.00    +0.000 HD
ENDBRANCH  28  30
ENDBRANCH  25  28
ENDBRANCH  24  25
ENDBRANCH  21  24
ENDBRANCH  17  18
ENDBRANCH   1  17
BRANCH   1  32
ATOM     32  C   UNL     1       2.645   4.857  20.775  0.00  0.00    +0.000 C 
BRANCH  32  33
ATOM     33  C   UNL     1       1.995   3.797  19.941  0.00  0.00    +0.000 A 
ATOM     34  C   UNL     1       0.709   3.303  19.850  0.00  0.00    +0.000 A 
ATOM     35  C   UNL     1       0.736   2.288  18.861  0.00  0.00    +0.000 A 
ATOM     36  C   UNL     1       2.035   2.227  18.410  0.00  0.00    +0.000 A 
ATOM     37  O   UNL     1       2.805   3.138  19.060  0.00  0.00    +0.000 OA
ENDBRANCH  32  33
ENDBRANCH   1  32
TORSDOF 13
ENDMDL
MODEL 9
REMARK VINA RESULT:      -7.0      3.315     11.303
REMARK  Name = 
REMARK  17 active torsions:
REMARK  status: ('A' for Active; 'I' for Inactive)
REMARK    1  A    between atoms: C_1  and  O_2
REMARK    2  A    between atoms: O_2  and  C_3
REMARK    3  A    between atoms: C_6  and  O_7
REMARK    4  A    between atoms: O_7  and  C_8
REMARK    5  A    between atoms: C_9  and  N_10
REMARK    6  A    between atoms: C_11  and  C_13
REMARK    7  A    between atoms: C_13  and  N_14
REMARK    8  A    between atoms: N_14  and  C_15
REMARK    9  A    between atoms: N_14  and  C_29
REMARK   10  A    between atoms: C_15  and  C_16
REMARK   11  A    between atoms: C_19  and  O_20
REMARK   12  A    between atoms: O_20  and  C_21
REMARK   13  A    between atoms: C_21  and  C_22
REMARK   14  A    between atoms: C_21  and  C_23
REMARK   15  A    between atoms: C_21  and  C_24
REMARK   16  A    between atoms: C_24  and  O_26
REMARK   17  A    between atoms: C_29  and  C_30
REMARK                            x       y       z     vdW  Elec       q    Type
REMARK                         _______ _______ _______ _____ _____    ______ ____
ROOT
ATOM      1  N   UNL     1       2.753   6.533  18.334  0.00  0.00    +0.000 NA
ENDROOT
BRANCH   1   2
ATOM      2  C   UNL     1       2.611   8.004  17.967  0.00  0.00    +0.000 C 
BRANCH   2   4
ATOM      3  N   UNL     1       0.883   9.676  18.029  0.00  0.00    +0.000 N 
ATOM      4  C   UNL     1       1.610   8.812  18.806  0.00  0.00    +0.000 C 
ATOM      5  O   UNL     1       1.519   8.619  20.012  0.00  0.00    +0.000 OA
ATOM      6  H   UNL     1       1.269   9.769  17.094  0.00  0.00    +0.000 HD
BRANCH   3  11
ATOM      7  C   UNL     1      -2.591  10.842  18.018  0.00  0.00    +0.000 A 
ATOM      8  C   UNL     1      -2.565  11.979  18.812  0.00  0.00    +0.000 A 
ATOM      9  C   UNL     1      -1.356  12.403  19.381  0.00  0.00    +0.000 A 
ATOM     10  C   UNL     1      -0.159  11.692  19.174  0.00  0.00    +0.000 A 
ATOM     11  C   UNL     1      -0.182  10.552  18.348  0.00  0.00    +0.000 A 
ATOM     12  C   UNL     1      -1.404  10.160  17.774  0.00  0.00    +0.000 A 
BRANCH   7  14
ATOM     13  C   UNL     1      -4.558  11.169  16.733  0.00  0.00    +0.000 C 
ATOM     14  O   UNL     1      -3.687  10.286  17.423  0.00  0.00    +0.000 OA
ENDBRANCH   7  14
BRANCH  10  15
ATOM     15  O   UNL     1       0.993  12.015  19.838  0.00  0.00    +0.000 OA
ATOM     16  C   UNL     1       1.493  13.341  19.691  0.00  0.00    +0.000 C 
ENDBRANCH  10  15
ENDBRANCH   3  11
ENDBRANCH   2   4
ENDBRANCH   1   2
BRANCH   1  17
ATOM     17  C   UNL     1       4.198   6.131  18.336  0.00  0.00    +0.000 C 
BRANCH  17  18
ATOM     18  C   UNL     1       4.768   5.398  17.107  0.00  0.00    +0.000 A 
ATOM     19  C   UNL     1       4.730   4.014  16.921  0.00  0.00    +0.000 A 
ATOM     20  C   UNL     1       5.340   3.421  15.791  0.00  0.00    +0.000 A 
ATOM     21  C   UNL     1       5.968   4.180  14.787  0.00  0.00    +0.000 A 
ATOM     22  C   UNL     1       5.898   5.559  14.902  0.00  0.00    +0.000 A 
ATOM     23  C   UNL     1       5.319   6.152  16.047  0.00  0.00    +0.000 A 
BRANCH  21  24
ATOM     24  O   UNL     1       6.607   3.440  13.839  0.00  0.00    +0.000 OA
BRANCH  24  25
ATOM     25  C   UNL     1       6.405   3.432  12.416  0.00  0.00    +0.000 C 
ATOM     26  C   UNL     1       4.884   3.685  12.255  0.00  0.00    +0.000 C 
ATOM     27  C   UNL     1       7.118   4.636  11.775  0.00  0.00    +0.000 C 
BRANCH  25  28
ATOM     28  C   UNL     1       6.681   2.164  11.569  0.00  0.00    +0.000 C 
ATOM     29  O   UNL     1       7.742   1.907  11.014  0.00  0.00    +0.000 OA
BRANCH  28  30
ATOM     30  O   UNL     1       5.603   1.357  11.441  0.00  0.00    +0.000 OA
ATOM     31  H   UNL     1       5.014   1.634  10.704  0.00  0.00    +0.000 HD
ENDBRANCH  28  30
ENDBRANCH  25  28
ENDBRANCH  24  25
ENDBRANCH  21  24
ENDBRANCH  17  18
ENDBRANCH   1  17
BRANCH   1  32
ATOM     32  C   UNL     1       2.204   6.418  19.721  0.00  0.00    +0.000 C 
BRANCH  32  33
ATOM     33  C   UNL     1       1.877   5.012  20.114  0.00  0.00    +0.000 A 
ATOM     34  C   UNL     1       2.115   4.251  21.241  0.00  0.00    +0.000 A 
ATOM     35  C   UNL     1       1.548   2.976  20.995  0.00  0.00    +0.000 A 
ATOM     36  C   UNL     1       0.998   3.038  19.734  0.00  0.00    +0.000 A 
ATOM     37  O   UNL     1       1.193   4.269  19.193  0.00  0.00    +0.000 OA
ENDBRANCH  32  33
ENDBRANCH   1  32
TORSDOF 13
ENDMDL
