MODEL 1
REMARK VINA RESULT:      -6.7      0.000      0.000
REMARK  Name = 
REMARK  2 active torsions:
REMARK  status: ('A' for Active; 'I' for Inactive)
REMARK    1  A    between atoms: C_4  and  O_5
REMARK    2  A    between atoms: C_7  and  C_8
REMARK                            x       y       z     vdW  Elec       q    Type
REMARK                         _______ _______ _______ _____ _____    ______ ____
ROOT
ATOM      1  O   UNL     1       2.178   2.514  17.091  0.00  0.00    +0.000 OA
ATOM      2  C   UNL     1       2.801   3.439  17.608  0.00  0.00    +0.000 C 
ATOM      3  C   UNL     1       4.242   3.254  17.898  0.00  0.00    +0.000 C 
ATOM      4  C   UNL     1       4.942   4.223  18.501  0.00  0.00    +0.000 C 
ATOM      5  C   UNL     1       4.365   5.560  18.873  0.00  0.00    +0.000 C 
ATOM      6  C   UNL     1       3.097   5.898  18.066  0.00  0.00    +0.000 C 
ATOM      7  C   UNL     1       2.121   4.716  18.044  0.00  0.00    +0.000 C 
ENDROOT
BRANCH   6   8
ATOM      8  C   UNL     1       2.425   7.157  18.591  0.00  0.00    +0.000 A 
ATOM      9  C   UNL     1       2.075   7.264  19.947  0.00  0.00    +0.000 A 
ATOM     10  C   UNL     1       1.448   8.418  20.429  0.00  0.00    +0.000 A 
ATOM     11  C   UNL     1       1.170   9.471  19.563  0.00  0.00    +0.000 A 
ATOM     12 CL   UNL     1       0.393  10.886  20.154  0.00  0.00    +0.000 Cl
ATOM     13  C   UNL     1       1.514   9.384  18.217  0.00  0.00    +0.000 A 
ATOM     14  C   UNL     1       2.141   8.234  17.736  0.00  0.00    +0.000 A 
ENDBRANCH   6   8
BRANCH   4  15
ATOM     15  O   UNL     1       6.272   4.070  18.832  0.00  0.00    +0.000 OA
ATOM     16  H   UNL     1       6.466   3.128  18.981  0.00  0.00    +0.000 HD
ENDBRANCH   4  15
TORSDOF 2
ENDMDL
MODEL 2
REMARK VINA RESULT:      -6.7      0.106      1.251
REMARK  Name = 
REMARK  2 active torsions:
REMARK  status: ('A' for Active; 'I' for Inactive)
REMARK    1  A    between atoms: C_4  and  O_5
REMARK    2  A    between atoms: C_7  and  C_8
REMARK                            x       y       z     vdW  Elec       q    Type
REMARK                         _______ _______ _______ _____ _____    ______ ____
ROOT
ATOM      1  O   UNL     1       2.105   2.583  17.073  0.00  0.00    +0.000 OA
ATOM      2  C   UNL     1       2.730   3.486  17.625  0.00  0.00    +0.000 C 
ATOM      3  C   UNL     1       4.159   3.268  17.953  0.00  0.00    +0.000 C 
ATOM      4  C   UNL     1       4.859   4.212  18.594  0.00  0.00    +0.000 C 
ATOM      5  C   UNL     1       4.297   5.554  18.974  0.00  0.00    +0.000 C 
ATOM      6  C   UNL     1       3.060   5.931  18.137  0.00  0.00    +0.000 C 
ATOM      7  C   UNL     1       2.063   4.769  18.064  0.00  0.00    +0.000 C 
ENDROOT
BRANCH   6   8
ATOM      8  C   UNL     1       2.397   7.193  18.665  0.00  0.00    +0.000 A 
ATOM      9  C   UNL     1       2.152   8.279  17.810  0.00  0.00    +0.000 A 
ATOM     10  C   UNL     1       1.550   9.444  18.297  0.00  0.00    +0.000 A 
ATOM     11  C   UNL     1       1.188   9.530  19.638  0.00  0.00    +0.000 A 
ATOM     12 CL   UNL     1       0.456  10.965  20.238  0.00  0.00    +0.000 Cl
ATOM     13  C   UNL     1       1.419   8.461  20.499  0.00  0.00    +0.000 A 
ATOM     14  C   UNL     1       2.018   7.298  20.014  0.00  0.00    +0.000 A 
ENDBRANCH   6   8
BRANCH   4  15
ATOM     15  O   UNL     1       6.176   4.027  18.961  0.00  0.00    +0.000 OA
ATOM     16  H   UNL     1       6.448   4.734  19.571  0.00  0.00    +0.000 HD
ENDBRANCH   4  15
TORSDOF 2
ENDMDL
MODEL 3
REMARK VINA RESULT:      -6.7      3.991      5.252
REMARK  Name = 
REMARK  2 active torsions:
REMARK  status: ('A' for Active; 'I' for Inactive)
REMARK    1  A    between atoms: C_4  and  O_5
REMARK    2  A    between atoms: C_7  and  C_8
REMARK                            x       y       z     vdW  Elec       q    Type
REMARK                         _______ _______ _______ _____ _____    ______ ____
ROOT
ATOM      1  O   UNL     1       7.737   6.895  16.578  0.00  0.00    +0.000 OA
ATOM      2  C   UNL     1       6.980   5.942  16.399  0.00  0.00    +0.000 C 
ATOM      3  C   UNL     1       7.106   5.156  15.149  0.00  0.00    +0.000 C 
ATOM      4  C   UNL     1       6.271   4.141  14.901  0.00  0.00    +0.000 C 
ATOM      5  C   UNL     1       5.204   3.684  15.857  0.00  0.00    +0.000 C 
ATOM      6  C   UNL     1       5.484   4.130  17.305  0.00  0.00    +0.000 C 
ATOM      7  C   UNL     1       5.867   5.613  17.366  0.00  0.00    +0.000 C 
ENDROOT
BRANCH   6   8
ATOM      8  C   UNL     1       4.305   3.828  18.215  0.00  0.00    +0.000 A 
ATOM      9  C   UNL     1       3.010   4.243  17.865  0.00  0.00    +0.000 A 
ATOM     10  C   UNL     1       1.926   3.973  18.706  0.00  0.00    +0.000 A 
ATOM     11  C   UNL     1       2.126   3.287  19.900  0.00  0.00    +0.000 A 
ATOM     12 CL   UNL     1       0.795   2.963  20.937  0.00  0.00    +0.000 Cl
ATOM     13  C   UNL     1       3.402   2.863  20.261  0.00  0.00    +0.000 A 
ATOM     14  C   UNL     1       4.484   3.130  19.421  0.00  0.00    +0.000 A 
ENDBRANCH   6   8
BRANCH   4  15
ATOM     15  O   UNL     1       6.324   3.417  13.727  0.00  0.00    +0.000 OA
ATOM     16  H   UNL     1       6.451   2.474  13.930  0.00  0.00    +0.000 HD
ENDBRANCH   4  15
TORSDOF 2
ENDMDL
MODEL 4
REMARK VINA RESULT:      -6.7      3.771      4.674
REMARK  Name = 
REMARK  2 active torsions:
REMARK  status: ('A' for Active; 'I' for Inactive)
REMARK    1  A    between atoms: C_4  and  O_5
REMARK    2  A    between atoms: C_7  and  C_8
REMARK                            x       y       z     vdW  Elec       q    Type
REMARK                         _______ _______ _______ _____ _____    ______ ____
ROOT
ATOM      1  O   UNL     1       6.227   3.576  14.005  0.00  0.00    +0.000 OA
ATOM      2  C   UNL     1       6.097   4.168  15.074  0.00  0.00    +0.000 C 
ATOM      3  C   UNL     1       6.956   5.344  15.348  0.00  0.00    +0.000 C 
ATOM      4  C   UNL     1       6.873   5.986  16.519  0.00  0.00    +0.000 C 
ATOM      5  C   UNL     1       5.897   5.621  17.603  0.00  0.00    +0.000 C 
ATOM      6  C   UNL     1       4.699   4.814  17.067  0.00  0.00    +0.000 C 
ATOM      7  C   UNL     1       5.162   3.674  16.153  0.00  0.00    +0.000 C 
ENDROOT
BRANCH   6   8
ATOM      8  C   UNL     1       3.830   4.293  18.201  0.00  0.00    +0.000 A 
ATOM      9  C   UNL     1       4.321   3.317  19.083  0.00  0.00    +0.000 A 
ATOM     10  C   UNL     1       3.520   2.830  20.120  0.00  0.00    +0.000 A 
ATOM     11  C   UNL     1       2.226   3.317  20.286  0.00  0.00    +0.000 A 
ATOM     12 CL   UNL     1       1.239   2.712  21.557  0.00  0.00    +0.000 Cl
ATOM     13  C   UNL     1       1.725   4.288  19.425  0.00  0.00    +0.000 A 
ATOM     14  C   UNL     1       2.525   4.776  18.390  0.00  0.00    +0.000 A 
ENDBRANCH   6   8
BRANCH   4  15
ATOM     15  O   UNL     1       7.689   7.054  16.830  0.00  0.00    +0.000 OA
ATOM     16  H   UNL     1       8.614   6.830  16.623  0.00  0.00    +0.000 HD
ENDBRANCH   4  15
TORSDOF 2
ENDMDL
MODEL 5
REMARK VINA RESULT:      -6.6      4.191      5.123
REMARK  Name = 
REMARK  2 active torsions:
REMARK  status: ('A' for Active; 'I' for Inactive)
REMARK    1  A    between atoms: C_4  and  O_5
REMARK    2  A    between atoms: C_7  and  C_8
REMARK                            x       y       z     vdW  Elec       q    Type
REMARK                         _______ _______ _______ _____ _____    ______ ____
ROOT
ATOM      1  O   UNL     1       7.766   6.790  16.374  0.00  0.00    +0.000 OA
ATOM      2  C   UNL     1       6.986   5.859  16.182  0.00  0.00    +0.000 C 
ATOM      3  C   UNL     1       7.132   5.048  14.950  0.00  0.00    +0.000 C 
ATOM      4  C   UNL     1       6.274   4.056  14.687  0.00  0.00    +0.000 C 
ATOM      5  C   UNL     1       5.158   3.651  15.609  0.00  0.00    +0.000 C 
ATOM      6  C   UNL     1       5.398   4.111  17.059  0.00  0.00    +0.000 C 
ATOM      7  C   UNL     1       5.827   5.582  17.111  0.00  0.00    +0.000 C 
ENDROOT
BRANCH   6   8
ATOM      8  C   UNL     1       4.177   3.863  17.930  0.00  0.00    +0.000 A 
ATOM      9  C   UNL     1       4.317   3.657  19.311  0.00  0.00    +0.000 A 
ATOM     10  C   UNL     1       3.195   3.420  20.111  0.00  0.00    +0.000 A 
ATOM     11  C   UNL     1       1.926   3.389  19.538  0.00  0.00    +0.000 A 
ATOM     12 CL   UNL     1       0.548   3.089  20.520  0.00  0.00    +0.000 Cl
ATOM     13  C   UNL     1       1.768   3.596  18.171  0.00  0.00    +0.000 A 
ATOM     14  C   UNL     1       2.887   3.834  17.372  0.00  0.00    +0.000 A 
ENDBRANCH   6   8
BRANCH   4  15
ATOM     15  O   UNL     1       6.347   3.311  13.528  0.00  0.00    +0.000 OA
ATOM     16  H   UNL     1       6.068   2.396  13.709  0.00  0.00    +0.000 HD
ENDBRANCH   4  15
TORSDOF 2
ENDMDL
MODEL 6
REMARK VINA RESULT:      -6.6      3.914      5.310
REMARK  Name = 
REMARK  2 active torsions:
REMARK  status: ('A' for Active; 'I' for Inactive)
REMARK    1  A    between atoms: C_4  and  O_5
REMARK    2  A    between atoms: C_7  and  C_8
REMARK                            x       y       z     vdW  Elec       q    Type
REMARK                         _______ _______ _______ _____ _____    ______ ____
ROOT
ATOM      1  O   UNL     1       0.337   2.325  18.846  0.00  0.00    +0.000 OA
ATOM      2  C   UNL     1       1.170   3.229  18.886  0.00  0.00    +0.000 C 
ATOM      3  C   UNL     1       1.120   4.195  20.009  0.00  0.00    +0.000 C 
ATOM      4  C   UNL     1       1.983   5.217  20.061  0.00  0.00    +0.000 C 
ATOM      5  C   UNL     1       3.077   5.438  19.054  0.00  0.00    +0.000 C 
ATOM      6  C   UNL     1       3.434   4.153  18.284  0.00  0.00    +0.000 C 
ATOM      7  C   UNL     1       2.175   3.440  17.778  0.00  0.00    +0.000 C 
ENDROOT
BRANCH   6   8
ATOM      8  C   UNL     1       4.399   4.440  17.144  0.00  0.00    +0.000 A 
ATOM      9  C   UNL     1       5.061   3.388  16.491  0.00  0.00    +0.000 A 
ATOM     10  C   UNL     1       5.956   3.652  15.448  0.00  0.00    +0.000 A 
ATOM     11  C   UNL     1       6.193   4.965  15.051  0.00  0.00    +0.000 A 
ATOM     12 CL   UNL     1       7.299   5.288  13.776  0.00  0.00    +0.000 Cl
ATOM     13  C   UNL     1       5.542   6.019  15.685  0.00  0.00    +0.000 A 
ATOM     14  C   UNL     1       4.648   5.757  16.723  0.00  0.00    +0.000 A 
ENDBRANCH   6   8
BRANCH   4  15
ATOM     15  O   UNL     1       1.937   6.165  21.063  0.00  0.00    +0.000 OA
ATOM     16  H   UNL     1       1.018   6.456  21.196  0.00  0.00    +0.000 HD
ENDBRANCH   4  15
TORSDOF 2
ENDMDL
MODEL 7
REMARK VINA RESULT:      -6.6      3.997      4.738
REMARK  Name = 
REMARK  2 active torsions:
REMARK  status: ('A' for Active; 'I' for Inactive)
REMARK    1  A    between atoms: C_4  and  O_5
REMARK    2  A    between atoms: C_7  and  C_8
REMARK                            x       y       z     vdW  Elec       q    Type
REMARK                         _______ _______ _______ _____ _____    ______ ____
ROOT
ATOM      1  O   UNL     1       6.173   3.571  13.791  0.00  0.00    +0.000 OA
ATOM      2  C   UNL     1       6.050   4.141  14.873  0.00  0.00    +0.000 C 
ATOM      3  C   UNL     1       6.958   5.269  15.192  0.00  0.00    +0.000 C 
ATOM      4  C   UNL     1       6.883   5.884  16.378  0.00  0.00    +0.000 C 
ATOM      5  C   UNL     1       5.870   5.539  17.434  0.00  0.00    +0.000 C 
ATOM      6  C   UNL     1       4.646   4.803  16.857  0.00  0.00    +0.000 C 
ATOM      7  C   UNL     1       5.072   3.666  15.922  0.00  0.00    +0.000 C 
ENDROOT
BRANCH   6   8
ATOM      8  C   UNL     1       3.733   4.296  17.961  0.00  0.00    +0.000 A 
ATOM      9  C   UNL     1       2.341   4.268  17.777  0.00  0.00    +0.000 A 
ATOM     10  C   UNL     1       1.499   3.810  18.795  0.00  0.00    +0.000 A 
ATOM     11  C   UNL     1       2.041   3.374  20.001  0.00  0.00    +0.000 A 
ATOM     12 CL   UNL     1       1.005   2.818  21.255  0.00  0.00    +0.000 Cl
ATOM     13  C   UNL     1       3.418   3.389  20.199  0.00  0.00    +0.000 A 
ATOM     14  C   UNL     1       4.259   3.844  19.183  0.00  0.00    +0.000 A 
ENDBRANCH   6   8
BRANCH   4  15
ATOM     15  O   UNL     1       7.742   6.904  16.731  0.00  0.00    +0.000 OA
ATOM     16  H   UNL     1       7.975   6.824  17.673  0.00  0.00    +0.000 HD
ENDBRANCH   4  15
TORSDOF 2
ENDMDL
MODEL 8
REMARK VINA RESULT:      -6.6      4.147      5.567
REMARK  Name = 
REMARK  2 active torsions:
REMARK  status: ('A' for Active; 'I' for Inactive)
REMARK    1  A    between atoms: C_4  and  O_5
REMARK    2  A    between atoms: C_7  and  C_8
REMARK                            x       y       z     vdW  Elec       q    Type
REMARK                         _______ _______ _______ _____ _____    ______ ____
ROOT
ATOM      1  O   UNL     1       2.221   4.735  21.559  0.00  0.00    +0.000 OA
ATOM      2  C   UNL     1       2.241   4.280  20.417  0.00  0.00    +0.000 C 
ATOM      3  C   UNL     1       1.170   3.342  20.005  0.00  0.00    +0.000 C 
ATOM      4  C   UNL     1       1.183   2.792  18.785  0.00  0.00    +0.000 C 
ATOM      5  C   UNL     1       2.216   3.108  17.739  0.00  0.00    +0.000 C 
ATOM      6  C   UNL     1       2.922   4.452  17.998  0.00  0.00    +0.000 C 
ATOM      7  C   UNL     1       3.372   4.571  19.459  0.00  0.00    +0.000 C 
ENDROOT
BRANCH   6   8
ATOM      8  C   UNL     1       4.088   4.659  17.045  0.00  0.00    +0.000 A 
ATOM      9  C   UNL     1       4.533   5.954  16.734  0.00  0.00    +0.000 A 
ATOM     10  C   UNL     1       5.600   6.145  15.851  0.00  0.00    +0.000 A 
ATOM     11  C   UNL     1       6.230   5.046  15.274  0.00  0.00    +0.000 A 
ATOM     12 CL   UNL     1       7.536   5.282  14.181  0.00  0.00    +0.000 Cl
ATOM     13  C   UNL     1       5.806   3.755  15.574  0.00  0.00    +0.000 A 
ATOM     14  C   UNL     1       4.743   3.563  16.457  0.00  0.00    +0.000 A 
ENDBRANCH   6   8
BRANCH   4  15
ATOM     15  O   UNL     1       0.233   1.877  18.382  0.00  0.00    +0.000 OA
ATOM     16  H   UNL     1       0.671   1.070  18.060  0.00  0.00    +0.000 HD
ENDBRANCH   4  15
TORSDOF 2
ENDMDL
MODEL 9
REMARK VINA RESULT:      -6.6      3.793      5.341
REMARK  Name = 
REMARK  2 active torsions:
REMARK  status: ('A' for Active; 'I' for Inactive)
REMARK    1  A    between atoms: C_4  and  O_5
REMARK    2  A    between atoms: C_7  and  C_8
REMARK                            x       y       z     vdW  Elec       q    Type
REMARK                         _______ _______ _______ _____ _____    ______ ____
ROOT
ATOM      1  O   UNL     1       0.539   2.760  19.621  0.00  0.00    +0.000 OA
ATOM      2  C   UNL     1       1.312   3.701  19.453  0.00  0.00    +0.000 C 
ATOM      3  C   UNL     1       1.240   4.857  20.377  0.00  0.00    +0.000 C 
ATOM      4  C   UNL     1       2.035   5.918  20.198  0.00  0.00    +0.000 C 
ATOM      5  C   UNL     1       3.077   6.007  19.118  0.00  0.00    +0.000 C 
ATOM      6  C   UNL     1       3.489   4.622  18.584  0.00  0.00    +0.000 C 
ATOM      7  C   UNL     1       2.262   3.756  18.280  0.00  0.00    +0.000 C 
ENDROOT
BRANCH   6   8
ATOM      8  C   UNL     1       4.393   4.744  17.368  0.00  0.00    +0.000 A 
ATOM      9  C   UNL     1       4.628   5.996  16.778  0.00  0.00    +0.000 A 
ATOM     10  C   UNL     1       5.453   6.107  15.654  0.00  0.00    +0.000 A 
ATOM     11  C   UNL     1       6.048   4.971  15.113  0.00  0.00    +0.000 A 
ATOM     12 CL   UNL     1       7.055   5.108  13.727  0.00  0.00    +0.000 Cl
ATOM     13  C   UNL     1       5.830   3.723  15.688  0.00  0.00    +0.000 A 
ATOM     14  C   UNL     1       5.010   3.611  16.811  0.00  0.00    +0.000 A 
ENDBRANCH   6   8
BRANCH   4  15
ATOM     15  O   UNL     1       1.963   7.034  21.007  0.00  0.00    +0.000 OA
ATOM     16  H   UNL     1       2.268   6.808  21.903  0.00  0.00    +0.000 HD
ENDBRANCH   4  15
TORSDOF 2
ENDMDL
