MODEL 1
REMARK VINA RESULT:      -8.1      0.000      0.000
REMARK  Name = 
REMARK  9 active torsions:
REMARK  status: ('A' for Active; 'I' for Inactive)
REMARK    1  A    between atoms: N_1  and  C_2
REMARK    2  A    between atoms: N_10  and  C_11
REMARK    3  A    between atoms: C_13  and  C_14
REMARK    4  A    between atoms: C_14  and  O_15
REMARK    5  A    between atoms: C_16  and  O_17
REMARK    6  A    between atoms: C_18  and  N_19
REMARK    7  A    between atoms: C_20  and  C_22
REMARK    8  A    between atoms: C_24  and  O_25
REMARK    9  A    between atoms: C_27  and  O_28
REMARK                            x       y       z     vdW  Elec       q    Type
REMARK                         _______ _______ _______ _____ _____    ______ ____
ROOT
ATOM      1  C   UNL     1       4.765   4.513  19.436  0.00  0.00    +0.000 C 
ATOM      2  O   UNL     1       4.886   3.114  19.788  0.00  0.00    +0.000 OA
ATOM      3  C   UNL     1       3.560   2.529  19.862  0.00  0.00    +0.000 C 
ATOM      4  C   UNL     1       2.573   3.695  19.832  0.00  0.00    +0.000 C 
ATOM      5  C   UNL     1       3.312   4.752  19.009  0.00  0.00    +0.000 C 
ENDROOT
BRANCH   1  14
ATOM      6  C   UNL     1       6.940   4.927  15.134  0.00  0.00    +0.000 A 
ATOM      7  N   UNL     1       6.096   4.086  14.488  0.00  0.00    +0.000 NA
ATOM      8  C   UNL     1       5.113   3.496  15.204  0.00  0.00    +0.000 A 
ATOM      9  N   UNL     1       4.833   3.620  16.523  0.00  0.00    +0.000 NA
ATOM     10  C   UNL     1       5.716   4.444  17.114  0.00  0.00    +0.000 A 
ATOM     11  C   UNL     1       6.777   5.102  16.517  0.00  0.00    +0.000 A 
ATOM     12  N   UNL     1       7.482   5.844  17.446  0.00  0.00    +0.000 NA
ATOM     13  C   UNL     1       6.837   5.659  18.578  0.00  0.00    +0.000 A 
ATOM     14  N   UNL     1       5.751   4.837  18.426  0.00  0.00    +0.000 N 
BRANCH   6  15
ATOM     15  N   UNL     1       7.915   5.577  14.391  0.00  0.00    +0.000 N 
ATOM     16  H   UNL     1       8.264   6.418  14.825  0.00  0.00    +0.000 HD
ATOM     17  H   UNL     1       7.746   5.580  13.389  0.00  0.00    +0.000 HD
ENDBRANCH   6  15
ENDBRANCH   1  14
BRANCH   5  18
ATOM     18  N   UNL     1       2.821   6.103  19.255  0.00  0.00    +0.000 N 
ATOM     19  C   UNL     1       2.819   7.054  18.260  0.00  0.00    +0.000 C 
ATOM     20  O   UNL     1       3.288   6.847  17.146  0.00  0.00    +0.000 OA
ATOM     21  H   UNL     1       2.310   6.278  20.111  0.00  0.00    +0.000 HD
BRANCH  19  22
ATOM     22  C   UNL     1       2.274   8.395  18.612  0.00  0.00    +0.000 A 
ATOM     23  C   UNL     1       1.414   8.483  19.717  0.00  0.00    +0.000 A 
ATOM     24  C   UNL     1       0.847   9.710  20.050  0.00  0.00    +0.000 A 
ATOM     25  C   UNL     1       1.126  10.853  19.310  0.00  0.00    +0.000 A 
ATOM     26  C   UNL     1       1.990  10.760  18.225  0.00  0.00    +0.000 A 
ATOM     27  C   UNL     1       2.574   9.546  17.873  0.00  0.00    +0.000 A 
BRANCH  24  28
ATOM     28  O   UNL     1      -0.011   9.833  21.104  0.00  0.00    +0.000 OA
ATOM     29  H   UNL     1       0.451  10.275  21.836  0.00  0.00    +0.000 HD
ENDBRANCH  24  28
BRANCH  26  30
ATOM     30  O   UNL     1       2.290  11.847  17.459  0.00  0.00    +0.000 OA
ATOM     31  H   UNL     1       1.459  12.262  17.168  0.00  0.00    +0.000 HD
ENDBRANCH  26  30
ENDBRANCH  19  22
ENDBRANCH   5  18
BRANCH   4  32
ATOM     32  O   UNL     1       2.337   4.179  21.167  0.00  0.00    +0.000 OA
ATOM     33  H   UNL     1       1.581   3.707  21.557  0.00  0.00    +0.000 HD
ENDBRANCH   4  32
BRANCH   3  34
ATOM     34  C   UNL     1       3.381   1.556  18.693  0.00  0.00    +0.000 C 
BRANCH  34  35
ATOM     35  O   UNL     1       4.450   0.613  18.661  0.00  0.00    +0.000 OA
ATOM     36  H   UNL     1       4.393   0.077  19.473  0.00  0.00    +0.000 HD
ENDBRANCH  34  35
ENDBRANCH   3  34
TORSDOF 9
ENDMDL
MODEL 2
REMARK VINA RESULT:      -8.0      0.482      1.610
REMARK  Name = 
REMARK  9 active torsions:
REMARK  status: ('A' for Active; 'I' for Inactive)
REMARK    1  A    between atoms: N_1  and  C_2
REMARK    2  A    between atoms: N_10  and  C_11
REMARK    3  A    between atoms: C_13  and  C_14
REMARK    4  A    between atoms: C_14  and  O_15
REMARK    5  A    between atoms: C_16  and  O_17
REMARK    6  A    between atoms: C_18  and  N_19
REMARK    7  A    between atoms: C_20  and  C_22
REMARK    8  A    between atoms: C_24  and  O_25
REMARK    9  A    between atoms: C_27  and  O_28
REMARK                            x       y       z     vdW  Elec       q    Type
REMARK                         _______ _______ _______ _____ _____    ______ ____
ROOT
ATOM      1  C   UNL     1       4.876   4.444  19.365  0.00  0.00    +0.000 C 
ATOM      2  O   UNL     1       5.074   3.052  19.711  0.00  0.00    +0.000 OA
ATOM      3  C   UNL     1       3.782   2.397  19.788  0.00  0.00    +0.000 C 
ATOM      4  C   UNL     1       2.734   3.507  19.767  0.00  0.00    +0.000 C 
ATOM      5  C   UNL     1       3.411   4.606  18.945  0.00  0.00    +0.000 C 
ENDROOT
BRANCH   1  14
ATOM      6  C   UNL     1       7.034   4.945  15.063  0.00  0.00    +0.000 A 
ATOM      7  N   UNL     1       6.261   4.030  14.430  0.00  0.00    +0.000 NA
ATOM      8  C   UNL     1       5.324   3.379  15.154  0.00  0.00    +0.000 A 
ATOM      9  N   UNL     1       5.028   3.505  16.469  0.00  0.00    +0.000 NA
ATOM     10  C   UNL     1       5.842   4.406  17.048  0.00  0.00    +0.000 A 
ATOM     11  C   UNL     1       6.852   5.133  16.442  0.00  0.00    +0.000 A 
ATOM     12  N   UNL     1       7.493   5.945  17.360  0.00  0.00    +0.000 NA
ATOM     13  C   UNL     1       6.858   5.731  18.493  0.00  0.00    +0.000 A 
ATOM     14  N   UNL     1       5.840   4.825  18.353  0.00  0.00    +0.000 N 
BRANCH   6  15
ATOM     15  N   UNL     1       7.960   5.655  14.311  0.00  0.00    +0.000 N 
ATOM     16  H   UNL     1       7.669   6.596  14.091  0.00  0.00    +0.000 HD
ATOM     17  H   UNL     1       8.424   5.107  13.593  0.00  0.00    +0.000 HD
ENDBRANCH   6  15
ENDBRANCH   1  14
BRANCH   5  18
ATOM     18  N   UNL     1       2.850   5.927  19.199  0.00  0.00    +0.000 N 
ATOM     19  C   UNL     1       2.882   6.913  18.238  0.00  0.00    +0.000 C 
ATOM     20  O   UNL     1       3.440   6.765  17.157  0.00  0.00    +0.000 OA
ATOM     21  H   UNL     1       2.271   6.052  20.019  0.00  0.00    +0.000 HD
BRANCH  19  22
ATOM     22  C   UNL     1       2.259   8.219  18.593  0.00  0.00    +0.000 A 
ATOM     23  C   UNL     1       2.582   9.334  17.806  0.00  0.00    +0.000 A 
ATOM     24  C   UNL     1       2.059  10.582  18.134  0.00  0.00    +0.000 A 
ATOM     25  C   UNL     1       1.212  10.740  19.225  0.00  0.00    +0.000 A 
ATOM     26  C   UNL     1       0.886   9.627  19.992  0.00  0.00    +0.000 A 
ATOM     27  C   UNL     1       1.392   8.367  19.683  0.00  0.00    +0.000 A 
BRANCH  24  28
ATOM     28  O   UNL     1       2.366  11.695  17.407  0.00  0.00    +0.000 OA
ATOM     29  H   UNL     1       3.323  11.709  17.243  0.00  0.00    +0.000 HD
ENDBRANCH  24  28
BRANCH  26  30
ATOM     30  O   UNL     1       0.068   9.726  21.079  0.00  0.00    +0.000 OA
ATOM     31  H   UNL     1      -0.528   8.957  21.091  0.00  0.00    +0.000 HD
ENDBRANCH  26  30
ENDBRANCH  19  22
ENDBRANCH   5  18
BRANCH   4  32
ATOM     32  O   UNL     1       2.478   3.973  21.105  0.00  0.00    +0.000 OA
ATOM     33  H   UNL     1       1.555   4.276  21.174  0.00  0.00    +0.000 HD
ENDBRANCH   4  32
BRANCH   3  34
ATOM     34  C   UNL     1       3.650   1.420  18.615  0.00  0.00    +0.000 C 
BRANCH  34  35
ATOM     35  O   UNL     1       2.543   1.778  17.791  0.00  0.00    +0.000 OA
ATOM     36  H   UNL     1       2.239   2.660  18.074  0.00  0.00    +0.000 HD
ENDBRANCH  34  35
ENDBRANCH   3  34
TORSDOF 9
ENDMDL
MODEL 3
REMARK VINA RESULT:      -8.0      0.892      1.722
REMARK  Name = 
REMARK  9 active torsions:
REMARK  status: ('A' for Active; 'I' for Inactive)
REMARK    1  A    between atoms: N_1  and  C_2
REMARK    2  A    between atoms: N_10  and  C_11
REMARK    3  A    between atoms: C_13  and  C_14
REMARK    4  A    between atoms: C_14  and  O_15
REMARK    5  A    between atoms: C_16  and  O_17
REMARK    6  A    between atoms: C_18  and  N_19
REMARK    7  A    between atoms: C_20  and  C_22
REMARK    8  A    between atoms: C_24  and  O_25
REMARK    9  A    between atoms: C_27  and  O_28
REMARK                            x       y       z     vdW  Elec       q    Type
REMARK                         _______ _______ _______ _____ _____    ______ ____
ROOT
ATOM      1  C   UNL     1       4.143   4.209  19.873  0.00  0.00    +0.000 C 
ATOM      2  O   UNL     1       4.214   2.770  20.022  0.00  0.00    +0.000 OA
ATOM      3  C   UNL     1       2.876   2.219  19.921  0.00  0.00    +0.000 C 
ATOM      4  C   UNL     1       1.915   3.404  19.999  0.00  0.00    +0.000 C 
ATOM      5  C   UNL     1       2.728   4.549  19.392  0.00  0.00    +0.000 C 
ENDROOT
BRANCH   1  14
ATOM      6  C   UNL     1       6.673   5.071  15.840  0.00  0.00    +0.000 A 
ATOM      7  N   UNL     1       5.917   4.273  15.048  0.00  0.00    +0.000 NA
ATOM      8  C   UNL     1       4.896   3.595  15.616  0.00  0.00    +0.000 A 
ATOM      9  N   UNL     1       4.497   3.590  16.910  0.00  0.00    +0.000 NA
ATOM     10  C   UNL     1       5.297   4.378  17.650  0.00  0.00    +0.000 A 
ATOM     11  C   UNL     1       6.384   5.115  17.213  0.00  0.00    +0.000 A 
ATOM     12  N   UNL     1       6.979   5.785  18.265  0.00  0.00    +0.000 NA
ATOM     13  C   UNL     1       6.243   5.480  19.313  0.00  0.00    +0.000 A 
ATOM     14  N   UNL     1       5.203   4.649  18.990  0.00  0.00    +0.000 N 
BRANCH   6  15
ATOM     15  N   UNL     1       7.688   5.811  15.250  0.00  0.00    +0.000 N 
ATOM     16  H   UNL     1       8.023   6.572  15.822  0.00  0.00    +0.000 HD
ATOM     17  H   UNL     1       7.566   5.968  14.253  0.00  0.00    +0.000 HD
ENDBRANCH   6  15
ENDBRANCH   1  14
BRANCH   5  18
ATOM     18  N   UNL     1       2.246   5.862  19.802  0.00  0.00    +0.000 N 
ATOM     19  C   UNL     1       2.325   6.947  18.958  0.00  0.00    +0.000 C 
ATOM     20  O   UNL     1       2.863   6.891  17.858  0.00  0.00    +0.000 OA
ATOM     21  H   UNL     1       1.684   5.925  20.641  0.00  0.00    +0.000 HD
BRANCH  19  22
ATOM     22  C   UNL     1       1.782   8.237  19.468  0.00  0.00    +0.000 A 
ATOM     23  C   UNL     1       1.592   9.277  18.547  0.00  0.00    +0.000 A 
ATOM     24  C   UNL     1       1.132  10.514  18.992  0.00  0.00    +0.000 A 
ATOM     25  C   UNL     1       0.848  10.732  20.335  0.00  0.00    +0.000 A 
ATOM     26  C   UNL     1       1.027   9.691  21.240  0.00  0.00    +0.000 A 
ATOM     27  C   UNL     1       1.482   8.444  20.820  0.00  0.00    +0.000 A 
BRANCH  24  28
ATOM     28  O   UNL     1       0.953  11.557  18.132  0.00  0.00    +0.000 OA
ATOM     29  H   UNL     1       0.660  12.335  18.636  0.00  0.00    +0.000 HD
ENDBRANCH  24  28
BRANCH  26  30
ATOM     30  O   UNL     1       0.774   9.854  22.570  0.00  0.00    +0.000 OA
ATOM     31  H   UNL     1       1.566  10.230  22.993  0.00  0.00    +0.000 HD
ENDBRANCH  26  30
ENDBRANCH  19  22
ENDBRANCH   5  18
BRANCH   4  32
ATOM     32  O   UNL     1       1.595   3.694  21.372  0.00  0.00    +0.000 OA
ATOM     33  H   UNL     1       1.513   2.862  21.871  0.00  0.00    +0.000 HD
ENDBRANCH   4  32
BRANCH   3  34
ATOM     34  C   UNL     1       2.760   1.433  18.611  0.00  0.00    +0.000 C 
BRANCH  34  35
ATOM     35  O   UNL     1       4.004   0.810  18.293  0.00  0.00    +0.000 OA
ATOM     36  H   UNL     1       4.177   0.137  18.976  0.00  0.00    +0.000 HD
ENDBRANCH  34  35
ENDBRANCH   3  34
TORSDOF 9
ENDMDL
MODEL 4
REMARK VINA RESULT:      -7.9      1.046      1.789
REMARK  Name = 
REMARK  9 active torsions:
REMARK  status: ('A' for Active; 'I' for Inactive)
REMARK    1  A    between atoms: N_1  and  C_2
REMARK    2  A    between atoms: N_10  and  C_11
REMARK    3  A    between atoms: C_13  and  C_14
REMARK    4  A    between atoms: C_14  and  O_15
REMARK    5  A    between atoms: C_16  and  O_17
REMARK    6  A    between atoms: C_18  and  N_19
REMARK    7  A    between atoms: C_20  and  C_22
REMARK    8  A    between atoms: C_24  and  O_25
REMARK    9  A    between atoms: C_27  and  O_28
REMARK                            x       y       z     vdW  Elec       q    Type
REMARK                         _______ _______ _______ _____ _____    ______ ____
ROOT
ATOM      1  C   UNL     1       3.920   4.594  19.303  0.00  0.00    +0.000 C 
ATOM      2  O   UNL     1       4.009   3.235  19.796  0.00  0.00    +0.000 OA
ATOM      3  C   UNL     1       2.743   2.868  20.401  0.00  0.00    +0.000 C 
ATOM      4  C   UNL     1       1.940   4.160  20.538  0.00  0.00    +0.000 C 
ATOM      5  C   UNL     1       2.445   5.005  19.366  0.00  0.00    +0.000 C 
ENDROOT
BRANCH   1  14
ATOM      6  C   UNL     1       6.995   5.638  15.717  0.00  0.00    +0.000 A 
ATOM      7  N   UNL     1       7.698   6.558  16.421  0.00  0.00    +0.000 NA
ATOM      8  C   UNL     1       7.303   6.829  17.685  0.00  0.00    +0.000 A 
ATOM      9  N   UNL     1       6.270   6.302  18.383  0.00  0.00    +0.000 NA
ATOM     10  C   UNL     1       5.596   5.417  17.626  0.00  0.00    +0.000 A 
ATOM     11  C   UNL     1       5.871   5.052  16.320  0.00  0.00    +0.000 A 
ATOM     12  N   UNL     1       4.947   4.132  15.861  0.00  0.00    +0.000 NA
ATOM     13  C   UNL     1       4.148   3.924  16.886  0.00  0.00    +0.000 A 
ATOM     14  N   UNL     1       4.510   4.661  17.982  0.00  0.00    +0.000 N 
BRANCH   6  15
ATOM     15  N   UNL     1       7.431   5.316  14.439  0.00  0.00    +0.000 N 
ATOM     16  H   UNL     1       8.334   5.701  14.208  0.00  0.00    +0.000 HD
ATOM     17  H   UNL     1       6.701   5.328  13.732  0.00  0.00    +0.000 HD
ENDBRANCH   6  15
ENDBRANCH   1  14
BRANCH   5  18
ATOM     18  N   UNL     1       2.220   6.432  19.562  0.00  0.00    +0.000 N 
ATOM     19  C   UNL     1       2.111   7.292  18.492  0.00  0.00    +0.000 C 
ATOM     20  O   UNL     1       2.266   6.926  17.332  0.00  0.00    +0.000 OA
ATOM     21  H   UNL     1       1.959   6.754  20.485  0.00  0.00    +0.000 HD
BRANCH  19  22
ATOM     22  C   UNL     1       1.859   8.726  18.804  0.00  0.00    +0.000 A 
ATOM     23  C   UNL     1       1.164   9.027  19.984  0.00  0.00    +0.000 A 
ATOM     24  C   UNL     1       0.866  10.353  20.287  0.00  0.00    +0.000 A 
ATOM     25  C   UNL     1       1.257  11.387  19.444  0.00  0.00    +0.000 A 
ATOM     26  C   UNL     1       1.958  11.081  18.283  0.00  0.00    +0.000 A 
ATOM     27  C   UNL     1       2.272   9.763  17.958  0.00  0.00    +0.000 A 
BRANCH  24  28
ATOM     28  O   UNL     1       0.173  10.686  21.414  0.00  0.00    +0.000 OA
ATOM     29  H   UNL     1      -0.334  11.497  21.243  0.00  0.00    +0.000 HD
ENDBRANCH  24  28
BRANCH  26  30
ATOM     30  O   UNL     1       2.356  12.054  17.414  0.00  0.00    +0.000 OA
ATOM     31  H   UNL     1       2.713  12.800  17.927  0.00  0.00    +0.000 HD
ENDBRANCH  26  30
ENDBRANCH  19  22
ENDBRANCH   5  18
BRANCH   4  32
ATOM     32  O   UNL     1       2.249   4.807  21.786  0.00  0.00    +0.000 OA
ATOM     33  H   UNL     1       2.817   5.580  21.622  0.00  0.00    +0.000 HD
ENDBRANCH   4  32
BRANCH   3  34
ATOM     34  C   UNL     1       2.056   1.820  19.520  0.00  0.00    +0.000 C 
BRANCH  34  35
ATOM     35  O   UNL     1       2.967   1.315  18.546  0.00  0.00    +0.000 OA
ATOM     36  H   UNL     1       2.442   0.870  17.856  0.00  0.00    +0.000 HD
ENDBRANCH  34  35
ENDBRANCH   3  34
TORSDOF 9
ENDMDL
MODEL 5
REMARK VINA RESULT:      -7.9      1.071      2.359
REMARK  Name = 
REMARK  9 active torsions:
REMARK  status: ('A' for Active; 'I' for Inactive)
REMARK    1  A    between atoms: N_1  and  C_2
REMARK    2  A    between atoms: N_10  and  C_11
REMARK    3  A    between atoms: C_13  and  C_14
REMARK    4  A    between atoms: C_14  and  O_15
REMARK    5  A    between atoms: C_16  and  O_17
REMARK    6  A    between atoms: C_18  and  N_19
REMARK    7  A    between atoms: C_20  and  C_22
REMARK    8  A    between atoms: C_24  and  O_25
REMARK    9  A    between atoms: C_27  and  O_28
REMARK                            x       y       z     vdW  Elec       q    Type
REMARK                         _______ _______ _______ _____ _____    ______ ____
ROOT
ATOM      1  C   UNL     1       3.921   4.591  19.300  0.00  0.00    +0.000 C 
ATOM      2  O   UNL     1       4.012   3.222  19.762  0.00  0.00    +0.000 OA
ATOM      3  C   UNL     1       2.749   2.843  20.367  0.00  0.00    +0.000 C 
ATOM      4  C   UNL     1       1.948   4.132  20.536  0.00  0.00    +0.000 C 
ATOM      5  C   UNL     1       2.447   5.002  19.380  0.00  0.00    +0.000 C 
ENDROOT
BRANCH   1  14
ATOM      6  C   UNL     1       7.001   5.667  15.727  0.00  0.00    +0.000 A 
ATOM      7  N   UNL     1       7.736   6.541  16.457  0.00  0.00    +0.000 NA
ATOM      8  C   UNL     1       7.359   6.780  17.732  0.00  0.00    +0.000 A 
ATOM      9  N   UNL     1       6.315   6.259  18.420  0.00  0.00    +0.000 NA
ATOM     10  C   UNL     1       5.610   5.422  17.639  0.00  0.00    +0.000 A 
ATOM     11  C   UNL     1       5.864   5.095  16.318  0.00  0.00    +0.000 A 
ATOM     12  N   UNL     1       4.910   4.219  15.835  0.00  0.00    +0.000 NA
ATOM     13  C   UNL     1       4.112   3.999  16.859  0.00  0.00    +0.000 A 
ATOM     14  N   UNL     1       4.504   4.687  17.978  0.00  0.00    +0.000 N 
BRANCH   6  15
ATOM     15  N   UNL     1       7.418   5.377  14.435  0.00  0.00    +0.000 N 
ATOM     16  H   UNL     1       7.834   4.463  14.337  0.00  0.00    +0.000 HD
ATOM     17  H   UNL     1       7.842   6.161  13.947  0.00  0.00    +0.000 HD
ENDBRANCH   6  15
ENDBRANCH   1  14
BRANCH   5  18
ATOM     18  N   UNL     1       2.225   6.425  19.608  0.00  0.00    +0.000 N 
ATOM     19  C   UNL     1       2.034   7.295  18.559  0.00  0.00    +0.000 C 
ATOM     20  O   UNL     1       2.111   6.945  17.386  0.00  0.00    +0.000 OA
ATOM     21  H   UNL     1       2.026   6.733  20.551  0.00  0.00    +0.000 HD
BRANCH  19  22
ATOM     22  C   UNL     1       1.793   8.724  18.905  0.00  0.00    +0.000 A 
ATOM     23  C   UNL     1       2.158   9.697  17.962  0.00  0.00    +0.000 A 
ATOM     24  C   UNL     1       1.993  11.045  18.267  0.00  0.00    +0.000 A 
ATOM     25  C   UNL     1       1.462  11.444  19.489  0.00  0.00    +0.000 A 
ATOM     26  C   UNL     1       1.090  10.473  20.412  0.00  0.00    +0.000 A 
ATOM     27  C   UNL     1       1.241   9.118  20.130  0.00  0.00    +0.000 A 
BRANCH  24  28
ATOM     28  O   UNL     1       2.355  12.022  17.387  0.00  0.00    +0.000 OA
ATOM     29  H   UNL     1       1.618  12.181  16.773  0.00  0.00    +0.000 HD
ENDBRANCH  24  28
BRANCH  26  30
ATOM     30  O   UNL     1       0.575  10.809  21.629  0.00  0.00    +0.000 OA
ATOM     31  H   UNL     1      -0.061  11.535  21.507  0.00  0.00    +0.000 HD
ENDBRANCH  26  30
ENDBRANCH  19  22
ENDBRANCH   5  18
BRANCH   4  32
ATOM     32  O   UNL     1       2.265   4.751  21.796  0.00  0.00    +0.000 OA
ATOM     33  H   UNL     1       2.691   5.612  21.639  0.00  0.00    +0.000 HD
ENDBRANCH   4  32
BRANCH   3  34
ATOM     34  C   UNL     1       2.057   1.815  19.467  0.00  0.00    +0.000 C 
BRANCH  34  35
ATOM     35  O   UNL     1       2.990   1.247  18.550  0.00  0.00    +0.000 OA
ATOM     36  H   UNL     1       3.326   1.969  17.989  0.00  0.00    +0.000 HD
ENDBRANCH  34  35
ENDBRANCH   3  34
TORSDOF 9
ENDMDL
MODEL 6
REMARK VINA RESULT:      -7.8      1.604      2.331
REMARK  Name = 
REMARK  9 active torsions:
REMARK  status: ('A' for Active; 'I' for Inactive)
REMARK    1  A    between atoms: N_1  and  C_2
REMARK    2  A    between atoms: N_10  and  C_11
REMARK    3  A    between atoms: C_13  and  C_14
REMARK    4  A    between atoms: C_14  and  O_15
REMARK    5  A    between atoms: C_16  and  O_17
REMARK    6  A    between atoms: C_18  and  N_19
REMARK    7  A    between atoms: C_20  and  C_22
REMARK    8  A    between atoms: C_24  and  O_25
REMARK    9  A    between atoms: C_27  and  O_28
REMARK                            x       y       z     vdW  Elec       q    Type
REMARK                         _______ _______ _______ _____ _____    ______ ____
ROOT
ATOM      1  C   UNL     1       3.669   4.294  19.866  0.00  0.00    +0.000 C 
ATOM      2  O   UNL     1       3.799   2.858  20.002  0.00  0.00    +0.000 OA
ATOM      3  C   UNL     1       2.515   2.301  20.381  0.00  0.00    +0.000 C 
ATOM      4  C   UNL     1       1.631   3.484  20.773  0.00  0.00    +0.000 C 
ATOM      5  C   UNL     1       2.172   4.621  19.904  0.00  0.00    +0.000 C 
ENDROOT
BRANCH   1  14
ATOM      6  C   UNL     1       7.181   5.741  16.870  0.00  0.00    +0.000 A 
ATOM      7  N   UNL     1       8.074   6.016  17.851  0.00  0.00    +0.000 NA
ATOM      8  C   UNL     1       7.686   5.840  19.133  0.00  0.00    +0.000 A 
ATOM      9  N   UNL     1       6.490   5.415  19.607  0.00  0.00    +0.000 NA
ATOM     10  C   UNL     1       5.640   5.184  18.592  0.00  0.00    +0.000 A 
ATOM     11  C   UNL     1       5.889   5.334  17.239  0.00  0.00    +0.000 A 
ATOM     12  N   UNL     1       4.767   5.025  16.493  0.00  0.00    +0.000 NA
ATOM     13  C   UNL     1       3.866   4.664  17.383  0.00  0.00    +0.000 A 
ATOM     14  N   UNL     1       4.350   4.723  18.663  0.00  0.00    +0.000 N 
BRANCH   6  15
ATOM     15  N   UNL     1       7.594   5.867  15.551  0.00  0.00    +0.000 N 
ATOM     16  H   UNL     1       7.781   6.819  15.272  0.00  0.00    +0.000 HD
ATOM     17  H   UNL     1       7.111   5.255  14.900  0.00  0.00    +0.000 HD
ENDBRANCH   6  15
ENDBRANCH   1  14
BRANCH   5  18
ATOM     18  N   UNL     1       1.852   5.940  20.438  0.00  0.00    +0.000 N 
ATOM     19  C   UNL     1       1.786   7.045  19.619  0.00  0.00    +0.000 C 
ATOM     20  O   UNL     1       2.059   7.000  18.425  0.00  0.00    +0.000 OA
ATOM     21  H   UNL     1       1.496   6.000  21.383  0.00  0.00    +0.000 HD
BRANCH  19  22
ATOM     22  C   UNL     1       1.428   8.339  20.264  0.00  0.00    +0.000 A 
ATOM     23  C   UNL     1       1.249   8.350  21.655  0.00  0.00    +0.000 A 
ATOM     24  C   UNL     1       0.868   9.530  22.289  0.00  0.00    +0.000 A 
ATOM     25  C   UNL     1       0.670  10.701  21.567  0.00  0.00    +0.000 A 
ATOM     26  C   UNL     1       0.862  10.684  20.190  0.00  0.00    +0.000 A 
ATOM     27  C   UNL     1       1.248   9.519  19.531  0.00  0.00    +0.000 A 
BRANCH  24  28
ATOM     28  O   UNL     1       0.663   9.578  23.637  0.00  0.00    +0.000 OA
ATOM     29  H   UNL     1      -0.202   9.183  23.839  0.00  0.00    +0.000 HD
ENDBRANCH  24  28
BRANCH  26  30
ATOM     30  O   UNL     1       0.671  11.801  19.431  0.00  0.00    +0.000 OA
ATOM     31  H   UNL     1       0.086  11.575  18.687  0.00  0.00    +0.000 HD
ENDBRANCH  26  30
ENDBRANCH  19  22
ENDBRANCH   5  18
BRANCH   4  32
ATOM     32  O   UNL     1       1.808   3.795  22.167  0.00  0.00    +0.000 OA
ATOM     33  H   UNL     1       1.207   4.518  22.419  0.00  0.00    +0.000 HD
ENDBRANCH   4  32
BRANCH   3  34
ATOM     34  C   UNL     1       1.957   1.494  19.206  0.00  0.00    +0.000 C 
BRANCH  34  35
ATOM     35  O   UNL     1       2.943   1.357  18.183  0.00  0.00    +0.000 OA
ATOM     36  H   UNL     1       3.246   2.252  17.947  0.00  0.00    +0.000 HD
ENDBRANCH  34  35
ENDBRANCH   3  34
TORSDOF 9
ENDMDL
MODEL 7
REMARK VINA RESULT:      -7.8      1.598      2.732
REMARK  Name = 
REMARK  9 active torsions:
REMARK  status: ('A' for Active; 'I' for Inactive)
REMARK    1  A    between atoms: N_1  and  C_2
REMARK    2  A    between atoms: N_10  and  C_11
REMARK    3  A    between atoms: C_13  and  C_14
REMARK    4  A    between atoms: C_14  and  O_15
REMARK    5  A    between atoms: C_16  and  O_17
REMARK    6  A    between atoms: C_18  and  N_19
REMARK    7  A    between atoms: C_20  and  C_22
REMARK    8  A    between atoms: C_24  and  O_25
REMARK    9  A    between atoms: C_27  and  O_28
REMARK                            x       y       z     vdW  Elec       q    Type
REMARK                         _______ _______ _______ _____ _____    ______ ____
ROOT
ATOM      1  C   UNL     1       3.683   4.277  19.858  0.00  0.00    +0.000 C 
ATOM      2  O   UNL     1       3.835   2.842  19.974  0.00  0.00    +0.000 OA
ATOM      3  C   UNL     1       2.557   2.259  20.340  0.00  0.00    +0.000 C 
ATOM      4  C   UNL     1       1.654   3.423  20.743  0.00  0.00    +0.000 C 
ATOM      5  C   UNL     1       2.181   4.580  19.893  0.00  0.00    +0.000 C 
ENDROOT
BRANCH   1  14
ATOM      6  C   UNL     1       7.192   5.789  16.891  0.00  0.00    +0.000 A 
ATOM      7  N   UNL     1       8.087   6.040  17.877  0.00  0.00    +0.000 NA
ATOM      8  C   UNL     1       7.700   5.835  19.155  0.00  0.00    +0.000 A 
ATOM      9  N   UNL     1       6.505   5.401  19.620  0.00  0.00    +0.000 NA
ATOM     10  C   UNL     1       5.653   5.194  18.602  0.00  0.00    +0.000 A 
ATOM     11  C   UNL     1       5.900   5.375  17.252  0.00  0.00    +0.000 A 
ATOM     12  N   UNL     1       4.777   5.084  16.501  0.00  0.00    +0.000 NA
ATOM     13  C   UNL     1       3.877   4.704  17.383  0.00  0.00    +0.000 A 
ATOM     14  N   UNL     1       4.363   4.733  18.664  0.00  0.00    +0.000 N 
BRANCH   6  15
ATOM     15  N   UNL     1       7.604   5.946  15.574  0.00  0.00    +0.000 N 
ATOM     16  H   UNL     1       8.307   6.658  15.450  0.00  0.00    +0.000 HD
ATOM     17  H   UNL     1       6.856   5.874  14.891  0.00  0.00    +0.000 HD
ENDBRANCH   6  15
ENDBRANCH   1  14
BRANCH   5  18
ATOM     18  N   UNL     1       1.838   5.886  20.443  0.00  0.00    +0.000 N 
ATOM     19  C   UNL     1       1.762   7.002  19.640  0.00  0.00    +0.000 C 
ATOM     20  O   UNL     1       2.045   6.979  18.448  0.00  0.00    +0.000 OA
ATOM     21  H   UNL     1       1.474   5.927  21.387  0.00  0.00    +0.000 HD
BRANCH  19  22
ATOM     22  C   UNL     1       1.381   8.282  20.301  0.00  0.00    +0.000 A 
ATOM     23  C   UNL     1       1.250   9.421  19.494  0.00  0.00    +0.000 A 
ATOM     24  C   UNL     1       0.943  10.647  20.080  0.00  0.00    +0.000 A 
ATOM     25  C   UNL     1       0.753  10.757  21.452  0.00  0.00    +0.000 A 
ATOM     26  C   UNL     1       0.871   9.620  22.243  0.00  0.00    +0.000 A 
ATOM     27  C   UNL     1       1.174   8.382  21.682  0.00  0.00    +0.000 A 
BRANCH  24  28
ATOM     28  O   UNL     1       0.828  11.782  19.333  0.00  0.00    +0.000 OA
ATOM     29  H   UNL     1       1.093  11.586  18.419  0.00  0.00    +0.000 HD
ENDBRANCH  24  28
BRANCH  26  30
ATOM     30  O   UNL     1       0.705   9.674  23.596  0.00  0.00    +0.000 OA
ATOM     31  H   UNL     1      -0.173  10.047  23.787  0.00  0.00    +0.000 HD
ENDBRANCH  26  30
ENDBRANCH  19  22
ENDBRANCH   5  18
BRANCH   4  32
ATOM     32  O   UNL     1       1.820   3.718  22.142  0.00  0.00    +0.000 OA
ATOM     33  H   UNL     1       2.169   4.620  22.247  0.00  0.00    +0.000 HD
ENDBRANCH   4  32
BRANCH   3  34
ATOM     34  C   UNL     1       2.017   1.460  19.150  0.00  0.00    +0.000 C 
BRANCH  34  35
ATOM     35  O   UNL     1       2.994   1.390  18.113  0.00  0.00    +0.000 OA
ATOM     36  H   UNL     1       3.504   2.220  18.135  0.00  0.00    +0.000 HD
ENDBRANCH  34  35
ENDBRANCH   3  34
TORSDOF 9
ENDMDL
MODEL 8
REMARK VINA RESULT:      -7.2      1.774      2.761
REMARK  Name = 
REMARK  9 active torsions:
REMARK  status: ('A' for Active; 'I' for Inactive)
REMARK    1  A    between atoms: N_1  and  C_2
REMARK    2  A    between atoms: N_10  and  C_11
REMARK    3  A    between atoms: C_13  and  C_14
REMARK    4  A    between atoms: C_14  and  O_15
REMARK    5  A    between atoms: C_16  and  O_17
REMARK    6  A    between atoms: C_18  and  N_19
REMARK    7  A    between atoms: C_20  and  C_22
REMARK    8  A    between atoms: C_24  and  O_25
REMARK    9  A    between atoms: C_27  and  O_28
REMARK                            x       y       z     vdW  Elec       q    Type
REMARK                         _______ _______ _______ _____ _____    ______ ____
ROOT
ATOM      1  C   UNL     1       3.789   6.036  19.153  0.00  0.00    +0.000 C 
ATOM      2  O   UNL     1       3.668   4.640  19.517  0.00  0.00    +0.000 OA
ATOM      3  C   UNL     1       2.301   4.374  19.922  0.00  0.00    +0.000 C 
ATOM      4  C   UNL     1       1.627   5.735  20.085  0.00  0.00    +0.000 C 
ATOM      5  C   UNL     1       2.370   6.610  19.074  0.00  0.00    +0.000 C 
ENDROOT
BRANCH   1  14
ATOM      6  C   UNL     1       7.178   5.242  15.793  0.00  0.00    +0.000 A 
ATOM      7  N   UNL     1       7.981   4.506  16.599  0.00  0.00    +0.000 NA
ATOM      8  C   UNL     1       7.600   4.326  17.883  0.00  0.00    +0.000 A 
ATOM      9  N   UNL     1       6.494   4.788  18.513  0.00  0.00    +0.000 NA
ATOM     10  C   UNL     1       5.751   5.529  17.673  0.00  0.00    +0.000 A 
ATOM     11  C   UNL     1       6.021   5.813  16.345  0.00  0.00    +0.000 A 
ATOM     12  N   UNL     1       5.042   6.627  15.807  0.00  0.00    +0.000 NA
ATOM     13  C   UNL     1       4.181   6.804  16.787  0.00  0.00    +0.000 A 
ATOM     14  N   UNL     1       4.554   6.145  17.929  0.00  0.00    +0.000 N 
BRANCH   6  15
ATOM     15  N   UNL     1       7.538   5.383  14.460  0.00  0.00    +0.000 N 
ATOM     16  H   UNL     1       7.989   4.568  14.072  0.00  0.00    +0.000 HD
ATOM     17  H   UNL     1       7.898   6.301  14.218  0.00  0.00    +0.000 HD
ENDBRANCH   6  15
ENDBRANCH   1  14
BRANCH   5  18
ATOM     18  N   UNL     1       2.273   8.032  19.380  0.00  0.00    +0.000 N 
ATOM     19  C   UNL     1       1.648   8.907  18.520  0.00  0.00    +0.000 C 
ATOM     20  O   UNL     1       1.208   8.561  17.429  0.00  0.00    +0.000 OA
ATOM     21  H   UNL     1       2.503   8.337  20.317  0.00  0.00    +0.000 HD
BRANCH  19  22
ATOM     22  C   UNL     1       1.584  10.335  18.941  0.00  0.00    +0.000 A 
ATOM     23  C   UNL     1       2.152  11.294  18.090  0.00  0.00    +0.000 A 
ATOM     24  C   UNL     1       2.155  12.634  18.470  0.00  0.00    +0.000 A 
ATOM     25  C   UNL     1       1.596  13.038  19.677  0.00  0.00    +0.000 A 
ATOM     26  C   UNL     1       1.023  12.082  20.508  0.00  0.00    +0.000 A 
ATOM     27  C   UNL     1       1.003  10.736  20.149  0.00  0.00    +0.000 A 
BRANCH  24  28
ATOM     28  O   UNL     1       2.716  13.595  17.681  0.00  0.00    +0.000 OA
ATOM     29  H   UNL     1       3.188  14.230  18.245  0.00  0.00    +0.000 HD
ENDBRANCH  24  28
BRANCH  26  30
ATOM     30  O   UNL     1       0.469  12.422  21.707  0.00  0.00    +0.000 OA
ATOM     31  H   UNL     1       1.186  12.590  22.343  0.00  0.00    +0.000 HD
ENDBRANCH  26  30
ENDBRANCH  19  22
ENDBRANCH   5  18
BRANCH   4  32
ATOM     32  O   UNL     1       1.832   6.233  21.419  0.00  0.00    +0.000 OA
ATOM     33  H   UNL     1       2.755   6.526  21.521  0.00  0.00    +0.000 HD
ENDBRANCH   4  32
BRANCH   3  34
ATOM     34  C   UNL     1       1.632   3.491  18.863  0.00  0.00    +0.000 C 
BRANCH  34  35
ATOM     35  O   UNL     1       1.989   2.124  19.057  0.00  0.00    +0.000 OA
ATOM     36  H   UNL     1       2.431   1.818  18.245  0.00  0.00    +0.000 HD
ENDBRANCH  34  35
ENDBRANCH   3  34
TORSDOF 9
ENDMDL
MODEL 9
REMARK VINA RESULT:      -7.2      1.539      2.206
REMARK  Name = 
REMARK  9 active torsions:
REMARK  status: ('A' for Active; 'I' for Inactive)
REMARK    1  A    between atoms: N_1  and  C_2
REMARK    2  A    between atoms: N_10  and  C_11
REMARK    3  A    between atoms: C_13  and  C_14
REMARK    4  A    between atoms: C_14  and  O_15
REMARK    5  A    between atoms: C_16  and  O_17
REMARK    6  A    between atoms: C_18  and  N_19
REMARK    7  A    between atoms: C_20  and  C_22
REMARK    8  A    between atoms: C_24  and  O_25
REMARK    9  A    between atoms: C_27  and  O_28
REMARK                            x       y       z     vdW  Elec       q    Type
REMARK                         _______ _______ _______ _____ _____    ______ ____
ROOT
ATOM      1  C   UNL     1       3.862   4.256  19.845  0.00  0.00    +0.000 C 
ATOM      2  O   UNL     1       3.858   2.817  19.689  0.00  0.00    +0.000 OA
ATOM      3  C   UNL     1       2.519   2.384  19.336  0.00  0.00    +0.000 C 
ATOM      4  C   UNL     1       1.603   3.585  19.568  0.00  0.00    +0.000 C 
ATOM      5  C   UNL     1       2.525   4.778  19.306  0.00  0.00    +0.000 C 
ENDROOT
BRANCH   1  14
ATOM      6  C   UNL     1       6.764   6.040  16.410  0.00  0.00    +0.000 A 
ATOM      7  N   UNL     1       5.964   5.684  15.376  0.00  0.00    +0.000 NA
ATOM      8  C   UNL     1       4.822   5.018  15.655  0.00  0.00    +0.000 A 
ATOM      9  N   UNL     1       4.336   4.635  16.859  0.00  0.00    +0.000 NA
ATOM     10  C   UNL     1       5.182   4.992  17.841  0.00  0.00    +0.000 A 
ATOM     11  C   UNL     1       6.387   5.659  17.707  0.00  0.00    +0.000 A 
ATOM     12  N   UNL     1       6.993   5.833  18.937  0.00  0.00    +0.000 NA
ATOM     13  C   UNL     1       6.151   5.306  19.800  0.00  0.00    +0.000 A 
ATOM     14  N   UNL     1       5.032   4.803  19.190  0.00  0.00    +0.000 N 
BRANCH   6  15
ATOM     15  N   UNL     1       7.909   6.773  16.132  0.00  0.00    +0.000 N 
ATOM     16  H   UNL     1       8.423   6.438  15.331  0.00  0.00    +0.000 HD
ATOM     17  H   UNL     1       8.427   7.069  16.954  0.00  0.00    +0.000 HD
ENDBRANCH   6  15
ENDBRANCH   1  14
BRANCH   5  18
ATOM     18  N   UNL     1       2.053   6.004  19.937  0.00  0.00    +0.000 N 
ATOM     19  C   UNL     1       2.080   7.207  19.267  0.00  0.00    +0.000 C 
ATOM     20  O   UNL     1       2.561   7.330  18.146  0.00  0.00    +0.000 OA
ATOM     21  H   UNL     1       1.534   5.929  20.802  0.00  0.00    +0.000 HD
BRANCH  19  22
ATOM     22  C   UNL     1       1.552   8.394  19.996  0.00  0.00    +0.000 A 
ATOM     23  C   UNL     1       1.223   9.532  19.244  0.00  0.00    +0.000 A 
ATOM     24  C   UNL     1       0.772  10.678  19.892  0.00  0.00    +0.000 A 
ATOM     25  C   UNL     1       0.633  10.712  21.275  0.00  0.00    +0.000 A 
ATOM     26  C   UNL     1       0.949   9.576  22.012  0.00  0.00    +0.000 A 
ATOM     27  C   UNL     1       1.398   8.415  21.388  0.00  0.00    +0.000 A 
BRANCH  24  28
ATOM     28  O   UNL     1       0.462  11.811  19.199  0.00  0.00    +0.000 OA
ATOM     29  H   UNL     1       1.197  12.025  18.600  0.00  0.00    +0.000 HD
ENDBRANCH  24  28
BRANCH  26  30
ATOM     30  O   UNL     1       0.841   9.557  23.371  0.00  0.00    +0.000 OA
ATOM     31  H   UNL     1       1.620  10.000  23.751  0.00  0.00    +0.000 HD
ENDBRANCH  26  30
ENDBRANCH  19  22
ENDBRANCH   5  18
BRANCH   4  32
ATOM     32  O   UNL     1       1.143   3.602  20.932  0.00  0.00    +0.000 OA
ATOM     33  H   UNL     1       1.103   4.521  21.251  0.00  0.00    +0.000 HD
ENDBRANCH   4  32
BRANCH   3  34
ATOM     34  C   UNL     1       2.521   1.898  17.884  0.00  0.00    +0.000 C 
BRANCH  34  35
ATOM     35  O   UNL     1       1.992   2.903  17.021  0.00  0.00    +0.000 OA
ATOM     36  H   UNL     1       1.383   3.451  17.548  0.00  0.00    +0.000 HD
ENDBRANCH  34  35
ENDBRANCH   3  34
TORSDOF 9
ENDMDL
