MODEL 1
REMARK VINA RESULT:      -9.5      0.000      0.000
REMARK  Name = 
REMARK  7 active torsions:
REMARK  status: ('A' for Active; 'I' for Inactive)
REMARK    1  A    between atoms: C_1  and  C_2
REMARK    2  A    between atoms: N_4  and  C_5
REMARK    3  A    between atoms: C_5  and  C_6
REMARK    4  A    between atoms: C_5  and  C_19
REMARK    5  A    between atoms: C_6  and  C_7
REMARK    6  A    between atoms: C_7  and  C_9
REMARK    7  A    between atoms: C_23  and  N_24
REMARK                            x       y       z     vdW  Elec       q    Type
REMARK                         _______ _______ _______ _____ _____    ______ ____
ROOT
ATOM      1  C   UNL     1       6.471   4.957  16.110  0.00  0.00    +0.000 C 
ENDROOT
BRANCH   1   2
ATOM      2  C   UNL     1       6.712   4.703  14.619  0.00  0.00    +0.000 A 
ATOM      3  C   UNL     1       7.723   5.402  13.938  0.00  0.00    +0.000 A 
ATOM      4  C   UNL     1       7.920   5.229  12.561  0.00  0.00    +0.000 A 
ATOM      5  C   UNL     1       7.112   4.353  11.838  0.00  0.00    +0.000 A 
ATOM      6  C   UNL     1       6.118   3.634  12.506  0.00  0.00    +0.000 A 
ATOM      7  C   UNL     1       5.917   3.800  13.888  0.00  0.00    +0.000 A 
BRANCH   6   8
ATOM      8  N   UNL     1       5.263   2.704  11.755  0.00  0.00    +0.000 N 
ATOM      9  O   UNL     1       5.732   1.594  11.464  0.00  0.00    +0.000 OA
ATOM     10  O   UNL     1       4.119   3.082  11.464  0.00  0.00    +0.000 OA
ENDBRANCH   6   8
ENDBRANCH   1   2
BRANCH   1  14
ATOM     11  C   UNL     1       7.877   8.042  17.792  0.00  0.00    +0.000 C 
ATOM     12  C   UNL     1       7.507   6.591  17.637  0.00  0.00    +0.000 C 
ATOM     13  O   UNL     1       7.764   5.755  18.490  0.00  0.00    +0.000 OA
ATOM     14  N   UNL     1       6.882   6.313  16.439  0.00  0.00    +0.000 N 
ATOM     15  H   UNL     1       6.888   7.018  15.719  0.00  0.00    +0.000 HD
ENDBRANCH   1  14
BRANCH   1  16
ATOM     16  C   UNL     1       5.001   4.702  16.452  0.00  0.00    +0.000 C 
BRANCH  16  17
ATOM     17  C   UNL     1       4.200   5.923  16.900  0.00  0.00    +0.000 C 
ATOM     18  O   UNL     1       4.315   7.020  16.363  0.00  0.00    +0.000 OA
BRANCH  17  19
ATOM     19  C   UNL     1       3.300   5.733  18.093  0.00  0.00    +0.000 A 
ATOM     20  C   UNL     1       3.120   6.850  18.933  0.00  0.00    +0.000 A 
ATOM     21  C   UNL     1       2.295   6.788  20.048  0.00  0.00    +0.000 A 
ATOM     22  C   UNL     1       1.624   5.610  20.338  0.00  0.00    +0.000 A 
ATOM     23  C   UNL     1       1.774   4.475  19.531  0.00  0.00    +0.000 A 
ATOM     24  C   UNL     1       1.070   3.309  19.871  0.00  0.00    +0.000 A 
ATOM     25  C   UNL     1       1.191   2.150  19.110  0.00  0.00    +0.000 A 
ATOM     26  C   UNL     1       2.028   2.145  18.002  0.00  0.00    +0.000 A 
ATOM     27  C   UNL     1       2.735   3.300  17.648  0.00  0.00    +0.000 A 
ATOM     28  C   UNL     1       2.625   4.507  18.388  0.00  0.00    +0.000 A 
ENDBRANCH  17  19
ENDBRANCH  16  17
ENDBRANCH   1  16
TORSDOF 6
ENDMDL
MODEL 2
REMARK VINA RESULT:      -9.5      3.097      5.499
REMARK  Name = 
REMARK  7 active torsions:
REMARK  status: ('A' for Active; 'I' for Inactive)
REMARK    1  A    between atoms: C_1  and  C_2
REMARK    2  A    between atoms: N_4  and  C_5
REMARK    3  A    between atoms: C_5  and  C_6
REMARK    4  A    between atoms: C_5  and  C_19
REMARK    5  A    between atoms: C_6  and  C_7
REMARK    6  A    between atoms: C_7  and  C_9
REMARK    7  A    between atoms: C_23  and  N_24
REMARK                            x       y       z     vdW  Elec       q    Type
REMARK                         _______ _______ _______ _____ _____    ______ ____
ROOT
ATOM      1  C   UNL     1       3.534   5.161  18.272  0.00  0.00    +0.000 C 
ENDROOT
BRANCH   1   2
ATOM      2  C   UNL     1       4.949   4.940  17.728  0.00  0.00    +0.000 A 
ATOM      3  C   UNL     1       6.039   4.853  18.609  0.00  0.00    +0.000 A 
ATOM      4  C   UNL     1       7.348   4.712  18.129  0.00  0.00    +0.000 A 
ATOM      5  C   UNL     1       7.593   4.654  16.758  0.00  0.00    +0.000 A 
ATOM      6  C   UNL     1       6.516   4.717  15.870  0.00  0.00    +0.000 A 
ATOM      7  C   UNL     1       5.201   4.854  16.345  0.00  0.00    +0.000 A 
BRANCH   6   8
ATOM      8  N   UNL     1       6.762   4.651  14.422  0.00  0.00    +0.000 N 
ATOM      9  O   UNL     1       6.039   3.907  13.745  0.00  0.00    +0.000 OA
ATOM     10  O   UNL     1       7.675   5.352  13.963  0.00  0.00    +0.000 OA
ENDBRANCH   6   8
ENDBRANCH   1   2
BRANCH   1  14
ATOM     11  C   UNL     1       1.338   2.100  18.632  0.00  0.00    +0.000 C 
ATOM     12  C   UNL     1       1.760   3.456  18.134  0.00  0.00    +0.000 C 
ATOM     13  O   UNL     1       1.098   4.091  17.326  0.00  0.00    +0.000 OA
ATOM     14  N   UNL     1       2.962   3.881  18.658  0.00  0.00    +0.000 N 
ATOM     15  H   UNL     1       3.530   3.215  19.159  0.00  0.00    +0.000 HD
ENDBRANCH   1  14
BRANCH   1  16
ATOM     16  C   UNL     1       3.573   6.150  19.440  0.00  0.00    +0.000 C 
BRANCH  16  17
ATOM     17  C   UNL     1       2.216   6.593  19.983  0.00  0.00    +0.000 C 
ATOM     18  O   UNL     1       1.485   5.843  20.622  0.00  0.00    +0.000 OA
BRANCH  17  19
ATOM     19  C   UNL     1       1.780   7.992  19.635  0.00  0.00    +0.000 A 
ATOM     20  C   UNL     1       2.057   8.434  18.326  0.00  0.00    +0.000 A 
ATOM     21  C   UNL     1       1.680   9.699  17.897  0.00  0.00    +0.000 A 
ATOM     22  C   UNL     1       1.006  10.544  18.766  0.00  0.00    +0.000 A 
ATOM     23  C   UNL     1       0.711  10.147  20.076  0.00  0.00    +0.000 A 
ATOM     24  C   UNL     1       0.027  11.042  20.913  0.00  0.00    +0.000 A 
ATOM     25  C   UNL     1      -0.283  10.703  22.227  0.00  0.00    +0.000 A 
ATOM     26  C   UNL     1       0.100   9.463  22.720  0.00  0.00    +0.000 A 
ATOM     27  C   UNL     1       0.780   8.557  21.897  0.00  0.00    +0.000 A 
ATOM     28  C   UNL     1       1.099   8.859  20.547  0.00  0.00    +0.000 A 
ENDBRANCH  17  19
ENDBRANCH  16  17
ENDBRANCH   1  16
TORSDOF 6
ENDMDL
MODEL 3
REMARK VINA RESULT:      -9.4      1.059      2.388
REMARK  Name = 
REMARK  7 active torsions:
REMARK  status: ('A' for Active; 'I' for Inactive)
REMARK    1  A    between atoms: C_1  and  C_2
REMARK    2  A    between atoms: N_4  and  C_5
REMARK    3  A    between atoms: C_5  and  C_6
REMARK    4  A    between atoms: C_5  and  C_19
REMARK    5  A    between atoms: C_6  and  C_7
REMARK    6  A    between atoms: C_7  and  C_9
REMARK    7  A    between atoms: C_23  and  N_24
REMARK                            x       y       z     vdW  Elec       q    Type
REMARK                         _______ _______ _______ _____ _____    ______ ____
ROOT
ATOM      1  C   UNL     1       6.629   5.007  16.039  0.00  0.00    +0.000 C 
ENDROOT
BRANCH   1   2
ATOM      2  C   UNL     1       6.830   4.741  14.544  0.00  0.00    +0.000 A 
ATOM      3  C   UNL     1       7.807   5.451  13.825  0.00  0.00    +0.000 A 
ATOM      4  C   UNL     1       7.966   5.266  12.445  0.00  0.00    +0.000 A 
ATOM      5  C   UNL     1       7.154   4.367  11.756  0.00  0.00    +0.000 A 
ATOM      6  C   UNL     1       6.193   3.638  12.461  0.00  0.00    +0.000 A 
ATOM      7  C   UNL     1       6.031   3.815  13.847  0.00  0.00    +0.000 A 
BRANCH   6   8
ATOM      8  N   UNL     1       5.334   2.683  11.746  0.00  0.00    +0.000 N 
ATOM      9  O   UNL     1       4.183   3.041  11.462  0.00  0.00    +0.000 OA
ATOM     10  O   UNL     1       5.817   1.577  11.464  0.00  0.00    +0.000 OA
ENDBRANCH   6   8
ENDBRANCH   1   2
BRANCH   1  14
ATOM     11  C   UNL     1       7.621   8.337  17.538  0.00  0.00    +0.000 C 
ATOM     12  C   UNL     1       7.490   6.841  17.442  0.00  0.00    +0.000 C 
ATOM     13  O   UNL     1       7.951   6.088  18.287  0.00  0.00    +0.000 OA
ATOM     14  N   UNL     1       6.830   6.422  16.307  0.00  0.00    +0.000 N 
ATOM     15  H   UNL     1       6.660   7.094  15.574  0.00  0.00    +0.000 HD
ENDBRANCH   1  14
BRANCH   1  16
ATOM     16  C   UNL     1       5.240   4.531  16.471  0.00  0.00    +0.000 C 
BRANCH  16  17
ATOM     17  C   UNL     1       5.139   3.971  17.888  0.00  0.00    +0.000 C 
ATOM     18  O   UNL     1       6.121   3.817  18.607  0.00  0.00    +0.000 OA
BRANCH  17  19
ATOM     19  C   UNL     1       3.768   3.547  18.346  0.00  0.00    +0.000 A 
ATOM     20  C   UNL     1       3.347   2.256  17.969  0.00  0.00    +0.000 A 
ATOM     21  C   UNL     1       2.109   1.761  18.355  0.00  0.00    +0.000 A 
ATOM     22  C   UNL     1       1.273   2.542  19.137  0.00  0.00    +0.000 A 
ATOM     23  C   UNL     1       1.650   3.831  19.534  0.00  0.00    +0.000 A 
ATOM     24  C   UNL     1       0.764   4.578  20.326  0.00  0.00    +0.000 A 
ATOM     25  C   UNL     1       1.084   5.868  20.739  0.00  0.00    +0.000 A 
ATOM     26  C   UNL     1       2.295   6.427  20.355  0.00  0.00    +0.000 A 
ATOM     27  C   UNL     1       3.191   5.694  19.568  0.00  0.00    +0.000 A 
ATOM     28  C   UNL     1       2.909   4.370  19.140  0.00  0.00    +0.000 A 
ENDBRANCH  17  19
ENDBRANCH  16  17
ENDBRANCH   1  16
TORSDOF 6
ENDMDL
MODEL 4
REMARK VINA RESULT:      -9.3      1.223      1.502
REMARK  Name = 
REMARK  7 active torsions:
REMARK  status: ('A' for Active; 'I' for Inactive)
REMARK    1  A    between atoms: C_1  and  C_2
REMARK    2  A    between atoms: N_4  and  C_5
REMARK    3  A    between atoms: C_5  and  C_6
REMARK    4  A    between atoms: C_5  and  C_19
REMARK    5  A    between atoms: C_6  and  C_7
REMARK    6  A    between atoms: C_7  and  C_9
REMARK    7  A    between atoms: C_23  and  N_24
REMARK                            x       y       z     vdW  Elec       q    Type
REMARK                         _______ _______ _______ _____ _____    ______ ____
ROOT
ATOM      1  C   UNL     1       6.770   5.009  16.064  0.00  0.00    +0.000 C 
ENDROOT
BRANCH   1   2
ATOM      2  C   UNL     1       6.917   4.758  14.560  0.00  0.00    +0.000 A 
ATOM      3  C   UNL     1       7.877   5.465  13.816  0.00  0.00    +0.000 A 
ATOM      4  C   UNL     1       7.986   5.295  12.430  0.00  0.00    +0.000 A 
ATOM      5  C   UNL     1       7.140   4.413  11.759  0.00  0.00    +0.000 A 
ATOM      6  C   UNL     1       6.196   3.687  12.488  0.00  0.00    +0.000 A 
ATOM      7  C   UNL     1       6.084   3.850  13.880  0.00  0.00    +0.000 A 
BRANCH   6   8
ATOM      8  N   UNL     1       5.302   2.751  11.792  0.00  0.00    +0.000 N 
ATOM      9  O   UNL     1       4.153   3.133  11.532  0.00  0.00    +0.000 OA
ATOM     10  O   UNL     1       5.755   1.634  11.501  0.00  0.00    +0.000 OA
ENDBRANCH   6   8
ENDBRANCH   1   2
BRANCH   1  14
ATOM     11  C   UNL     1       7.601   8.378  17.573  0.00  0.00    +0.000 C 
ATOM     12  C   UNL     1       7.526   6.878  17.482  0.00  0.00    +0.000 C 
ATOM     13  O   UNL     1       7.991   6.145  18.342  0.00  0.00    +0.000 OA
ATOM     14  N   UNL     1       6.913   6.432  16.330  0.00  0.00    +0.000 N 
ATOM     15  H   UNL     1       6.739   7.094  15.591  0.00  0.00    +0.000 HD
ENDBRANCH   1  14
BRANCH   1  16
ATOM     16  C   UNL     1       5.427   4.463  16.555  0.00  0.00    +0.000 C 
BRANCH  16  17
ATOM     17  C   UNL     1       5.269   4.348  18.070  0.00  0.00    +0.000 C 
ATOM     18  O   UNL     1       6.060   3.724  18.769  0.00  0.00    +0.000 OA
BRANCH  17  19
ATOM     19  C   UNL     1       4.042   4.987  18.667  0.00  0.00    +0.000 A 
ATOM     20  C   UNL     1       3.845   6.355  18.390  0.00  0.00    +0.000 A 
ATOM     21  C   UNL     1       2.737   7.036  18.876  0.00  0.00    +0.000 A 
ATOM     22  C   UNL     1       1.797   6.358  19.636  0.00  0.00    +0.000 A 
ATOM     23  C   UNL     1       1.954   4.999  19.937  0.00  0.00    +0.000 A 
ATOM     24  C   UNL     1       0.971   4.362  20.711  0.00  0.00    +0.000 A 
ATOM     25  C   UNL     1       1.081   3.017  21.047  0.00  0.00    +0.000 A 
ATOM     26  C   UNL     1       2.186   2.295  20.617  0.00  0.00    +0.000 A 
ATOM     27  C   UNL     1       3.174   2.914  19.841  0.00  0.00    +0.000 A 
ATOM     28  C   UNL     1       3.088   4.279  19.463  0.00  0.00    +0.000 A 
ENDBRANCH  17  19
ENDBRANCH  16  17
ENDBRANCH   1  16
TORSDOF 6
ENDMDL
MODEL 5
REMARK VINA RESULT:      -9.1      3.558      7.706
REMARK  Name = 
REMARK  7 active torsions:
REMARK  status: ('A' for Active; 'I' for Inactive)
REMARK    1  A    between atoms: C_1  and  C_2
REMARK    2  A    between atoms: N_4  and  C_5
REMARK    3  A    between atoms: C_5  and  C_6
REMARK    4  A    between atoms: C_5  and  C_19
REMARK    5  A    between atoms: C_6  and  C_7
REMARK    6  A    between atoms: C_7  and  C_9
REMARK    7  A    between atoms: C_23  and  N_24
REMARK                            x       y       z     vdW  Elec       q    Type
REMARK                         _______ _______ _______ _____ _____    ______ ____
ROOT
ATOM      1  C   UNL     1       2.621   4.495  19.507  0.00  0.00    +0.000 C 
ENDROOT
BRANCH   1   2
ATOM      2  C   UNL     1       2.278   5.987  19.447  0.00  0.00    +0.000 A 
ATOM      3  C   UNL     1       2.577   6.735  18.296  0.00  0.00    +0.000 A 
ATOM      4  C   UNL     1       2.328   8.112  18.243  0.00  0.00    +0.000 A 
ATOM      5  C   UNL     1       1.774   8.771  19.340  0.00  0.00    +0.000 A 
ATOM      6  C   UNL     1       1.452   8.037  20.484  0.00  0.00    +0.000 A 
ATOM      7  C   UNL     1       1.695   6.653  20.541  0.00  0.00    +0.000 A 
BRANCH   6   8
ATOM      8  N   UNL     1       0.862   8.719  21.644  0.00  0.00    +0.000 N 
ATOM      9  O   UNL     1       1.612   9.401  22.358  0.00  0.00    +0.000 OA
ATOM     10  O   UNL     1      -0.354   8.577  21.837  0.00  0.00    +0.000 OA
ENDBRANCH   6   8
ENDBRANCH   1   2
BRANCH   1  14
ATOM     11  C   UNL     1       1.189   2.324  22.255  0.00  0.00    +0.000 C 
ATOM     12  C   UNL     1       2.233   2.873  21.321  0.00  0.00    +0.000 C 
ATOM     13  O   UNL     1       3.397   2.501  21.349  0.00  0.00    +0.000 OA
ATOM     14  N   UNL     1       1.747   3.839  20.466  0.00  0.00    +0.000 N 
ATOM     15  H   UNL     1       0.831   4.221  20.645  0.00  0.00    +0.000 HD
ENDBRANCH   1  14
BRANCH   1  16
ATOM     16  C   UNL     1       2.509   3.878  18.110  0.00  0.00    +0.000 C 
BRANCH  16  17
ATOM     17  C   UNL     1       3.745   3.133  17.611  0.00  0.00    +0.000 C 
ATOM     18  O   UNL     1       3.929   1.940  17.832  0.00  0.00    +0.000 OA
BRANCH  17  19
ATOM     19  C   UNL     1       4.775   3.956  16.882  0.00  0.00    +0.000 A 
ATOM     20  C   UNL     1       4.716   3.939  15.474  0.00  0.00    +0.000 A 
ATOM     21  C   UNL     1       5.607   4.678  14.707  0.00  0.00    +0.000 A 
ATOM     22  C   UNL     1       6.565   5.458  15.334  0.00  0.00    +0.000 A 
ATOM     23  C   UNL     1       6.661   5.503  16.731  0.00  0.00    +0.000 A 
ATOM     24  C   UNL     1       7.651   6.311  17.312  0.00  0.00    +0.000 A 
ATOM     25  C   UNL     1       7.797   6.385  18.694  0.00  0.00    +0.000 A 
ATOM     26  C   UNL     1       6.955   5.641  19.510  0.00  0.00    +0.000 A 
ATOM     27  C   UNL     1       5.961   4.833  18.946  0.00  0.00    +0.000 A 
ATOM     28  C   UNL     1       5.769   4.744  17.542  0.00  0.00    +0.000 A 
ENDBRANCH  17  19
ENDBRANCH  16  17
ENDBRANCH   1  16
TORSDOF 6
ENDMDL
MODEL 6
REMARK VINA RESULT:      -9.1      3.491      5.958
REMARK  Name = 
REMARK  7 active torsions:
REMARK  status: ('A' for Active; 'I' for Inactive)
REMARK    1  A    between atoms: C_1  and  C_2
REMARK    2  A    between atoms: N_4  and  C_5
REMARK    3  A    between atoms: C_5  and  C_6
REMARK    4  A    between atoms: C_5  and  C_19
REMARK    5  A    between atoms: C_6  and  C_7
REMARK    6  A    between atoms: C_7  and  C_9
REMARK    7  A    between atoms: C_23  and  N_24
REMARK                            x       y       z     vdW  Elec       q    Type
REMARK                         _______ _______ _______ _____ _____    ______ ____
ROOT
ATOM      1  C   UNL     1       2.824   5.958  17.976  0.00  0.00    +0.000 C 
ENDROOT
BRANCH   1   2
ATOM      2  C   UNL     1       4.294   5.550  17.841  0.00  0.00    +0.000 A 
ATOM      3  C   UNL     1       5.117   5.487  18.978  0.00  0.00    +0.000 A 
ATOM      4  C   UNL     1       6.478   5.176  18.870  0.00  0.00    +0.000 A 
ATOM      5  C   UNL     1       7.046   4.918  17.623  0.00  0.00    +0.000 A 
ATOM      6  C   UNL     1       6.235   4.955  16.485  0.00  0.00    +0.000 A 
ATOM      7  C   UNL     1       4.867   5.263  16.588  0.00  0.00    +0.000 A 
BRANCH   6   8
ATOM      8  N   UNL     1       6.821   4.681  15.166  0.00  0.00    +0.000 N 
ATOM      9  O   UNL     1       7.764   5.392  14.791  0.00  0.00    +0.000 OA
ATOM     10  O   UNL     1       6.340   3.747  14.507  0.00  0.00    +0.000 OA
ENDBRANCH   6   8
ENDBRANCH   1   2
BRANCH   1  14
ATOM     11  C   UNL     1       0.916   3.186  19.706  0.00  0.00    +0.000 C 
ATOM     12  C   UNL     1       1.506   3.959  18.557  0.00  0.00    +0.000 C 
ATOM     13  O   UNL     1       1.411   3.583  17.398  0.00  0.00    +0.000 OA
ATOM     14  N   UNL     1       2.173   5.099  18.952  0.00  0.00    +0.000 N 
ATOM     15  H   UNL     1       2.370   5.225  19.933  0.00  0.00    +0.000 HD
ENDBRANCH   1  14
BRANCH   1  16
ATOM     16  C   UNL     1       2.726   7.438  18.355  0.00  0.00    +0.000 C 
BRANCH  16  17
ATOM     17  C   UNL     1       1.999   7.743  19.663  0.00  0.00    +0.000 C 
ATOM     18  O   UNL     1       2.080   7.015  20.647  0.00  0.00    +0.000 OA
BRANCH  17  19
ATOM     19  C   UNL     1       1.111   8.960  19.669  0.00  0.00    +0.000 A 
ATOM     20  C   UNL     1       0.894   9.589  18.427  0.00  0.00    +0.000 A 
ATOM     21  C   UNL     1       0.077  10.707  18.319  0.00  0.00    +0.000 A 
ATOM     22  C   UNL     1      -0.550  11.208  19.449  0.00  0.00    +0.000 A 
ATOM     23  C   UNL     1      -0.361  10.615  20.703  0.00  0.00    +0.000 A 
ATOM     24  C   UNL     1      -1.020  11.165  21.814  0.00  0.00    +0.000 A 
ATOM     25  C   UNL     1      -0.860  10.622  23.085  0.00  0.00    +0.000 A 
ATOM     26  C   UNL     1      -0.028   9.524  23.258  0.00  0.00    +0.000 A 
ATOM     27  C   UNL     1       0.634   8.962  22.160  0.00  0.00    +0.000 A 
ATOM     28  C   UNL     1       0.483   9.476  20.846  0.00  0.00    +0.000 A 
ENDBRANCH  17  19
ENDBRANCH  16  17
ENDBRANCH   1  16
TORSDOF 6
ENDMDL
MODEL 7
REMARK VINA RESULT:      -9.1      1.420      2.493
REMARK  Name = 
REMARK  7 active torsions:
REMARK  status: ('A' for Active; 'I' for Inactive)
REMARK    1  A    between atoms: C_1  and  C_2
REMARK    2  A    between atoms: N_4  and  C_5
REMARK    3  A    between atoms: C_5  and  C_6
REMARK    4  A    between atoms: C_5  and  C_19
REMARK    5  A    between atoms: C_6  and  C_7
REMARK    6  A    between atoms: C_7  and  C_9
REMARK    7  A    between atoms: C_23  and  N_24
REMARK                            x       y       z     vdW  Elec       q    Type
REMARK                         _______ _______ _______ _____ _____    ______ ____
ROOT
ATOM      1  C   UNL     1       5.859   4.283  16.397  0.00  0.00    +0.000 C 
ENDROOT
BRANCH   1   2
ATOM      2  C   UNL     1       6.266   4.245  14.920  0.00  0.00    +0.000 A 
ATOM      3  C   UNL     1       7.325   5.044  14.459  0.00  0.00    +0.000 A 
ATOM      4  C   UNL     1       7.673   5.070  13.102  0.00  0.00    +0.000 A 
ATOM      5  C   UNL     1       6.971   4.297  12.179  0.00  0.00    +0.000 A 
ATOM      6  C   UNL     1       5.930   3.480  12.627  0.00  0.00    +0.000 A 
ATOM      7  C   UNL     1       5.578   3.447  13.988  0.00  0.00    +0.000 A 
BRANCH   6   8
ATOM      8  N   UNL     1       5.185   2.656  11.664  0.00  0.00    +0.000 N 
ATOM      9  O   UNL     1       5.686   1.578  11.315  0.00  0.00    +0.000 OA
ATOM     10  O   UNL     1       4.095   3.087  11.262  0.00  0.00    +0.000 OA
ENDBRANCH   6   8
ENDBRANCH   1   2
BRANCH   1  14
ATOM     11  C   UNL     1       7.859   6.777  18.422  0.00  0.00    +0.000 C 
ATOM     12  C   UNL     1       7.433   5.428  17.909  0.00  0.00    +0.000 C 
ATOM     13  O   UNL     1       7.986   4.393  18.250  0.00  0.00    +0.000 OA
ATOM     14  N   UNL     1       6.389   5.490  17.011  0.00  0.00    +0.000 N 
ATOM     15  H   UNL     1       6.127   6.391  16.640  0.00  0.00    +0.000 HD
ENDBRANCH   1  14
BRANCH   1  16
ATOM     16  C   UNL     1       4.336   4.195  16.521  0.00  0.00    +0.000 C 
BRANCH  16  17
ATOM     17  C   UNL     1       3.809   3.216  17.568  0.00  0.00    +0.000 C 
ATOM     18  O   UNL     1       3.847   1.999  17.410  0.00  0.00    +0.000 OA
BRANCH  17  19
ATOM     19  C   UNL     1       3.169   3.821  18.790  0.00  0.00    +0.000 A 
ATOM     20  C   UNL     1       2.939   2.954  19.877  0.00  0.00    +0.000 A 
ATOM     21  C   UNL     1       2.372   3.415  21.058  0.00  0.00    +0.000 A 
ATOM     22  C   UNL     1       2.037   4.754  21.179  0.00  0.00    +0.000 A 
ATOM     23  C   UNL     1       2.247   5.650  20.123  0.00  0.00    +0.000 A 
ATOM     24  C   UNL     1       1.888   6.996  20.301  0.00  0.00    +0.000 A 
ATOM     25  C   UNL     1       2.066   7.927  19.282  0.00  0.00    +0.000 A 
ATOM     26  C   UNL     1       2.598   7.515  18.067  0.00  0.00    +0.000 A 
ATOM     27  C   UNL     1       2.963   6.178  17.875  0.00  0.00    +0.000 A 
ATOM     28  C   UNL     1       2.814   5.202  18.896  0.00  0.00    +0.000 A 
ENDBRANCH  17  19
ENDBRANCH  16  17
ENDBRANCH   1  16
TORSDOF 6
ENDMDL
MODEL 8
REMARK VINA RESULT:      -9.0      3.695      6.230
REMARK  Name = 
REMARK  7 active torsions:
REMARK  status: ('A' for Active; 'I' for Inactive)
REMARK    1  A    between atoms: C_1  and  C_2
REMARK    2  A    between atoms: N_4  and  C_5
REMARK    3  A    between atoms: C_5  and  C_6
REMARK    4  A    between atoms: C_5  and  C_19
REMARK    5  A    between atoms: C_6  and  C_7
REMARK    6  A    between atoms: C_7  and  C_9
REMARK    7  A    between atoms: C_23  and  N_24
REMARK                            x       y       z     vdW  Elec       q    Type
REMARK                         _______ _______ _______ _____ _____    ______ ____
ROOT
ATOM      1  C   UNL     1       2.905   4.309  18.349  0.00  0.00    +0.000 C 
ENDROOT
BRANCH   1   2
ATOM      2  C   UNL     1       4.358   4.496  17.902  0.00  0.00    +0.000 A 
ATOM      3  C   UNL     1       4.774   4.037  16.641  0.00  0.00    +0.000 A 
ATOM      4  C   UNL     1       6.111   4.144  16.237  0.00  0.00    +0.000 A 
ATOM      5  C   UNL     1       7.060   4.713  17.085  0.00  0.00    +0.000 A 
ATOM      6  C   UNL     1       6.657   5.194  18.333  0.00  0.00    +0.000 A 
ATOM      7  C   UNL     1       5.316   5.094  18.742  0.00  0.00    +0.000 A 
BRANCH   6   8
ATOM      8  N   UNL     1       7.647   5.801  19.234  0.00  0.00    +0.000 N 
ATOM      9  O   UNL     1       8.276   6.787  18.823  0.00  0.00    +0.000 OA
ATOM     10  O   UNL     1       7.790   5.295  20.356  0.00  0.00    +0.000 OA
ENDBRANCH   6   8
ENDBRANCH   1   2
BRANCH   1  14
ATOM     11  C   UNL     1       1.980   2.482  21.530  0.00  0.00    +0.000 C 
ATOM     12  C   UNL     1       1.816   2.992  20.124  0.00  0.00    +0.000 C 
ATOM     13  O   UNL     1       0.836   2.729  19.443  0.00  0.00    +0.000 OA
ATOM     14  N   UNL     1       2.883   3.750  19.691  0.00  0.00    +0.000 N 
ATOM     15  H   UNL     1       3.727   3.750  20.242  0.00  0.00    +0.000 HD
ENDBRANCH   1  14
BRANCH   1  16
ATOM     16  C   UNL     1       2.158   5.643  18.268  0.00  0.00    +0.000 C 
BRANCH  16  17
ATOM     17  C   UNL     1       2.318   6.569  19.471  0.00  0.00    +0.000 C 
ATOM     18  O   UNL     1       2.698   6.167  20.566  0.00  0.00    +0.000 OA
BRANCH  17  19
ATOM     19  C   UNL     1       1.919   8.007  19.268  0.00  0.00    +0.000 A 
ATOM     20  C   UNL     1       2.333   8.614  18.065  0.00  0.00    +0.000 A 
ATOM     21  C   UNL     1       2.001   9.930  17.770  0.00  0.00    +0.000 A 
ATOM     22  C   UNL     1       1.237  10.660  18.667  0.00  0.00    +0.000 A 
ATOM     23  C   UNL     1       0.805  10.097  19.875  0.00  0.00    +0.000 A 
ATOM     24  C   UNL     1       0.034  10.883  20.746  0.00  0.00    +0.000 A 
ATOM     25  C   UNL     1      -0.413  10.378  21.963  0.00  0.00    +0.000 A 
ATOM     26  C   UNL     1      -0.083   9.079  22.325  0.00  0.00    +0.000 A 
ATOM     27  C   UNL     1       0.683   8.281  21.466  0.00  0.00    +0.000 A 
ATOM     28  C   UNL     1       1.143   8.754  20.209  0.00  0.00    +0.000 A 
ENDBRANCH  17  19
ENDBRANCH  16  17
ENDBRANCH   1  16
TORSDOF 6
ENDMDL
MODEL 9
REMARK VINA RESULT:      -8.9      3.141      5.551
REMARK  Name = 
REMARK  7 active torsions:
REMARK  status: ('A' for Active; 'I' for Inactive)
REMARK    1  A    between atoms: C_1  and  C_2
REMARK    2  A    between atoms: N_4  and  C_5
REMARK    3  A    between atoms: C_5  and  C_6
REMARK    4  A    between atoms: C_5  and  C_19
REMARK    5  A    between atoms: C_6  and  C_7
REMARK    6  A    between atoms: C_7  and  C_9
REMARK    7  A    between atoms: C_23  and  N_24
REMARK                            x       y       z     vdW  Elec       q    Type
REMARK                         _______ _______ _______ _____ _____    ______ ____
ROOT
ATOM      1  C   UNL     1       2.954   4.331  18.213  0.00  0.00    +0.000 C 
ENDROOT
BRANCH   1   2
ATOM      2  C   UNL     1       4.443   4.453  17.875  0.00  0.00    +0.000 A 
ATOM      3  C   UNL     1       5.388   4.639  18.898  0.00  0.00    +0.000 A 
ATOM      4  C   UNL     1       6.747   4.814  18.606  0.00  0.00    +0.000 A 
ATOM      5  C   UNL     1       7.190   4.804  17.284  0.00  0.00    +0.000 A 
ATOM      6  C   UNL     1       6.266   4.598  16.257  0.00  0.00    +0.000 A 
ATOM      7  C   UNL     1       4.901   4.418  16.544  0.00  0.00    +0.000 A 
BRANCH   6   8
ATOM      8  N   UNL     1       6.722   4.581  14.860  0.00  0.00    +0.000 N 
ATOM      9  O   UNL     1       7.664   5.323  14.549  0.00  0.00    +0.000 OA
ATOM     10  O   UNL     1       6.141   3.817  14.076  0.00  0.00    +0.000 OA
ENDBRANCH   6   8
ENDBRANCH   1   2
BRANCH   1  14
ATOM     11  C   UNL     1       1.751   2.426  21.253  0.00  0.00    +0.000 C 
ATOM     12  C   UNL     1       1.720   2.959  19.846  0.00  0.00    +0.000 C 
ATOM     13  O   UNL     1       0.821   2.688  19.064  0.00  0.00    +0.000 OA
ATOM     14  N   UNL     1       2.808   3.746  19.537  0.00  0.00    +0.000 N 
ATOM     15  H   UNL     1       3.592   3.754  20.171  0.00  0.00    +0.000 HD
ENDBRANCH   1  14
BRANCH   1  16
ATOM     16  C   UNL     1       2.282   5.702  18.112  0.00  0.00    +0.000 C 
BRANCH  16  17
ATOM     17  C   UNL     1       2.420   6.603  19.337  0.00  0.00    +0.000 C 
ATOM     18  O   UNL     1       2.819   6.187  20.420  0.00  0.00    +0.000 OA
BRANCH  17  19
ATOM     19  C   UNL     1       1.973   8.033  19.172  0.00  0.00    +0.000 A 
ATOM     20  C   UNL     1       2.338   8.674  17.971  0.00  0.00    +0.000 A 
ATOM     21  C   UNL     1       1.961   9.984  17.711  0.00  0.00    +0.000 A 
ATOM     22  C   UNL     1       1.200  10.675  18.641  0.00  0.00    +0.000 A 
ATOM     23  C   UNL     1       0.816  10.077  19.848  0.00  0.00    +0.000 A 
ATOM     24  C   UNL     1       0.045  10.823  20.753  0.00  0.00    +0.000 A 
ATOM     25  C   UNL     1      -0.355  10.282  21.971  0.00  0.00    +0.000 A 
ATOM     26  C   UNL     1       0.022   8.987  22.299  0.00  0.00    +0.000 A 
ATOM     27  C   UNL     1       0.788   8.228  21.406  0.00  0.00    +0.000 A 
ATOM     28  C   UNL     1       1.201   8.738  20.147  0.00  0.00    +0.000 A 
ENDBRANCH  17  19
ENDBRANCH  16  17
ENDBRANCH   1  16
TORSDOF 6
ENDMDL
