MODEL 1
REMARK VINA RESULT:      -6.9      0.000      0.000
REMARK  Name = 
REMARK  12 active torsions:
REMARK  status: ('A' for Active; 'I' for Inactive)
REMARK    1  A    between atoms: C_1  and  C_2
REMARK    2  A    between atoms: C_2  and  C_3
REMARK    3  A    between atoms: C_2  and  C_4
REMARK    4  A    between atoms: C_4  and  N_5
REMARK    5  A    between atoms: N_5  and  C_6
REMARK    6  A    between atoms: N_5  and  C_7
REMARK    7  A    between atoms: C_7  and  C_8
REMARK    8  A    between atoms: C_10  and  C_11
REMARK    9  A    between atoms: C_11  and  C_13
REMARK   10  A    between atoms: C_16  and  S_17
REMARK   11  A    between atoms: S_17  and  N_18
REMARK   12  A    between atoms: C_24  and  O_25
REMARK                            x       y       z     vdW  Elec       q    Type
REMARK                         _______ _______ _______ _____ _____    ______ ____
ROOT
ATOM      1  C   UNL     1       3.609   5.668  18.063  0.00  0.00    +0.000 A 
ATOM      2  C   UNL     1       3.207   6.960  17.697  0.00  0.00    +0.000 A 
ATOM      3  C   UNL     1       2.454   7.758  18.579  0.00  0.00    +0.000 A 
ATOM      4  C   UNL     1       2.122   7.237  19.843  0.00  0.00    +0.000 A 
ATOM      5  C   UNL     1       2.513   5.950  20.210  0.00  0.00    +0.000 A 
ATOM      6  C   UNL     1       3.247   5.155  19.324  0.00  0.00    +0.000 A 
ENDROOT
BRANCH   3   7
ATOM      7  C   UNL     1       1.942   9.077  18.136  0.00  0.00    +0.000 C 
ATOM      8  O   UNL     1       2.478   9.623  17.176  0.00  0.00    +0.000 OA
BRANCH   7   9
ATOM      9  C   UNL     1       0.777   9.747  18.754  0.00  0.00    +0.000 A 
ATOM     10  C   UNL     1      -0.375  10.077  18.038  0.00  0.00    +0.000 A 
ATOM     11  S   UNL     1      -1.441  10.869  19.071  0.00  0.00    +0.000 S 
ATOM     12  C   UNL     1      -0.438  10.825  20.414  0.00  0.00    +0.000 A 
ATOM     13  C   UNL     1       0.736  10.169  20.093  0.00  0.00    +0.000 A 
BRANCH  12  14
ATOM     14  S   UNL     1      -0.793  11.593  21.988  0.00  0.00    +0.000 S 
ATOM     15  O   UNL     1      -0.008  12.899  22.190  0.00  0.00    +0.000 OA
ATOM     16  O   UNL     1      -2.244  12.083  22.093  0.00  0.00    +0.000 OA
BRANCH  14  17
ATOM     17  N   UNL     1      -0.522  10.659  23.460  0.00  0.00    +0.000 NA
ATOM     18  H   UNL     1      -1.081   9.781  23.386  0.00  0.00    +0.000 HD
ATOM     19  H   UNL     1      -0.888  11.218  24.263  0.00  0.00    +0.000 HD
ENDBRANCH  14  17
ENDBRANCH  12  14
ENDBRANCH   7   9
ENDBRANCH   3   7
BRANCH   6  20
ATOM     20  O   UNL     1       3.590   3.895  19.663  0.00  0.00    +0.000 OA
ATOM     21  H   UNL     1       3.344   3.131  19.120  0.00  0.00    +0.000 HD
ENDBRANCH   6  20
BRANCH   1  22
ATOM     22  C   UNL     1       4.360   4.808  17.066  0.00  0.00    +0.000 C 
BRANCH  22  23
ATOM     23  N   UNL     1       5.595   5.493  16.637  0.00  0.00    +0.000 NA
ATOM     24  C   UNL     1       5.668   5.535  15.163  0.00  0.00    +0.000 C 
BRANCH  23  25
ATOM     25  C   UNL     1       6.792   4.836  17.218  0.00  0.00    +0.000 C 
BRANCH  25  27
ATOM     26  C   UNL     1       7.477   7.243  17.638  0.00  0.00    +0.000 C 
ATOM     27  C   UNL     1       7.656   5.779  18.077  0.00  0.00    +0.000 C 
ATOM     28  C   UNL     1       7.263   5.625  19.552  0.00  0.00    +0.000 C 
ENDBRANCH  25  27
ENDBRANCH  23  25
ENDBRANCH  22  23
ENDBRANCH   1  22
TORSDOF 9
ENDMDL
MODEL 2
REMARK VINA RESULT:      -6.9      1.647      2.077
REMARK  Name = 
REMARK  12 active torsions:
REMARK  status: ('A' for Active; 'I' for Inactive)
REMARK    1  A    between atoms: C_1  and  C_2
REMARK    2  A    between atoms: C_2  and  C_3
REMARK    3  A    between atoms: C_2  and  C_4
REMARK    4  A    between atoms: C_4  and  N_5
REMARK    5  A    between atoms: N_5  and  C_6
REMARK    6  A    between atoms: N_5  and  C_7
REMARK    7  A    between atoms: C_7  and  C_8
REMARK    8  A    between atoms: C_10  and  C_11
REMARK    9  A    between atoms: C_11  and  C_13
REMARK   10  A    between atoms: C_16  and  S_17
REMARK   11  A    between atoms: S_17  and  N_18
REMARK   12  A    between atoms: C_24  and  O_25
REMARK                            x       y       z     vdW  Elec       q    Type
REMARK                         _______ _______ _______ _____ _____    ______ ____
ROOT
ATOM      1  C   UNL     1       3.873   4.252  17.346  0.00  0.00    +0.000 A 
ATOM      2  C   UNL     1       3.758   5.636  17.538  0.00  0.00    +0.000 A 
ATOM      3  C   UNL     1       2.560   6.200  18.015  0.00  0.00    +0.000 A 
ATOM      4  C   UNL     1       1.482   5.346  18.308  0.00  0.00    +0.000 A 
ATOM      5  C   UNL     1       1.587   3.970  18.113  0.00  0.00    +0.000 A 
ATOM      6  C   UNL     1       2.775   3.415  17.623  0.00  0.00    +0.000 A 
ENDROOT
BRANCH   3   7
ATOM      7  C   UNL     1       2.418   7.674  18.107  0.00  0.00    +0.000 C 
ATOM      8  O   UNL     1       2.741   8.357  17.140  0.00  0.00    +0.000 OA
BRANCH   7   9
ATOM      9  C   UNL     1       1.850   8.364  19.286  0.00  0.00    +0.000 A 
ATOM     10  C   UNL     1       1.755   7.763  20.543  0.00  0.00    +0.000 A 
ATOM     11  S   UNL     1       1.010   8.839  21.599  0.00  0.00    +0.000 S 
ATOM     12  C   UNL     1       0.777  10.053  20.464  0.00  0.00    +0.000 A 
ATOM     13  C   UNL     1       1.299   9.655  19.247  0.00  0.00    +0.000 A 
BRANCH  12  14
ATOM     14  S   UNL     1      -0.097  11.583  20.762  0.00  0.00    +0.000 S 
ATOM     15  O   UNL     1      -0.668  12.189  19.470  0.00  0.00    +0.000 OA
ATOM     16  O   UNL     1      -1.367  11.385  21.601  0.00  0.00    +0.000 OA
BRANCH  14  17
ATOM     17  N   UNL     1       0.766  12.905  21.550  0.00  0.00    +0.000 NA
ATOM     18  H   UNL     1       1.788  12.713  21.462  0.00  0.00    +0.000 HD
ATOM     19  H   UNL     1       0.511  12.892  22.562  0.00  0.00    +0.000 HD
ENDBRANCH  14  17
ENDBRANCH  12  14
ENDBRANCH   7   9
ENDBRANCH   3   7
BRANCH   6  20
ATOM     20  O   UNL     1       2.863   2.088  17.395  0.00  0.00    +0.000 OA
ATOM     21  H   UNL     1       3.562   1.707  16.842  0.00  0.00    +0.000 HD
ENDBRANCH   6  20
BRANCH   1  22
ATOM     22  C   UNL     1       5.152   3.681  16.767  0.00  0.00    +0.000 C 
BRANCH  22  23
ATOM     23  N   UNL     1       6.088   4.773  16.434  0.00  0.00    +0.000 NA
ATOM     24  C   UNL     1       6.300   4.834  14.974  0.00  0.00    +0.000 C 
BRANCH  23  25
ATOM     25  C   UNL     1       7.372   4.607  17.159  0.00  0.00    +0.000 C 
BRANCH  25  27
ATOM     26  C   UNL     1       7.340   7.109  17.579  0.00  0.00    +0.000 C 
ATOM     27  C   UNL     1       7.651   5.727  18.179  0.00  0.00    +0.000 C 
ATOM     28  C   UNL     1       6.796   5.497  19.432  0.00  0.00    +0.000 C 
ENDBRANCH  25  27
ENDBRANCH  23  25
ENDBRANCH  22  23
ENDBRANCH   1  22
TORSDOF 9
ENDMDL
MODEL 3
REMARK VINA RESULT:      -6.8      2.122      3.682
REMARK  Name = 
REMARK  12 active torsions:
REMARK  status: ('A' for Active; 'I' for Inactive)
REMARK    1  A    between atoms: C_1  and  C_2
REMARK    2  A    between atoms: C_2  and  C_3
REMARK    3  A    between atoms: C_2  and  C_4
REMARK    4  A    between atoms: C_4  and  N_5
REMARK    5  A    between atoms: N_5  and  C_6
REMARK    6  A    between atoms: N_5  and  C_7
REMARK    7  A    between atoms: C_7  and  C_8
REMARK    8  A    between atoms: C_10  and  C_11
REMARK    9  A    between atoms: C_11  and  C_13
REMARK   10  A    between atoms: C_16  and  S_17
REMARK   11  A    between atoms: S_17  and  N_18
REMARK   12  A    between atoms: C_24  and  O_25
REMARK                            x       y       z     vdW  Elec       q    Type
REMARK                         _______ _______ _______ _____ _____    ______ ____
ROOT
ATOM      1  C   UNL     1       2.907   4.923  17.603  0.00  0.00    +0.000 A 
ATOM      2  C   UNL     1       2.213   6.129  17.776  0.00  0.00    +0.000 A 
ATOM      3  C   UNL     1       2.904   7.352  17.872  0.00  0.00    +0.000 A 
ATOM      4  C   UNL     1       4.307   7.343  17.778  0.00  0.00    +0.000 A 
ATOM      5  C   UNL     1       5.004   6.147  17.612  0.00  0.00    +0.000 A 
ATOM      6  C   UNL     1       4.314   4.932  17.534  0.00  0.00    +0.000 A 
ENDROOT
BRANCH   3   7
ATOM      7  C   UNL     1       2.164   8.603  18.166  0.00  0.00    +0.000 C 
ATOM      8  O   UNL     1       1.942   9.384  17.246  0.00  0.00    +0.000 OA
BRANCH   7   9
ATOM      9  C   UNL     1       1.626   8.934  19.503  0.00  0.00    +0.000 A 
ATOM     10  C   UNL     1       1.774   8.094  20.609  0.00  0.00    +0.000 A 
ATOM     11  S   UNL     1       0.984   8.788  21.921  0.00  0.00    +0.000 S 
ATOM     12  C   UNL     1       0.428  10.135  21.090  0.00  0.00    +0.000 A 
ATOM     13  C   UNL     1       0.868  10.083  19.780  0.00  0.00    +0.000 A 
BRANCH  12  14
ATOM     14  S   UNL     1      -0.649  11.389  21.769  0.00  0.00    +0.000 S 
ATOM     15  O   UNL     1       0.106  12.684  22.108  0.00  0.00    +0.000 OA
ATOM     16  O   UNL     1      -1.687  11.890  20.756  0.00  0.00    +0.000 OA
BRANCH  14  17
ATOM     17  N   UNL     1      -1.578  11.004  23.219  0.00  0.00    +0.000 NA
ATOM     18  H   UNL     1      -1.081  10.234  23.719  0.00  0.00    +0.000 HD
ATOM     19  H   UNL     1      -2.512  10.653  22.914  0.00  0.00    +0.000 HD
ENDBRANCH  14  17
ENDBRANCH  12  14
ENDBRANCH   7   9
ENDBRANCH   3   7
BRANCH   6  20
ATOM     20  O   UNL     1       4.991   3.771  17.415  0.00  0.00    +0.000 OA
ATOM     21  H   UNL     1       5.488   3.546  16.614  0.00  0.00    +0.000 HD
ENDBRANCH   6  20
BRANCH   1  22
ATOM     22  C   UNL     1       2.141   3.616  17.573  0.00  0.00    +0.000 C 
BRANCH  22  23
ATOM     23  N   UNL     1       2.364   2.870  18.827  0.00  0.00    +0.000 NA
ATOM     24  C   UNL     1       2.845   1.506  18.529  0.00  0.00    +0.000 C 
BRANCH  23  25
ATOM     25  C   UNL     1       1.129   2.839  19.649  0.00  0.00    +0.000 C 
BRANCH  25  27
ATOM     26  C   UNL     1       2.372   2.483  21.833  0.00  0.00    +0.000 C 
ATOM     27  C   UNL     1       1.337   3.345  21.090  0.00  0.00    +0.000 C 
ATOM     28  C   UNL     1       1.803   4.806  21.052  0.00  0.00    +0.000 C 
ENDBRANCH  25  27
ENDBRANCH  23  25
ENDBRANCH  22  23
ENDBRANCH   1  22
TORSDOF 9
ENDMDL
MODEL 4
REMARK VINA RESULT:      -6.8      3.549      8.407
REMARK  Name = 
REMARK  12 active torsions:
REMARK  status: ('A' for Active; 'I' for Inactive)
REMARK    1  A    between atoms: C_1  and  C_2
REMARK    2  A    between atoms: C_2  and  C_3
REMARK    3  A    between atoms: C_2  and  C_4
REMARK    4  A    between atoms: C_4  and  N_5
REMARK    5  A    between atoms: N_5  and  C_6
REMARK    6  A    between atoms: N_5  and  C_7
REMARK    7  A    between atoms: C_7  and  C_8
REMARK    8  A    between atoms: C_10  and  C_11
REMARK    9  A    between atoms: C_11  and  C_13
REMARK   10  A    between atoms: C_16  and  S_17
REMARK   11  A    between atoms: S_17  and  N_18
REMARK   12  A    between atoms: C_24  and  O_25
REMARK                            x       y       z     vdW  Elec       q    Type
REMARK                         _______ _______ _______ _____ _____    ______ ____
ROOT
ATOM      1  C   UNL     1       0.190  10.335  20.286  0.00  0.00    +0.000 A 
ATOM      2  C   UNL     1       0.844   9.838  19.150  0.00  0.00    +0.000 A 
ATOM      3  C   UNL     1       1.612   8.660  19.218  0.00  0.00    +0.000 A 
ATOM      4  C   UNL     1       1.699   7.981  20.447  0.00  0.00    +0.000 A 
ATOM      5  C   UNL     1       1.056   8.473  21.582  0.00  0.00    +0.000 A 
ATOM      6  C   UNL     1       0.308   9.654  21.513  0.00  0.00    +0.000 A 
ENDROOT
BRANCH   3   7
ATOM      7  C   UNL     1       2.388   8.209  18.037  0.00  0.00    +0.000 C 
ATOM      8  O   UNL     1       2.464   8.954  17.065  0.00  0.00    +0.000 OA
BRANCH   7   9
ATOM      9  C   UNL     1       3.126   6.928  17.990  0.00  0.00    +0.000 A 
ATOM     10  C   UNL     1       2.642   5.752  18.566  0.00  0.00    +0.000 A 
ATOM     11  S   UNL     1       3.784   4.537  18.351  0.00  0.00    +0.000 S 
ATOM     12  C   UNL     1       4.907   5.501  17.559  0.00  0.00    +0.000 A 
ATOM     13  C   UNL     1       4.402   6.781  17.423  0.00  0.00    +0.000 A 
BRANCH  12  14
ATOM     14  S   UNL     1       6.539   4.975  17.058  0.00  0.00    +0.000 S 
ATOM     15  O   UNL     1       7.380   6.135  16.500  0.00  0.00    +0.000 OA
ATOM     16  O   UNL     1       7.400   4.508  18.240  0.00  0.00    +0.000 OA
BRANCH  14  17
ATOM     17  N   UNL     1       6.677   3.688  15.859  0.00  0.00    +0.000 NA
ATOM     18  H   UNL     1       6.930   4.129  14.947  0.00  0.00    +0.000 HD
ATOM     19  H   UNL     1       5.739   3.241  15.763  0.00  0.00    +0.000 HD
ENDBRANCH  14  17
ENDBRANCH  12  14
ENDBRANCH   7   9
ENDBRANCH   3   7
BRANCH   6  20
ATOM     20  O   UNL     1      -0.280  10.152  22.620  0.00  0.00    +0.000 OA
ATOM     21  H   UNL     1      -1.204  10.449  22.623  0.00  0.00    +0.000 HD
ENDBRANCH   6  20
BRANCH   1  22
ATOM     22  C   UNL     1      -0.572  11.641  20.198  0.00  0.00    +0.000 C 
BRANCH  22  23
ATOM     23  N   UNL     1      -0.998  11.886  18.806  0.00  0.00    +0.000 NA
ATOM     24  C   UNL     1      -0.474  13.183  18.334  0.00  0.00    +0.000 C 
BRANCH  23  25
ATOM     25  C   UNL     1      -2.476  11.827  18.688  0.00  0.00    +0.000 C 
BRANCH  25  27
ATOM     26  C   UNL     1      -4.402  10.738  17.446  0.00  0.00    +0.000 C 
ATOM     27  C   UNL     1      -2.989  10.537  18.020  0.00  0.00    +0.000 C 
ATOM     28  C   UNL     1      -2.023  10.127  16.901  0.00  0.00    +0.000 C 
ENDBRANCH  25  27
ENDBRANCH  23  25
ENDBRANCH  22  23
ENDBRANCH   1  22
TORSDOF 9
ENDMDL
MODEL 5
REMARK VINA RESULT:      -6.8      3.541      8.176
REMARK  Name = 
REMARK  12 active torsions:
REMARK  status: ('A' for Active; 'I' for Inactive)
REMARK    1  A    between atoms: C_1  and  C_2
REMARK    2  A    between atoms: C_2  and  C_3
REMARK    3  A    between atoms: C_2  and  C_4
REMARK    4  A    between atoms: C_4  and  N_5
REMARK    5  A    between atoms: N_5  and  C_6
REMARK    6  A    between atoms: N_5  and  C_7
REMARK    7  A    between atoms: C_7  and  C_8
REMARK    8  A    between atoms: C_10  and  C_11
REMARK    9  A    between atoms: C_11  and  C_13
REMARK   10  A    between atoms: C_16  and  S_17
REMARK   11  A    between atoms: S_17  and  N_18
REMARK   12  A    between atoms: C_24  and  O_25
REMARK                            x       y       z     vdW  Elec       q    Type
REMARK                         _______ _______ _______ _____ _____    ______ ____
ROOT
ATOM      1  C   UNL     1       0.112  10.568  20.605  0.00  0.00    +0.000 A 
ATOM      2  C   UNL     1       0.648  10.010  19.436  0.00  0.00    +0.000 A 
ATOM      3  C   UNL     1       1.447   8.852  19.490  0.00  0.00    +0.000 A 
ATOM      4  C   UNL     1       1.687   8.256  20.742  0.00  0.00    +0.000 A 
ATOM      5  C   UNL     1       1.162   8.809  21.908  0.00  0.00    +0.000 A 
ATOM      6  C   UNL     1       0.382   9.970  21.851  0.00  0.00    +0.000 A 
ENDROOT
BRANCH   3   7
ATOM      7  C   UNL     1       2.097   8.339  18.260  0.00  0.00    +0.000 C 
ATOM      8  O   UNL     1       2.159   9.073  17.278  0.00  0.00    +0.000 OA
BRANCH   7   9
ATOM      9  C   UNL     1       2.730   7.005  18.171  0.00  0.00    +0.000 A 
ATOM     10  C   UNL     1       3.997   6.803  17.620  0.00  0.00    +0.000 A 
ATOM     11  S   UNL     1       4.340   5.157  17.649  0.00  0.00    +0.000 S 
ATOM     12  C   UNL     1       2.877   4.692  18.328  0.00  0.00    +0.000 A 
ATOM     13  C   UNL     1       2.104   5.813  18.569  0.00  0.00    +0.000 A 
BRANCH  12  14
ATOM     14  S   UNL     1       2.362   3.004  18.603  0.00  0.00    +0.000 S 
ATOM     15  O   UNL     1       0.923   2.747  18.127  0.00  0.00    +0.000 OA
ATOM     16  O   UNL     1       3.154   1.998  17.757  0.00  0.00    +0.000 OA
BRANCH  14  17
ATOM     17  N   UNL     1       2.424   2.364  20.246  0.00  0.00    +0.000 NA
ATOM     18  H   UNL     1       1.568   1.785  20.394  0.00  0.00    +0.000 HD
ATOM     19  H   UNL     1       2.395   3.173  20.905  0.00  0.00    +0.000 HD
ENDBRANCH  14  17
ENDBRANCH  12  14
ENDBRANCH   7   9
ENDBRANCH   3   7
BRANCH   6  20
ATOM     20  O   UNL     1      -0.091  10.528  22.984  0.00  0.00    +0.000 OA
ATOM     21  H   UNL     1      -1.036  10.527  23.202  0.00  0.00    +0.000 HD
ENDBRANCH   6  20
BRANCH   1  22
ATOM     22  C   UNL     1      -0.687  11.853  20.522  0.00  0.00    +0.000 C 
BRANCH  22  23
ATOM     23  N   UNL     1      -0.994  12.167  19.113  0.00  0.00    +0.000 NA
ATOM     24  C   UNL     1      -0.651  13.573  18.818  0.00  0.00    +0.000 C 
BRANCH  23  25
ATOM     25  C   UNL     1      -2.419  11.885  18.808  0.00  0.00    +0.000 C 
BRANCH  25  27
ATOM     26  C   UNL     1      -2.173   9.920  17.221  0.00  0.00    +0.000 C 
ATOM     27  C   UNL     1      -2.651  11.374  17.373  0.00  0.00    +0.000 C 
ATOM     28  C   UNL     1      -4.145  11.471  17.036  0.00  0.00    +0.000 C 
ENDBRANCH  25  27
ENDBRANCH  23  25
ENDBRANCH  22  23
ENDBRANCH   1  22
TORSDOF 9
ENDMDL
MODEL 6
REMARK VINA RESULT:      -6.8      3.541      8.156
REMARK  Name = 
REMARK  12 active torsions:
REMARK  status: ('A' for Active; 'I' for Inactive)
REMARK    1  A    between atoms: C_1  and  C_2
REMARK    2  A    between atoms: C_2  and  C_3
REMARK    3  A    between atoms: C_2  and  C_4
REMARK    4  A    between atoms: C_4  and  N_5
REMARK    5  A    between atoms: N_5  and  C_6
REMARK    6  A    between atoms: N_5  and  C_7
REMARK    7  A    between atoms: C_7  and  C_8
REMARK    8  A    between atoms: C_10  and  C_11
REMARK    9  A    between atoms: C_11  and  C_13
REMARK   10  A    between atoms: C_16  and  S_17
REMARK   11  A    between atoms: S_17  and  N_18
REMARK   12  A    between atoms: C_24  and  O_25
REMARK                            x       y       z     vdW  Elec       q    Type
REMARK                         _______ _______ _______ _____ _____    ______ ____
ROOT
ATOM      1  C   UNL     1      -0.105  10.316  20.281  0.00  0.00    +0.000 A 
ATOM      2  C   UNL     1       0.557   9.759  19.178  0.00  0.00    +0.000 A 
ATOM      3  C   UNL     1       1.452   8.685  19.341  0.00  0.00    +0.000 A 
ATOM      4  C   UNL     1       1.661   8.171  20.634  0.00  0.00    +0.000 A 
ATOM      5  C   UNL     1       1.011   8.724  21.736  0.00  0.00    +0.000 A 
ATOM      6  C   UNL     1       0.134   9.802  21.570  0.00  0.00    +0.000 A 
ENDROOT
BRANCH   3   7
ATOM      7  C   UNL     1       2.228   8.181  18.182  0.00  0.00    +0.000 C 
ATOM      8  O   UNL     1       2.390   8.922  17.217  0.00  0.00    +0.000 OA
BRANCH   7   9
ATOM      9  C   UNL     1       2.869   6.849  18.150  0.00  0.00    +0.000 A 
ATOM     10  C   UNL     1       4.160   6.640  17.660  0.00  0.00    +0.000 A 
ATOM     11  S   UNL     1       4.507   4.997  17.741  0.00  0.00    +0.000 S 
ATOM     12  C   UNL     1       3.018   4.541  18.364  0.00  0.00    +0.000 A 
ATOM     13  C   UNL     1       2.231   5.663  18.547  0.00  0.00    +0.000 A 
BRANCH  12  14
ATOM     14  S   UNL     1       2.498   2.856  18.654  0.00  0.00    +0.000 S 
ATOM     15  O   UNL     1       3.272   1.849  17.789  0.00  0.00    +0.000 OA
ATOM     16  O   UNL     1       2.830   2.369  20.071  0.00  0.00    +0.000 OA
BRANCH  14  17
ATOM     17  N   UNL     1       0.796   2.450  18.422  0.00  0.00    +0.000 NA
ATOM     18  H   UNL     1       0.754   1.555  17.888  0.00  0.00    +0.000 HD
ATOM     19  H   UNL     1       0.365   3.203  17.842  0.00  0.00    +0.000 HD
ENDBRANCH  14  17
ENDBRANCH  12  14
ENDBRANCH   7   9
ENDBRANCH   3   7
BRANCH   6  20
ATOM     20  O   UNL     1      -0.463  10.364  22.642  0.00  0.00    +0.000 OA
ATOM     21  H   UNL     1      -0.526  11.325  22.750  0.00  0.00    +0.000 HD
ENDBRANCH   6  20
BRANCH   1  22
ATOM     22  C   UNL     1      -1.010  11.515  20.083  0.00  0.00    +0.000 C 
BRANCH  22  23
ATOM     23  N   UNL     1      -0.941  11.975  18.682  0.00  0.00    +0.000 NA
ATOM     24  C   UNL     1      -0.333  13.319  18.617  0.00  0.00    +0.000 C 
BRANCH  23  25
ATOM     25  C   UNL     1      -2.286  11.960  18.055  0.00  0.00    +0.000 C 
BRANCH  25  27
ATOM     26  C   UNL     1      -4.403  10.594  17.755  0.00  0.00    +0.000 C 
ATOM     27  C   UNL     1      -2.872  10.545  17.889  0.00  0.00    +0.000 C 
ATOM     28  C   UNL     1      -2.260   9.886  16.646  0.00  0.00    +0.000 C 
ENDBRANCH  25  27
ENDBRANCH  23  25
ENDBRANCH  22  23
ENDBRANCH   1  22
TORSDOF 9
ENDMDL
MODEL 7
REMARK VINA RESULT:      -6.8      2.451      4.109
REMARK  Name = 
REMARK  12 active torsions:
REMARK  status: ('A' for Active; 'I' for Inactive)
REMARK    1  A    between atoms: C_1  and  C_2
REMARK    2  A    between atoms: C_2  and  C_3
REMARK    3  A    between atoms: C_2  and  C_4
REMARK    4  A    between atoms: C_4  and  N_5
REMARK    5  A    between atoms: N_5  and  C_6
REMARK    6  A    between atoms: N_5  and  C_7
REMARK    7  A    between atoms: C_7  and  C_8
REMARK    8  A    between atoms: C_10  and  C_11
REMARK    9  A    between atoms: C_11  and  C_13
REMARK   10  A    between atoms: C_16  and  S_17
REMARK   11  A    between atoms: S_17  and  N_18
REMARK   12  A    between atoms: C_24  and  O_25
REMARK                            x       y       z     vdW  Elec       q    Type
REMARK                         _______ _______ _______ _____ _____    ______ ____
ROOT
ATOM      1  C   UNL     1       5.617   5.469  16.346  0.00  0.00    +0.000 A 
ATOM      2  C   UNL     1       4.421   5.803  16.996  0.00  0.00    +0.000 A 
ATOM      3  C   UNL     1       4.291   5.652  18.390  0.00  0.00    +0.000 A 
ATOM      4  C   UNL     1       5.392   5.172  19.122  0.00  0.00    +0.000 A 
ATOM      5  C   UNL     1       6.582   4.832  18.481  0.00  0.00    +0.000 A 
ATOM      6  C   UNL     1       6.701   4.967  17.093  0.00  0.00    +0.000 A 
ENDROOT
BRANCH   3   7
ATOM      7  C   UNL     1       2.985   5.903  19.046  0.00  0.00    +0.000 C 
ATOM      8  O   UNL     1       2.428   4.974  19.622  0.00  0.00    +0.000 OA
BRANCH   7   9
ATOM      9  C   UNL     1       2.342   7.234  19.093  0.00  0.00    +0.000 A 
ATOM     10  C   UNL     1       2.247   8.070  17.979  0.00  0.00    +0.000 A 
ATOM     11  S   UNL     1       1.505   9.505  18.445  0.00  0.00    +0.000 S 
ATOM     12  C   UNL     1       1.330   9.088  20.061  0.00  0.00    +0.000 A 
ATOM     13  C   UNL     1       1.822   7.812  20.263  0.00  0.00    +0.000 A 
BRANCH  12  14
ATOM     14  S   UNL     1       0.695  10.165  21.337  0.00  0.00    +0.000 S 
ATOM     15  O   UNL     1       1.317  11.569  21.278  0.00  0.00    +0.000 OA
ATOM     16  O   UNL     1      -0.797  10.477  21.161  0.00  0.00    +0.000 OA
BRANCH  14  17
ATOM     17  N   UNL     1       0.857   9.660  23.020  0.00  0.00    +0.000 NA
ATOM     18  H   UNL     1       1.627  10.221  23.447  0.00  0.00    +0.000 HD
ATOM     19  H   UNL     1       1.138   8.655  23.025  0.00  0.00    +0.000 HD
ENDBRANCH  14  17
ENDBRANCH  12  14
ENDBRANCH   7   9
ENDBRANCH   3   7
BRANCH   6  20
ATOM     20  O   UNL     1       7.839   4.600  16.468  0.00  0.00    +0.000 OA
ATOM     21  H   UNL     1       8.321   5.203  15.883  0.00  0.00    +0.000 HD
ENDBRANCH   6  20
BRANCH   1  22
ATOM     22  C   UNL     1       5.704   5.577  14.837  0.00  0.00    +0.000 C 
BRANCH  22  23
ATOM     23  N   UNL     1       6.542   4.486  14.301  0.00  0.00    +0.000 NA
ATOM     24  C   UNL     1       7.492   5.017  13.303  0.00  0.00    +0.000 C 
BRANCH  23  25
ATOM     25  C   UNL     1       5.700   3.409  13.723  0.00  0.00    +0.000 C 
BRANCH  25  27
ATOM     26  C   UNL     1       6.360   2.047  11.687  0.00  0.00    +0.000 C 
ATOM     27  C   UNL     1       5.733   3.361  12.184  0.00  0.00    +0.000 C 
ATOM     28  C   UNL     1       4.303   3.495  11.642  0.00  0.00    +0.000 C 
ENDBRANCH  25  27
ENDBRANCH  23  25
ENDBRANCH  22  23
ENDBRANCH   1  22
TORSDOF 9
ENDMDL
MODEL 8
REMARK VINA RESULT:      -6.8      3.432      8.438
REMARK  Name = 
REMARK  12 active torsions:
REMARK  status: ('A' for Active; 'I' for Inactive)
REMARK    1  A    between atoms: C_1  and  C_2
REMARK    2  A    between atoms: C_2  and  C_3
REMARK    3  A    between atoms: C_2  and  C_4
REMARK    4  A    between atoms: C_4  and  N_5
REMARK    5  A    between atoms: N_5  and  C_6
REMARK    6  A    between atoms: N_5  and  C_7
REMARK    7  A    between atoms: C_7  and  C_8
REMARK    8  A    between atoms: C_10  and  C_11
REMARK    9  A    between atoms: C_11  and  C_13
REMARK   10  A    between atoms: C_16  and  S_17
REMARK   11  A    between atoms: S_17  and  N_18
REMARK   12  A    between atoms: C_24  and  O_25
REMARK                            x       y       z     vdW  Elec       q    Type
REMARK                         _______ _______ _______ _____ _____    ______ ____
ROOT
ATOM      1  C   UNL     1      -0.198  10.193  20.323  0.00  0.00    +0.000 A 
ATOM      2  C   UNL     1       0.493   9.757  19.184  0.00  0.00    +0.000 A 
ATOM      3  C   UNL     1       1.455   8.733  19.271  0.00  0.00    +0.000 A 
ATOM      4  C   UNL     1       1.702   8.145  20.525  0.00  0.00    +0.000 A 
ATOM      5  C   UNL     1       1.023   8.579  21.663  0.00  0.00    +0.000 A 
ATOM      6  C   UNL     1       0.080   9.608  21.574  0.00  0.00    +0.000 A 
ENDROOT
BRANCH   3   7
ATOM      7  C   UNL     1       2.255   8.361  18.079  0.00  0.00    +0.000 C 
ATOM      8  O   UNL     1       2.400   9.191  17.187  0.00  0.00    +0.000 OA
BRANCH   7   9
ATOM      9  C   UNL     1       2.938   7.058  17.933  0.00  0.00    +0.000 A 
ATOM     10  C   UNL     1       2.351   5.848  18.311  0.00  0.00    +0.000 A 
ATOM     11  S   UNL     1       3.455   4.608  18.042  0.00  0.00    +0.000 S 
ATOM     12  C   UNL     1       4.686   5.598  17.479  0.00  0.00    +0.000 A 
ATOM     13  C   UNL     1       4.253   6.911  17.464  0.00  0.00    +0.000 A 
BRANCH  12  14
ATOM     14  S   UNL     1       6.334   5.049  17.057  0.00  0.00    +0.000 S 
ATOM     15  O   UNL     1       7.074   4.447  18.261  0.00  0.00    +0.000 OA
ATOM     16  O   UNL     1       6.332   3.872  16.072  0.00  0.00    +0.000 OA
BRANCH  14  17
ATOM     17  N   UNL     1       7.458   6.220  16.363  0.00  0.00    +0.000 NA
ATOM     18  H   UNL     1       6.915   7.080  16.128  0.00  0.00    +0.000 HD
ATOM     19  H   UNL     1       7.834   5.813  15.478  0.00  0.00    +0.000 HD
ENDBRANCH  14  17
ENDBRANCH  12  14
ENDBRANCH   7   9
ENDBRANCH   3   7
BRANCH   6  20
ATOM     20  O   UNL     1      -0.546  10.055  22.682  0.00  0.00    +0.000 OA
ATOM     21  H   UNL     1      -0.902  10.955  22.744  0.00  0.00    +0.000 HD
ENDBRANCH   6  20
BRANCH   1  22
ATOM     22  C   UNL     1      -1.177  11.344  20.210  0.00  0.00    +0.000 C 
BRANCH  22  23
ATOM     23  N   UNL     1      -0.828  12.193  19.054  0.00  0.00    +0.000 NA
ATOM     24  C   UNL     1      -0.728  13.606  19.470  0.00  0.00    +0.000 C 
BRANCH  23  25
ATOM     25  C   UNL     1      -1.815  12.023  17.958  0.00  0.00    +0.000 C 
BRANCH  25  27
ATOM     26  C   UNL     1      -4.310  11.620  18.186  0.00  0.00    +0.000 C 
ATOM     27  C   UNL     1      -2.910  10.986  18.272  0.00  0.00    +0.000 C 
ATOM     28  C   UNL     1      -2.804   9.820  17.281  0.00  0.00    +0.000 C 
ENDBRANCH  25  27
ENDBRANCH  23  25
ENDBRANCH  22  23
ENDBRANCH   1  22
TORSDOF 9
ENDMDL
MODEL 9
REMARK VINA RESULT:      -6.8      3.503      7.968
REMARK  Name = 
REMARK  12 active torsions:
REMARK  status: ('A' for Active; 'I' for Inactive)
REMARK    1  A    between atoms: C_1  and  C_2
REMARK    2  A    between atoms: C_2  and  C_3
REMARK    3  A    between atoms: C_2  and  C_4
REMARK    4  A    between atoms: C_4  and  N_5
REMARK    5  A    between atoms: N_5  and  C_6
REMARK    6  A    between atoms: N_5  and  C_7
REMARK    7  A    between atoms: C_7  and  C_8
REMARK    8  A    between atoms: C_10  and  C_11
REMARK    9  A    between atoms: C_11  and  C_13
REMARK   10  A    between atoms: C_16  and  S_17
REMARK   11  A    between atoms: S_17  and  N_18
REMARK   12  A    between atoms: C_24  and  O_25
REMARK                            x       y       z     vdW  Elec       q    Type
REMARK                         _______ _______ _______ _____ _____    ______ ____
ROOT
ATOM      1  C   UNL     1       0.406  10.594  20.702  0.00  0.00    +0.000 A 
ATOM      2  C   UNL     1       0.910  10.053  19.511  0.00  0.00    +0.000 A 
ATOM      3  C   UNL     1       1.522   8.785  19.498  0.00  0.00    +0.000 A 
ATOM      4  C   UNL     1       1.607   8.064  20.702  0.00  0.00    +0.000 A 
ATOM      5  C   UNL     1       1.113   8.600  21.891  0.00  0.00    +0.000 A 
ATOM      6  C   UNL     1       0.521   9.867  21.903  0.00  0.00    +0.000 A 
ENDROOT
BRANCH   3   7
ATOM      7  C   UNL     1       2.149   8.276  18.254  0.00  0.00    +0.000 C 
ATOM      8  O   UNL     1       2.180   9.007  17.269  0.00  0.00    +0.000 OA
BRANCH   7   9
ATOM      9  C   UNL     1       2.793   6.948  18.154  0.00  0.00    +0.000 A 
ATOM     10  C   UNL     1       4.036   6.753  17.547  0.00  0.00    +0.000 A 
ATOM     11  S   UNL     1       4.400   5.112  17.583  0.00  0.00    +0.000 S 
ATOM     12  C   UNL     1       2.976   4.640  18.335  0.00  0.00    +0.000 A 
ATOM     13  C   UNL     1       2.201   5.755  18.597  0.00  0.00    +0.000 A 
BRANCH  12  14
ATOM     14  S   UNL     1       2.496   2.950  18.657  0.00  0.00    +0.000 S 
ATOM     15  O   UNL     1       3.339   1.941  17.860  0.00  0.00    +0.000 OA
ATOM     16  O   UNL     1       2.779   2.519  20.103  0.00  0.00    +0.000 OA
BRANCH  14  17
ATOM     17  N   UNL     1       0.820   2.481  18.364  0.00  0.00    +0.000 NA
ATOM     18  H   UNL     1       0.560   1.768  19.080  0.00  0.00    +0.000 HD
ATOM     19  H   UNL     1       0.774   2.036  17.421  0.00  0.00    +0.000 HD
ENDBRANCH  14  17
ENDBRANCH  12  14
ENDBRANCH   7   9
ENDBRANCH   3   7
BRANCH   6  20
ATOM     20  O   UNL     1       0.080  10.402  23.060  0.00  0.00    +0.000 OA
ATOM     21  H   UNL     1      -0.055   9.865  23.856  0.00  0.00    +0.000 HD
ENDBRANCH   6  20
BRANCH   1  22
ATOM     22  C   UNL     1      -0.185  11.990  20.698  0.00  0.00    +0.000 C 
BRANCH  22  23
ATOM     23  N   UNL     1       0.652  12.895  21.509  0.00  0.00    +0.000 NA
ATOM     24  C   UNL     1      -0.195  13.877  22.215  0.00  0.00    +0.000 C 
BRANCH  23  25
ATOM     25  C   UNL     1       1.670  13.569  20.665  0.00  0.00    +0.000 C 
BRANCH  25  27
ATOM     26  C   UNL     1       0.918  15.233  18.903  0.00  0.00    +0.000 C 
ATOM     27  C   UNL     1       1.229  13.756  19.201  0.00  0.00    +0.000 C 
ATOM     28  C   UNL     1       2.341  13.258  18.268  0.00  0.00    +0.000 C 
ENDBRANCH  25  27
ENDBRANCH  23  25
ENDBRANCH  22  23
ENDBRANCH   1  22
TORSDOF 9
ENDMDL
