MODEL 1
REMARK VINA RESULT:      -7.7      0.000      0.000
REMARK  Name = 
REMARK  2 active torsions:
REMARK  status: ('A' for Active; 'I' for Inactive)
REMARK    1  A    between atoms: O_1  and  C_2
REMARK    2  A    between atoms: C_4  and  C_5
REMARK                            x       y       z     vdW  Elec       q    Type
REMARK                         _______ _______ _______ _____ _____    ______ ____
ROOT
ATOM      1  C   UNL     1       6.713   4.599  18.166  0.00  0.00    +0.000 A 
ATOM      2  N   UNL     1       5.809   4.306  19.105  0.00  0.00    +0.000 NA
ATOM      3  C   UNL     1       4.607   3.921  18.640  0.00  0.00    +0.000 A 
ATOM      4  N   UNL     1       4.288   3.816  17.334  0.00  0.00    +0.000 NA
ATOM      5  C   UNL     1       5.228   4.131  16.429  0.00  0.00    +0.000 A 
ATOM      6  C   UNL     1       4.930   4.064  15.074  0.00  0.00    +0.000 A 
ATOM      7  C   UNL     1       5.872   4.400  14.093  0.00  0.00    +0.000 A 
ATOM      8  C   UNL     1       7.148   4.805  14.468  0.00  0.00    +0.000 A 
ATOM      9  C   UNL     1       7.474   4.874  15.819  0.00  0.00    +0.000 A 
ATOM     10  C   UNL     1       6.509   4.543  16.797  0.00  0.00    +0.000 A 
ENDROOT
BRANCH   3  11
ATOM     11  C   UNL     1       3.549   3.637  19.629  0.00  0.00    +0.000 A 
ATOM     12  C   UNL     1       3.697   2.623  20.600  0.00  0.00    +0.000 A 
ATOM     13  C   UNL     1       2.683   2.330  21.520  0.00  0.00    +0.000 A 
ATOM     14  C   UNL     1       1.493   3.048  21.489  0.00  0.00    +0.000 A 
ATOM     15  C   UNL     1       1.332   4.054  20.547  0.00  0.00    +0.000 A 
ATOM     16  F   UNL     1       0.186   4.747  20.513  0.00  0.00    +0.000 F 
ATOM     17  C   UNL     1       2.337   4.352  19.632  0.00  0.00    +0.000 A 
ENDBRANCH   3  11
BRANCH   1  18
ATOM     18  O   UNL     1       7.906   4.999  18.685  0.00  0.00    +0.000 OA
ATOM     19  H   UNL     1       8.196   4.175  19.118  0.00  0.00    +0.000 HD
ENDBRANCH   1  18
TORSDOF 2
ENDMDL
MODEL 2
REMARK VINA RESULT:      -7.6      3.050      6.461
REMARK  Name = 
REMARK  2 active torsions:
REMARK  status: ('A' for Active; 'I' for Inactive)
REMARK    1  A    between atoms: O_1  and  C_2
REMARK    2  A    between atoms: C_4  and  C_5
REMARK                            x       y       z     vdW  Elec       q    Type
REMARK                         _______ _______ _______ _____ _____    ______ ____
ROOT
ATOM      1  C   UNL     1       5.628   4.515  18.283  0.00  0.00    +0.000 A 
ATOM      2  N   UNL     1       6.214   4.590  17.086  0.00  0.00    +0.000 NA
ATOM      3  C   UNL     1       5.413   4.319  16.040  0.00  0.00    +0.000 A 
ATOM      4  N   UNL     1       4.106   3.999  16.138  0.00  0.00    +0.000 NA
ATOM      5  C   UNL     1       3.566   3.929  17.363  0.00  0.00    +0.000 A 
ATOM      6  C   UNL     1       2.231   3.573  17.509  0.00  0.00    +0.000 A 
ATOM      7  C   UNL     1       1.627   3.468  18.768  0.00  0.00    +0.000 A 
ATOM      8  C   UNL     1       2.367   3.732  19.915  0.00  0.00    +0.000 A 
ATOM      9  C   UNL     1       3.704   4.097  19.796  0.00  0.00    +0.000 A 
ATOM     10  C   UNL     1       4.302   4.187  18.520  0.00  0.00    +0.000 A 
ENDROOT
BRANCH   3  11
ATOM     11  C   UNL     1       6.017   4.332  14.693  0.00  0.00    +0.000 A 
ATOM     12  C   UNL     1       5.481   3.569  13.634  0.00  0.00    +0.000 A 
ATOM     13  C   UNL     1       6.070   3.554  12.364  0.00  0.00    +0.000 A 
ATOM     14  C   UNL     1       7.214   4.307  12.124  0.00  0.00    +0.000 A 
ATOM     15  C   UNL     1       7.751   5.070  13.150  0.00  0.00    +0.000 A 
ATOM     16  F   UNL     1       8.855   5.796  12.923  0.00  0.00    +0.000 F 
ATOM     17  C   UNL     1       7.169   5.091  14.414  0.00  0.00    +0.000 A 
ENDBRANCH   3  11
BRANCH   1  18
ATOM     18  O   UNL     1       6.482   4.780  19.310  0.00  0.00    +0.000 OA
ATOM     19  H   UNL     1       6.988   3.947  19.339  0.00  0.00    +0.000 HD
ENDBRANCH   1  18
TORSDOF 2
ENDMDL
MODEL 3
REMARK VINA RESULT:      -7.6      2.483      6.090
REMARK  Name = 
REMARK  2 active torsions:
REMARK  status: ('A' for Active; 'I' for Inactive)
REMARK    1  A    between atoms: O_1  and  C_2
REMARK    2  A    between atoms: C_4  and  C_5
REMARK                            x       y       z     vdW  Elec       q    Type
REMARK                         _______ _______ _______ _____ _____    ______ ____
ROOT
ATOM      1  C   UNL     1       4.586   2.604  19.938  0.00  0.00    +0.000 A 
ATOM      2  N   UNL     1       5.334   2.947  18.886  0.00  0.00    +0.000 NA
ATOM      3  C   UNL     1       4.730   3.751  17.994  0.00  0.00    +0.000 A 
ATOM      4  N   UNL     1       3.468   4.212  18.108  0.00  0.00    +0.000 NA
ATOM      5  C   UNL     1       2.754   3.832  19.179  0.00  0.00    +0.000 A 
ATOM      6  C   UNL     1       1.440   4.261  19.318  0.00  0.00    +0.000 A 
ATOM      7  C   UNL     1       0.649   3.876  20.408  0.00  0.00    +0.000 A 
ATOM      8  C   UNL     1       1.180   3.049  21.392  0.00  0.00    +0.000 A 
ATOM      9  C   UNL     1       2.496   2.611  21.279  0.00  0.00    +0.000 A 
ATOM     10  C   UNL     1       3.277   2.999  20.167  0.00  0.00    +0.000 A 
ENDROOT
BRANCH   3  11
ATOM     11  C   UNL     1       5.488   4.121  16.782  0.00  0.00    +0.000 A 
ATOM     12  C   UNL     1       6.737   4.772  16.860  0.00  0.00    +0.000 A 
ATOM     13  C   UNL     1       7.443   5.151  15.712  0.00  0.00    +0.000 A 
ATOM     14  C   UNL     1       6.914   4.885  14.455  0.00  0.00    +0.000 A 
ATOM     15  C   UNL     1       5.691   4.237  14.358  0.00  0.00    +0.000 A 
ATOM     16  F   UNL     1       5.176   3.981  13.147  0.00  0.00    +0.000 F 
ATOM     17  C   UNL     1       4.985   3.856  15.494  0.00  0.00    +0.000 A 
ENDBRANCH   3  11
BRANCH   1  18
ATOM     18  O   UNL     1       5.234   1.777  20.803  0.00  0.00    +0.000 OA
ATOM     19  H   UNL     1       4.614   1.784  21.554  0.00  0.00    +0.000 HD
ENDBRANCH   1  18
TORSDOF 2
ENDMDL
MODEL 4
REMARK VINA RESULT:      -7.5      1.102      1.372
REMARK  Name = 
REMARK  2 active torsions:
REMARK  status: ('A' for Active; 'I' for Inactive)
REMARK    1  A    between atoms: O_1  and  C_2
REMARK    2  A    between atoms: C_4  and  C_5
REMARK                            x       y       z     vdW  Elec       q    Type
REMARK                         _______ _______ _______ _____ _____    ______ ____
ROOT
ATOM      1  C   UNL     1       6.513   4.503  17.934  0.00  0.00    +0.000 A 
ATOM      2  N   UNL     1       5.492   4.165  18.727  0.00  0.00    +0.000 NA
ATOM      3  C   UNL     1       4.364   3.810  18.087  0.00  0.00    +0.000 A 
ATOM      4  N   UNL     1       4.223   3.775  16.746  0.00  0.00    +0.000 NA
ATOM      5  C   UNL     1       5.274   4.132  15.993  0.00  0.00    +0.000 A 
ATOM      6  C   UNL     1       5.160   4.137  14.608  0.00  0.00    +0.000 A 
ATOM      7  C   UNL     1       6.223   4.519  13.781  0.00  0.00    +0.000 A 
ATOM      8  C   UNL     1       7.437   4.898  14.343  0.00  0.00    +0.000 A 
ATOM      9  C   UNL     1       7.579   4.896  15.727  0.00  0.00    +0.000 A 
ATOM     10  C   UNL     1       6.494   4.518  16.548  0.00  0.00    +0.000 A 
ENDROOT
BRANCH   3  11
ATOM     11  C   UNL     1       3.184   3.479  18.910  0.00  0.00    +0.000 A 
ATOM     12  C   UNL     1       1.979   3.032  18.329  0.00  0.00    +0.000 A 
ATOM     13  C   UNL     1       0.849   2.747  19.104  0.00  0.00    +0.000 A 
ATOM     14  C   UNL     1       0.900   2.903  20.485  0.00  0.00    +0.000 A 
ATOM     15  C   UNL     1       2.079   3.333  21.075  0.00  0.00    +0.000 A 
ATOM     16  F   UNL     1       2.132   3.487  22.406  0.00  0.00    +0.000 F 
ATOM     17  C   UNL     1       3.206   3.616  20.310  0.00  0.00    +0.000 A 
ENDBRANCH   3  11
BRANCH   1  18
ATOM     18  O   UNL     1       7.625   4.869  18.628  0.00  0.00    +0.000 OA
ATOM     19  H   UNL     1       8.306   4.361  18.152  0.00  0.00    +0.000 HD
ENDBRANCH   1  18
TORSDOF 2
ENDMDL
MODEL 5
REMARK VINA RESULT:      -7.4      3.004      6.497
REMARK  Name = 
REMARK  2 active torsions:
REMARK  status: ('A' for Active; 'I' for Inactive)
REMARK    1  A    between atoms: O_1  and  C_2
REMARK    2  A    between atoms: C_4  and  C_5
REMARK                            x       y       z     vdW  Elec       q    Type
REMARK                         _______ _______ _______ _____ _____    ______ ____
ROOT
ATOM      1  C   UNL     1       1.859   3.876  17.792  0.00  0.00    +0.000 A 
ATOM      2  N   UNL     1       2.845   4.115  16.923  0.00  0.00    +0.000 NA
ATOM      3  C   UNL     1       4.085   3.873  17.386  0.00  0.00    +0.000 A 
ATOM      4  N   UNL     1       4.366   3.417  18.623  0.00  0.00    +0.000 NA
ATOM      5  C   UNL     1       3.341   3.200  19.461  0.00  0.00    +0.000 A 
ATOM      6  C   UNL     1       3.590   2.758  20.755  0.00  0.00    +0.000 A 
ATOM      7  C   UNL     1       2.555   2.536  21.672  0.00  0.00    +0.000 A 
ATOM      8  C   UNL     1       1.235   2.750  21.292  0.00  0.00    +0.000 A 
ATOM      9  C   UNL     1       0.959   3.187  20.000  0.00  0.00    +0.000 A 
ATOM     10  C   UNL     1       2.014   3.417  19.090  0.00  0.00    +0.000 A 
ENDROOT
BRANCH   3  11
ATOM     11  C   UNL     1       5.220   4.171  16.490  0.00  0.00    +0.000 A 
ATOM     12  C   UNL     1       6.395   4.792  16.965  0.00  0.00    +0.000 A 
ATOM     13  C   UNL     1       7.460   5.104  16.113  0.00  0.00    +0.000 A 
ATOM     14  C   UNL     1       7.375   4.798  14.759  0.00  0.00    +0.000 A 
ATOM     15  C   UNL     1       6.232   4.179  14.275  0.00  0.00    +0.000 A 
ATOM     16  F   UNL     1       6.144   3.885  12.970  0.00  0.00    +0.000 F 
ATOM     17  C   UNL     1       5.170   3.865  15.117  0.00  0.00    +0.000 A 
ENDBRANCH   3  11
BRANCH   1  18
ATOM     18  O   UNL     1       0.627   4.151  17.284  0.00  0.00    +0.000 OA
ATOM     19  H   UNL     1       0.076   3.554  17.822  0.00  0.00    +0.000 HD
ENDBRANCH   1  18
TORSDOF 2
ENDMDL
MODEL 6
REMARK VINA RESULT:      -7.4      2.775      6.276
REMARK  Name = 
REMARK  2 active torsions:
REMARK  status: ('A' for Active; 'I' for Inactive)
REMARK    1  A    between atoms: O_1  and  C_2
REMARK    2  A    between atoms: C_4  and  C_5
REMARK                            x       y       z     vdW  Elec       q    Type
REMARK                         _______ _______ _______ _____ _____    ______ ____
ROOT
ATOM      1  C   UNL     1       5.356   4.624  18.583  0.00  0.00    +0.000 A 
ATOM      2  N   UNL     1       5.998   4.643  17.412  0.00  0.00    +0.000 NA
ATOM      3  C   UNL     1       5.233   4.381  16.338  0.00  0.00    +0.000 A 
ATOM      4  N   UNL     1       3.911   4.119  16.383  0.00  0.00    +0.000 NA
ATOM      5  C   UNL     1       3.313   4.104  17.584  0.00  0.00    +0.000 A 
ATOM      6  C   UNL     1       1.959   3.809  17.677  0.00  0.00    +0.000 A 
ATOM      7  C   UNL     1       1.296   3.763  18.909  0.00  0.00    +0.000 A 
ATOM      8  C   UNL     1       1.994   4.024  20.083  0.00  0.00    +0.000 A 
ATOM      9  C   UNL     1       3.350   4.328  20.017  0.00  0.00    +0.000 A 
ATOM     10  C   UNL     1       4.008   4.360  18.767  0.00  0.00    +0.000 A 
ENDROOT
BRANCH   3  11
ATOM     11  C   UNL     1       5.897   4.333  15.020  0.00  0.00    +0.000 A 
ATOM     12  C   UNL     1       7.076   5.062  14.758  0.00  0.00    +0.000 A 
ATOM     13  C   UNL     1       7.690   5.043  13.500  0.00  0.00    +0.000 A 
ATOM     14  C   UNL     1       7.136   4.290  12.471  0.00  0.00    +0.000 A 
ATOM     15  C   UNL     1       5.982   3.559  12.712  0.00  0.00    +0.000 A 
ATOM     16  F   UNL     1       5.443   2.833  11.723  0.00  0.00    +0.000 F 
ATOM     17  C   UNL     1       5.368   3.572  13.961  0.00  0.00    +0.000 A 
ENDBRANCH   3  11
BRANCH   1  18
ATOM     18  O   UNL     1       6.174   4.879  19.641  0.00  0.00    +0.000 OA
ATOM     19  H   UNL     1       6.995   4.449  19.338  0.00  0.00    +0.000 HD
ENDBRANCH   1  18
TORSDOF 2
ENDMDL
MODEL 7
REMARK VINA RESULT:      -7.4      3.455      6.666
REMARK  Name = 
REMARK  2 active torsions:
REMARK  status: ('A' for Active; 'I' for Inactive)
REMARK    1  A    between atoms: O_1  and  C_2
REMARK    2  A    between atoms: C_4  and  C_5
REMARK                            x       y       z     vdW  Elec       q    Type
REMARK                         _______ _______ _______ _____ _____    ______ ____
ROOT
ATOM      1  C   UNL     1       4.250   3.414  17.613  0.00  0.00    +0.000 A 
ATOM      2  N   UNL     1       4.961   3.316  16.487  0.00  0.00    +0.000 NA
ATOM      3  C   UNL     1       5.175   4.477  15.844  0.00  0.00    +0.000 A 
ATOM      4  N   UNL     1       4.734   5.680  16.266  0.00  0.00    +0.000 NA
ATOM      5  C   UNL     1       4.018   5.725  17.399  0.00  0.00    +0.000 A 
ATOM      6  C   UNL     1       3.520   6.940  17.852  0.00  0.00    +0.000 A 
ATOM      7  C   UNL     1       2.752   7.035  19.019  0.00  0.00    +0.000 A 
ATOM      8  C   UNL     1       2.477   5.893  19.763  0.00  0.00    +0.000 A 
ATOM      9  C   UNL     1       2.968   4.664  19.333  0.00  0.00    +0.000 A 
ATOM     10  C   UNL     1       3.733   4.583  18.148  0.00  0.00    +0.000 A 
ENDROOT
BRANCH   3  11
ATOM     11  C   UNL     1       5.907   4.426  14.562  0.00  0.00    +0.000 A 
ATOM     12  C   UNL     1       5.490   3.590  13.505  0.00  0.00    +0.000 A 
ATOM     13  C   UNL     1       6.200   3.516  12.301  0.00  0.00    +0.000 A 
ATOM     14  C   UNL     1       7.348   4.281  12.126  0.00  0.00    +0.000 A 
ATOM     15  C   UNL     1       7.768   5.116  13.151  0.00  0.00    +0.000 A 
ATOM     16  F   UNL     1       8.875   5.854  12.988  0.00  0.00    +0.000 F 
ATOM     17  C   UNL     1       7.066   5.195  14.350  0.00  0.00    +0.000 A 
ENDBRANCH   3  11
BRANCH   1  18
ATOM     18  O   UNL     1       4.046   2.211  18.218  0.00  0.00    +0.000 OA
ATOM     19  H   UNL     1       3.347   2.449  18.854  0.00  0.00    +0.000 HD
ENDBRANCH   1  18
TORSDOF 2
ENDMDL
MODEL 8
REMARK VINA RESULT:      -7.4      1.379      1.465
REMARK  Name = 
REMARK  2 active torsions:
REMARK  status: ('A' for Active; 'I' for Inactive)
REMARK    1  A    between atoms: O_1  and  C_2
REMARK    2  A    between atoms: C_4  and  C_5
REMARK                            x       y       z     vdW  Elec       q    Type
REMARK                         _______ _______ _______ _____ _____    ______ ____
ROOT
ATOM      1  C   UNL     1       6.420   5.365  17.483  0.00  0.00    +0.000 A 
ATOM      2  N   UNL     1       5.422   5.151  18.344  0.00  0.00    +0.000 NA
ATOM      3  C   UNL     1       4.367   4.486  17.842  0.00  0.00    +0.000 A 
ATOM      4  N   UNL     1       4.276   4.040  16.572  0.00  0.00    +0.000 NA
ATOM      5  C   UNL     1       5.301   4.287  15.743  0.00  0.00    +0.000 A 
ATOM      6  C   UNL     1       5.233   3.870  14.420  0.00  0.00    +0.000 A 
ATOM      7  C   UNL     1       6.270   4.121  13.512  0.00  0.00    +0.000 A 
ATOM      8  C   UNL     1       7.409   4.798  13.932  0.00  0.00    +0.000 A 
ATOM      9  C   UNL     1       7.504   5.221  15.254  0.00  0.00    +0.000 A 
ATOM     10  C   UNL     1       6.446   4.970  16.155  0.00  0.00    +0.000 A 
ENDROOT
BRANCH   3  11
ATOM     11  C   UNL     1       3.209   4.267  18.731  0.00  0.00    +0.000 A 
ATOM     12  C   UNL     1       3.092   4.930  19.971  0.00  0.00    +0.000 A 
ATOM     13  C   UNL     1       2.011   4.701  20.830  0.00  0.00    +0.000 A 
ATOM     14  C   UNL     1       1.017   3.800  20.465  0.00  0.00    +0.000 A 
ATOM     15  C   UNL     1       1.110   3.144  19.246  0.00  0.00    +0.000 A 
ATOM     16  F   UNL     1       0.155   2.273  18.892  0.00  0.00    +0.000 F 
ATOM     17  C   UNL     1       2.181   3.369  18.387  0.00  0.00    +0.000 A 
ENDBRANCH   3  11
BRANCH   1  18
ATOM     18  O   UNL     1       7.456   6.056  18.032  0.00  0.00    +0.000 OA
ATOM     19  H   UNL     1       8.039   5.321  18.297  0.00  0.00    +0.000 HD
ENDBRANCH   1  18
TORSDOF 2
ENDMDL
MODEL 9
REMARK VINA RESULT:      -7.3      1.831      2.559
REMARK  Name = 
REMARK  2 active torsions:
REMARK  status: ('A' for Active; 'I' for Inactive)
REMARK    1  A    between atoms: O_1  and  C_2
REMARK    2  A    between atoms: C_4  and  C_5
REMARK                            x       y       z     vdW  Elec       q    Type
REMARK                         _______ _______ _______ _____ _____    ______ ____
ROOT
ATOM      1  C   UNL     1       6.752   5.480  16.059  0.00  0.00    +0.000 A 
ATOM      2  N   UNL     1       5.881   5.102  16.998  0.00  0.00    +0.000 NA
ATOM      3  C   UNL     1       4.991   4.172  16.610  0.00  0.00    +0.000 A 
ATOM      4  N   UNL     1       4.943   3.623  15.378  0.00  0.00    +0.000 NA
ATOM      5  C   UNL     1       5.835   4.042  14.468  0.00  0.00    +0.000 A 
ATOM      6  C   UNL     1       5.801   3.523  13.180  0.00  0.00    +0.000 A 
ATOM      7  C   UNL     1       6.699   3.942  12.190  0.00  0.00    +0.000 A 
ATOM      8  C   UNL     1       7.664   4.897  12.490  0.00  0.00    +0.000 A 
ATOM      9  C   UNL     1       7.723   5.428  13.774  0.00  0.00    +0.000 A 
ATOM     10  C   UNL     1       6.803   5.003  14.759  0.00  0.00    +0.000 A 
ENDROOT
BRANCH   3  11
ATOM     11  C   UNL     1       3.966   3.754  17.587  0.00  0.00    +0.000 A 
ATOM     12  C   UNL     1       2.588   3.861  17.305  0.00  0.00    +0.000 A 
ATOM     13  C   UNL     1       1.614   3.495  18.241  0.00  0.00    +0.000 A 
ATOM     14  C   UNL     1       1.999   3.011  19.487  0.00  0.00    +0.000 A 
ATOM     15  C   UNL     1       3.350   2.891  19.779  0.00  0.00    +0.000 A 
ATOM     16  F   UNL     1       3.725   2.426  20.979  0.00  0.00    +0.000 F 
ATOM     17  C   UNL     1       4.322   3.251  18.852  0.00  0.00    +0.000 A 
ENDBRANCH   3  11
BRANCH   1  18
ATOM     18  O   UNL     1       7.621   6.434  16.494  0.00  0.00    +0.000 OA
ATOM     19  H   UNL     1       7.434   7.148  15.858  0.00  0.00    +0.000 HD
ENDBRANCH   1  18
TORSDOF 2
ENDMDL
