MODEL 1
REMARK VINA RESULT:      -6.5      0.000      0.000
REMARK  Name = 
REMARK  8 active torsions:
REMARK  status: ('A' for Active; 'I' for Inactive)
REMARK    1  A    between atoms: C_1  and  C_2
REMARK    2  A    between atoms: C_2  and  N_3
REMARK    3  A    between atoms: N_3  and  C_4
REMARK    4  A    between atoms: N_3  and  C_6
REMARK    5  A    between atoms: C_4  and  C_5
REMARK    6  A    between atoms: C_6  and  C_7
REMARK    7  A    between atoms: C_10  and  C_11
REMARK    8  A    between atoms: C_14  and  N_15
REMARK                            x       y       z     vdW  Elec       q    Type
REMARK                         _______ _______ _______ _____ _____    ______ ____
ROOT
ATOM      1  C   UNL     1       3.948   4.218  17.580  0.00  0.00    +0.000 C 
ATOM      2  C   UNL     1       4.227   4.019  19.059  0.00  0.00    +0.000 C 
ATOM      3  N   UNL     1       3.552   5.146  19.719  0.00  0.00    +0.000 NA
ATOM      4  C   UNL     1       3.293   5.958  18.742  0.00  0.00    +0.000 C 
ATOM      5  O   UNL     1       3.634   5.606  17.481  0.00  0.00    +0.000 OA
ENDROOT
BRANCH   4   6
ATOM      6  C   UNL     1       2.607   7.256  18.867  0.00  0.00    +0.000 A 
ATOM      7  C   UNL     1       1.971   7.561  20.079  0.00  0.00    +0.000 A 
ATOM      8  C   UNL     1       1.217   8.731  20.209  0.00  0.00    +0.000 A 
ATOM      9  C   UNL     1       1.102   9.598  19.114  0.00  0.00    +0.000 A 
ATOM     10  C   UNL     1       1.760   9.318  17.908  0.00  0.00    +0.000 A 
ATOM     11  C   UNL     1       2.515   8.145  17.788  0.00  0.00    +0.000 A 
BRANCH   9  12
ATOM     12  N   UNL     1       0.260  10.795  19.223  0.00  0.00    +0.000 N 
ATOM     13  O   UNL     1       0.770  11.888  18.929  0.00  0.00    +0.000 OA
ATOM     14  O   UNL     1      -0.908  10.647  19.607  0.00  0.00    +0.000 OA
ENDBRANCH   9  12
ENDBRANCH   4   6
BRANCH   1  15
ATOM     15  C   UNL     1       5.132   3.864  16.669  0.00  0.00    +0.000 C 
BRANCH  15  16
ATOM     16  N   UNL     1       6.166   4.911  16.520  0.00  0.00    +0.000 NA
BRANCH  16  18
ATOM     17  C   UNL     1       7.570   5.793  18.429  0.00  0.00    +0.000 C 
ATOM     18  C   UNL     1       7.317   4.685  17.410  0.00  0.00    +0.000 C 
ENDBRANCH  16  18
BRANCH  16  19
ATOM     19  C   UNL     1       6.528   5.101  15.104  0.00  0.00    +0.000 C 
ATOM     20  C   UNL     1       6.103   3.992  14.144  0.00  0.00    +0.000 C 
ENDBRANCH  16  19
ENDBRANCH  15  16
ENDBRANCH   1  15
TORSDOF 6
ENDMDL
MODEL 2
REMARK VINA RESULT:      -6.3      0.477      1.307
REMARK  Name = 
REMARK  8 active torsions:
REMARK  status: ('A' for Active; 'I' for Inactive)
REMARK    1  A    between atoms: C_1  and  C_2
REMARK    2  A    between atoms: C_2  and  N_3
REMARK    3  A    between atoms: N_3  and  C_4
REMARK    4  A    between atoms: N_3  and  C_6
REMARK    5  A    between atoms: C_4  and  C_5
REMARK    6  A    between atoms: C_6  and  C_7
REMARK    7  A    between atoms: C_10  and  C_11
REMARK    8  A    between atoms: C_14  and  N_15
REMARK                            x       y       z     vdW  Elec       q    Type
REMARK                         _______ _______ _______ _____ _____    ______ ____
ROOT
ATOM      1  C   UNL     1       3.776   4.129  17.769  0.00  0.00    +0.000 C 
ATOM      2  C   UNL     1       4.247   4.027  19.209  0.00  0.00    +0.000 C 
ATOM      3  N   UNL     1       3.577   5.140  19.899  0.00  0.00    +0.000 NA
ATOM      4  C   UNL     1       3.142   5.880  18.927  0.00  0.00    +0.000 C 
ATOM      5  O   UNL     1       3.351   5.485  17.649  0.00  0.00    +0.000 OA
ENDROOT
BRANCH   4   6
ATOM      6  C   UNL     1       2.384   7.133  19.079  0.00  0.00    +0.000 A 
ATOM      7  C   UNL     1       2.291   7.996  17.978  0.00  0.00    +0.000 A 
ATOM      8  C   UNL     1       1.676   9.245  18.105  0.00  0.00    +0.000 A 
ATOM      9  C   UNL     1       1.150   9.627  19.347  0.00  0.00    +0.000 A 
ATOM     10  C   UNL     1       1.209   8.759  20.445  0.00  0.00    +0.000 A 
ATOM     11  C   UNL     1       1.825   7.510  20.308  0.00  0.00    +0.000 A 
BRANCH   9  12
ATOM     12  N   UNL     1       0.559  10.962  19.504  0.00  0.00    +0.000 N 
ATOM     13  O   UNL     1       0.029  11.233  20.593  0.00  0.00    +0.000 OA
ATOM     14  O   UNL     1       0.619  11.737  18.540  0.00  0.00    +0.000 OA
ENDBRANCH   9  12
ENDBRANCH   4   6
BRANCH   1  15
ATOM     15  C   UNL     1       4.863   3.808  16.733  0.00  0.00    +0.000 C 
BRANCH  15  16
ATOM     16  N   UNL     1       5.811   4.903  16.434  0.00  0.00    +0.000 NA
BRANCH  16  18
ATOM     17  C   UNL     1       7.544   5.489  18.180  0.00  0.00    +0.000 C 
ATOM     18  C   UNL     1       7.154   4.636  16.975  0.00  0.00    +0.000 C 
ENDBRANCH  16  18
BRANCH  16  19
ATOM     19  C   UNL     1       5.796   5.240  14.999  0.00  0.00    +0.000 C 
ATOM     20  C   UNL     1       6.139   4.106  14.035  0.00  0.00    +0.000 C 
ENDBRANCH  16  19
ENDBRANCH  15  16
ENDBRANCH   1  15
TORSDOF 6
ENDMDL
MODEL 3
REMARK VINA RESULT:      -6.3      2.476      7.158
REMARK  Name = 
REMARK  8 active torsions:
REMARK  status: ('A' for Active; 'I' for Inactive)
REMARK    1  A    between atoms: C_1  and  C_2
REMARK    2  A    between atoms: C_2  and  N_3
REMARK    3  A    between atoms: N_3  and  C_4
REMARK    4  A    between atoms: N_3  and  C_6
REMARK    5  A    between atoms: C_4  and  C_5
REMARK    6  A    between atoms: C_6  and  C_7
REMARK    7  A    between atoms: C_10  and  C_11
REMARK    8  A    between atoms: C_14  and  N_15
REMARK                            x       y       z     vdW  Elec       q    Type
REMARK                         _______ _______ _______ _____ _____    ______ ____
ROOT
ATOM      1  C   UNL     1       2.036   6.188  20.585  0.00  0.00    +0.000 C 
ATOM      2  C   UNL     1       1.525   4.764  20.469  0.00  0.00    +0.000 C 
ATOM      3  N   UNL     1       2.319   4.171  19.382  0.00  0.00    +0.000 NA
ATOM      4  C   UNL     1       2.867   5.200  18.815  0.00  0.00    +0.000 C 
ATOM      5  O   UNL     1       2.637   6.435  19.316  0.00  0.00    +0.000 OA
ENDROOT
BRANCH   4   6
ATOM      6  C   UNL     1       3.780   5.152  17.659  0.00  0.00    +0.000 A 
ATOM      7  C   UNL     1       4.181   3.899  17.175  0.00  0.00    +0.000 A 
ATOM      8  C   UNL     1       5.128   3.803  16.152  0.00  0.00    +0.000 A 
ATOM      9  C   UNL     1       5.676   4.975  15.612  0.00  0.00    +0.000 A 
ATOM     10  C   UNL     1       5.258   6.233  16.067  0.00  0.00    +0.000 A 
ATOM     11  C   UNL     1       4.307   6.319  17.090  0.00  0.00    +0.000 A 
BRANCH   9  12
ATOM     12  N   UNL     1       6.717   4.881  14.582  0.00  0.00    +0.000 N 
ATOM     13  O   UNL     1       6.507   4.134  13.614  0.00  0.00    +0.000 OA
ATOM     14  O   UNL     1       7.748   5.549  14.742  0.00  0.00    +0.000 OA
ENDBRANCH   9  12
ENDBRANCH   4   6
BRANCH   1  15
ATOM     15  C   UNL     1       0.939   7.223  20.876  0.00  0.00    +0.000 C 
BRANCH  15  16
ATOM     16  N   UNL     1       1.382   8.632  20.935  0.00  0.00    +0.000 NA
BRANCH  16  18
ATOM     17  C   UNL     1       1.333   9.583  18.592  0.00  0.00    +0.000 C 
ATOM     18  C   UNL     1       0.670   9.479  19.963  0.00  0.00    +0.000 C 
ENDBRANCH  16  18
BRANCH  16  19
ATOM     19  C   UNL     1       1.346   9.141  22.317  0.00  0.00    +0.000 C 
ATOM     20  C   UNL     1      -0.025   9.551  22.851  0.00  0.00    +0.000 C 
ENDBRANCH  16  19
ENDBRANCH  15  16
ENDBRANCH   1  15
TORSDOF 6
ENDMDL
MODEL 4
REMARK VINA RESULT:      -6.2      2.343      7.452
REMARK  Name = 
REMARK  8 active torsions:
REMARK  status: ('A' for Active; 'I' for Inactive)
REMARK    1  A    between atoms: C_1  and  C_2
REMARK    2  A    between atoms: C_2  and  N_3
REMARK    3  A    between atoms: N_3  and  C_4
REMARK    4  A    between atoms: N_3  and  C_6
REMARK    5  A    between atoms: C_4  and  C_5
REMARK    6  A    between atoms: C_6  and  C_7
REMARK    7  A    between atoms: C_10  and  C_11
REMARK    8  A    between atoms: C_14  and  N_15
REMARK                            x       y       z     vdW  Elec       q    Type
REMARK                         _______ _______ _______ _____ _____    ______ ____
ROOT
ATOM      1  C   UNL     1       2.045   7.461  20.392  0.00  0.00    +0.000 C 
ATOM      2  C   UNL     1       1.617   6.034  20.682  0.00  0.00    +0.000 C 
ATOM      3  N   UNL     1       2.396   5.214  19.742  0.00  0.00    +0.000 NA
ATOM      4  C   UNL     1       2.855   6.081  18.894  0.00  0.00    +0.000 C 
ATOM      5  O   UNL     1       2.572   7.392  19.068  0.00  0.00    +0.000 OA
ENDROOT
BRANCH   4   6
ATOM      6  C   UNL     1       3.716   5.773  17.738  0.00  0.00    +0.000 A 
ATOM      7  C   UNL     1       3.894   4.430  17.377  0.00  0.00    +0.000 A 
ATOM      8  C   UNL     1       4.785   4.082  16.357  0.00  0.00    +0.000 A 
ATOM      9  C   UNL     1       5.500   5.091  15.698  0.00  0.00    +0.000 A 
ATOM     10  C   UNL     1       5.305   6.439  16.030  0.00  0.00    +0.000 A 
ATOM     11  C   UNL     1       4.409   6.777  17.050  0.00  0.00    +0.000 A 
BRANCH   9  12
ATOM     12  N   UNL     1       6.484   4.729  14.671  0.00  0.00    +0.000 N 
ATOM     13  O   UNL     1       7.576   5.318  14.684  0.00  0.00    +0.000 OA
ATOM     14  O   UNL     1       6.166   3.861  13.846  0.00  0.00    +0.000 OA
ENDBRANCH   9  12
ENDBRANCH   4   6
BRANCH   1  15
ATOM     15  C   UNL     1       0.901   8.482  20.467  0.00  0.00    +0.000 C 
BRANCH  15  16
ATOM     16  N   UNL     1       1.128   9.639  21.360  0.00  0.00    +0.000 NA
BRANCH  16  18
ATOM     17  C   UNL     1      -0.098  10.744  19.445  0.00  0.00    +0.000 C 
ATOM     18  C   UNL     1       0.634  10.896  20.776  0.00  0.00    +0.000 C 
ENDBRANCH  16  18
BRANCH  16  19
ATOM     19  C   UNL     1       0.623   9.366  22.718  0.00  0.00    +0.000 C 
ATOM     20  C   UNL     1      -0.722   9.995  23.077  0.00  0.00    +0.000 C 
ENDBRANCH  16  19
ENDBRANCH  15  16
ENDBRANCH   1  15
TORSDOF 6
ENDMDL
MODEL 5
REMARK VINA RESULT:      -6.2      1.142      2.053
REMARK  Name = 
REMARK  8 active torsions:
REMARK  status: ('A' for Active; 'I' for Inactive)
REMARK    1  A    between atoms: C_1  and  C_2
REMARK    2  A    between atoms: C_2  and  N_3
REMARK    3  A    between atoms: N_3  and  C_4
REMARK    4  A    between atoms: N_3  and  C_6
REMARK    5  A    between atoms: C_4  and  C_5
REMARK    6  A    between atoms: C_6  and  C_7
REMARK    7  A    between atoms: C_10  and  C_11
REMARK    8  A    between atoms: C_14  and  N_15
REMARK                            x       y       z     vdW  Elec       q    Type
REMARK                         _______ _______ _______ _____ _____    ______ ____
ROOT
ATOM      1  C   UNL     1       4.287   5.007  17.457  0.00  0.00    +0.000 C 
ATOM      2  C   UNL     1       2.989   4.226  17.562  0.00  0.00    +0.000 C 
ATOM      3  N   UNL     1       1.991   5.218  17.988  0.00  0.00    +0.000 NA
ATOM      4  C   UNL     1       2.712   6.223  18.377  0.00  0.00    +0.000 C 
ATOM      5  O   UNL     1       4.059   6.149  18.280  0.00  0.00    +0.000 OA
ENDROOT
BRANCH   4   6
ATOM      6  C   UNL     1       2.190   7.499  18.898  0.00  0.00    +0.000 A 
ATOM      7  C   UNL     1       1.879   7.585  20.263  0.00  0.00    +0.000 A 
ATOM      8  C   UNL     1       1.281   8.737  20.782  0.00  0.00    +0.000 A 
ATOM      9  C   UNL     1       0.994   9.808  19.924  0.00  0.00    +0.000 A 
ATOM     10  C   UNL     1       1.330   9.743  18.565  0.00  0.00    +0.000 A 
ATOM     11  C   UNL     1       1.931   8.587  18.054  0.00  0.00    +0.000 A 
BRANCH   9  12
ATOM     12  N   UNL     1       0.309  10.994  20.449  0.00  0.00    +0.000 N 
ATOM     13  O   UNL     1       0.512  11.301  21.634  0.00  0.00    +0.000 OA
ATOM     14  O   UNL     1      -0.437  11.617  19.681  0.00  0.00    +0.000 OA
ENDBRANCH   9  12
ENDBRANCH   4   6
BRANCH   1  15
ATOM     15  C   UNL     1       5.523   4.232  17.935  0.00  0.00    +0.000 C 
BRANCH  15  16
ATOM     16  N   UNL     1       6.794   4.564  17.257  0.00  0.00    +0.000 NA
BRANCH  16  18
ATOM     17  C   UNL     1       6.977   4.641  14.736  0.00  0.00    +0.000 C 
ATOM     18  C   UNL     1       6.579   5.348  16.029  0.00  0.00    +0.000 C 
ENDBRANCH  16  18
BRANCH  16  19
ATOM     19  C   UNL     1       7.753   5.170  18.198  0.00  0.00    +0.000 C 
ATOM     20  C   UNL     1       7.729   6.693  18.300  0.00  0.00    +0.000 C 
ENDBRANCH  16  19
ENDBRANCH  15  16
ENDBRANCH   1  15
TORSDOF 6
ENDMDL
MODEL 6
REMARK VINA RESULT:      -6.1      1.158      2.307
REMARK  Name = 
REMARK  8 active torsions:
REMARK  status: ('A' for Active; 'I' for Inactive)
REMARK    1  A    between atoms: C_1  and  C_2
REMARK    2  A    between atoms: C_2  and  N_3
REMARK    3  A    between atoms: N_3  and  C_4
REMARK    4  A    between atoms: N_3  and  C_6
REMARK    5  A    between atoms: C_4  and  C_5
REMARK    6  A    between atoms: C_6  and  C_7
REMARK    7  A    between atoms: C_10  and  C_11
REMARK    8  A    between atoms: C_14  and  N_15
REMARK                            x       y       z     vdW  Elec       q    Type
REMARK                         _______ _______ _______ _____ _____    ______ ____
ROOT
ATOM      1  C   UNL     1       4.395   4.909  17.148  0.00  0.00    +0.000 C 
ATOM      2  C   UNL     1       3.178   4.014  17.296  0.00  0.00    +0.000 C 
ATOM      3  N   UNL     1       2.118   4.905  17.790  0.00  0.00    +0.000 NA
ATOM      4  C   UNL     1       2.766   5.963  18.168  0.00  0.00    +0.000 C 
ATOM      5  O   UNL     1       4.108   6.011  18.007  0.00  0.00    +0.000 OA
ENDROOT
BRANCH   4   6
ATOM      6  C   UNL     1       2.159   7.178  18.741  0.00  0.00    +0.000 A 
ATOM      7  C   UNL     1       1.909   8.264  17.891  0.00  0.00    +0.000 A 
ATOM      8  C   UNL     1       1.436   9.474  18.406  0.00  0.00    +0.000 A 
ATOM      9  C   UNL     1       1.214   9.592  19.785  0.00  0.00    +0.000 A 
ATOM     10  C   UNL     1       1.431   8.502  20.639  0.00  0.00    +0.000 A 
ATOM     11  C   UNL     1       1.901   7.293  20.113  0.00  0.00    +0.000 A 
BRANCH   9  12
ATOM     12  N   UNL     1       0.778  10.878  20.342  0.00  0.00    +0.000 N 
ATOM     13  O   UNL     1       0.992  11.088  21.547  0.00  0.00    +0.000 OA
ATOM     14  O   UNL     1       0.218  11.678  19.580  0.00  0.00    +0.000 OA
ENDBRANCH   9  12
ENDBRANCH   4   6
BRANCH   1  15
ATOM     15  C   UNL     1       5.716   4.238  17.551  0.00  0.00    +0.000 C 
BRANCH  15  16
ATOM     16  N   UNL     1       6.945   4.866  17.020  0.00  0.00    +0.000 NA
BRANCH  16  18
ATOM     17  C   UNL     1       6.736   4.437  14.538  0.00  0.00    +0.000 C 
ATOM     18  C   UNL     1       6.739   5.446  15.683  0.00  0.00    +0.000 C 
ENDBRANCH  16  18
BRANCH  16  19
ATOM     19  C   UNL     1       7.527   5.802  17.999  0.00  0.00    +0.000 C 
ATOM     20  C   UNL     1       7.593   7.268  17.576  0.00  0.00    +0.000 C 
ENDBRANCH  16  19
ENDBRANCH  15  16
ENDBRANCH   1  15
TORSDOF 6
ENDMDL
MODEL 7
REMARK VINA RESULT:      -6.1      2.471      3.834
REMARK  Name = 
REMARK  8 active torsions:
REMARK  status: ('A' for Active; 'I' for Inactive)
REMARK    1  A    between atoms: C_1  and  C_2
REMARK    2  A    between atoms: C_2  and  N_3
REMARK    3  A    between atoms: N_3  and  C_4
REMARK    4  A    between atoms: N_3  and  C_6
REMARK    5  A    between atoms: C_4  and  C_5
REMARK    6  A    between atoms: C_6  and  C_7
REMARK    7  A    between atoms: C_10  and  C_11
REMARK    8  A    between atoms: C_14  and  N_15
REMARK                            x       y       z     vdW  Elec       q    Type
REMARK                         _______ _______ _______ _____ _____    ______ ____
ROOT
ATOM      1  C   UNL     1       3.603   5.435  19.462  0.00  0.00    +0.000 C 
ATOM      2  C   UNL     1       3.892   5.800  18.017  0.00  0.00    +0.000 C 
ATOM      3  N   UNL     1       3.289   7.130  17.842  0.00  0.00    +0.000 NA
ATOM      4  C   UNL     1       2.527   7.255  18.883  0.00  0.00    +0.000 C 
ATOM      5  O   UNL     1       2.493   6.264  19.803  0.00  0.00    +0.000 OA
ENDROOT
BRANCH   4   6
ATOM      6  C   UNL     1       1.693   8.429  19.196  0.00  0.00    +0.000 A 
ATOM      7  C   UNL     1       1.274   8.616  20.521  0.00  0.00    +0.000 A 
ATOM      8  C   UNL     1       0.394   9.652  20.847  0.00  0.00    +0.000 A 
ATOM      9  C   UNL     1      -0.066  10.505  19.835  0.00  0.00    +0.000 A 
ATOM     10  C   UNL     1       0.372  10.346  18.513  0.00  0.00    +0.000 A 
ATOM     11  C   UNL     1       1.255   9.307  18.197  0.00  0.00    +0.000 A 
BRANCH   9  12
ATOM     12  N   UNL     1      -1.039  11.555  20.158  0.00  0.00    +0.000 N 
ATOM     13  O   UNL     1      -1.436  12.280  19.232  0.00  0.00    +0.000 OA
ATOM     14  O   UNL     1      -1.404  11.662  21.337  0.00  0.00    +0.000 OA
ENDBRANCH   9  12
ENDBRANCH   4   6
BRANCH   1  15
ATOM     15  C   UNL     1       3.260   3.954  19.675  0.00  0.00    +0.000 C 
BRANCH  15  16
ATOM     16  N   UNL     1       1.994   3.493  19.066  0.00  0.00    +0.000 NA
BRANCH  16  18
ATOM     17  C   UNL     1       3.485   1.593  18.316  0.00  0.00    +0.000 C 
ATOM     18  C   UNL     1       2.208   2.402  18.100  0.00  0.00    +0.000 C 
ENDBRANCH  16  18
BRANCH  16  19
ATOM     19  C   UNL     1       0.987   3.192  20.099  0.00  0.00    +0.000 C 
ATOM     20  C   UNL     1       1.524   2.726  21.451  0.00  0.00    +0.000 C 
ENDBRANCH  16  19
ENDBRANCH  15  16
ENDBRANCH   1  15
TORSDOF 6
ENDMDL
MODEL 8
REMARK VINA RESULT:      -6.1      0.959      1.907
REMARK  Name = 
REMARK  8 active torsions:
REMARK  status: ('A' for Active; 'I' for Inactive)
REMARK    1  A    between atoms: C_1  and  C_2
REMARK    2  A    between atoms: C_2  and  N_3
REMARK    3  A    between atoms: N_3  and  C_4
REMARK    4  A    between atoms: N_3  and  C_6
REMARK    5  A    between atoms: C_4  and  C_5
REMARK    6  A    between atoms: C_6  and  C_7
REMARK    7  A    between atoms: C_10  and  C_11
REMARK    8  A    between atoms: C_14  and  N_15
REMARK                            x       y       z     vdW  Elec       q    Type
REMARK                         _______ _______ _______ _____ _____    ______ ____
ROOT
ATOM      1  C   UNL     1       4.122   4.804  18.706  0.00  0.00    +0.000 C 
ATOM      2  C   UNL     1       3.332   4.324  19.909  0.00  0.00    +0.000 C 
ATOM      3  N   UNL     1       2.337   5.381  20.147  0.00  0.00    +0.000 NA
ATOM      4  C   UNL     1       2.773   6.372  19.434  0.00  0.00    +0.000 C 
ATOM      5  O   UNL     1       3.895   6.213  18.695  0.00  0.00    +0.000 OA
ENDROOT
BRANCH   4   6
ATOM      6  C   UNL     1       2.126   7.690  19.315  0.00  0.00    +0.000 A 
ATOM      7  C   UNL     1       1.452   8.206  20.431  0.00  0.00    +0.000 A 
ATOM      8  C   UNL     1       0.732   9.400  20.335  0.00  0.00    +0.000 A 
ATOM      9  C   UNL     1       0.690  10.079  19.109  0.00  0.00    +0.000 A 
ATOM     10  C   UNL     1       1.386   9.588  17.996  0.00  0.00    +0.000 A 
ATOM     11  C   UNL     1       2.107   8.393  18.103  0.00  0.00    +0.000 A 
BRANCH   9  12
ATOM     12  N   UNL     1      -0.116  11.299  18.984  0.00  0.00    +0.000 N 
ATOM     13  O   UNL     1       0.469  12.348  18.670  0.00  0.00    +0.000 OA
ATOM     14  O   UNL     1      -1.332  11.213  19.203  0.00  0.00    +0.000 OA
ENDBRANCH   9  12
ENDBRANCH   4   6
BRANCH   1  15
ATOM     15  C   UNL     1       5.625   4.499  18.785  0.00  0.00    +0.000 C 
BRANCH  15  16
ATOM     16  N   UNL     1       6.369   4.596  17.511  0.00  0.00    +0.000 NA
BRANCH  16  18
ATOM     17  C   UNL     1       5.608   5.286  15.200  0.00  0.00    +0.000 C 
ATOM     18  C   UNL     1       5.523   4.283  16.348  0.00  0.00    +0.000 C 
ENDBRANCH  16  18
BRANCH  16  19
ATOM     19  C   UNL     1       7.079   5.884  17.409  0.00  0.00    +0.000 C 
ATOM     20  C   UNL     1       7.832   6.341  18.656  0.00  0.00    +0.000 C 
ENDBRANCH  16  19
ENDBRANCH  15  16
ENDBRANCH   1  15
TORSDOF 6
ENDMDL
MODEL 9
REMARK VINA RESULT:      -6.1      2.929      4.246
REMARK  Name = 
REMARK  8 active torsions:
REMARK  status: ('A' for Active; 'I' for Inactive)
REMARK    1  A    between atoms: C_1  and  C_2
REMARK    2  A    between atoms: C_2  and  N_3
REMARK    3  A    between atoms: N_3  and  C_4
REMARK    4  A    between atoms: N_3  and  C_6
REMARK    5  A    between atoms: C_4  and  C_5
REMARK    6  A    between atoms: C_6  and  C_7
REMARK    7  A    between atoms: C_10  and  C_11
REMARK    8  A    between atoms: C_14  and  N_15
REMARK                            x       y       z     vdW  Elec       q    Type
REMARK                         _______ _______ _______ _____ _____    ______ ____
ROOT
ATOM      1  C   UNL     1       3.444   5.630  19.424  0.00  0.00    +0.000 C 
ATOM      2  C   UNL     1       3.326   6.222  18.031  0.00  0.00    +0.000 C 
ATOM      3  N   UNL     1       2.656   7.515  18.232  0.00  0.00    +0.000 NA
ATOM      4  C   UNL     1       2.196   7.432  19.441  0.00  0.00    +0.000 C 
ATOM      5  O   UNL     1       2.439   6.317  20.168  0.00  0.00    +0.000 OA
ENDROOT
BRANCH   4   6
ATOM      6  C   UNL     1       1.439   8.484  20.142  0.00  0.00    +0.000 A 
ATOM      7  C   UNL     1       1.062   9.627  19.423  0.00  0.00    +0.000 A 
ATOM      8  C   UNL     1       0.438  10.698  20.070  0.00  0.00    +0.000 A 
ATOM      9  C   UNL     1       0.192  10.618  21.447  0.00  0.00    +0.000 A 
ATOM     10  C   UNL     1       0.536   9.467  22.168  0.00  0.00    +0.000 A 
ATOM     11  C   UNL     1       1.158   8.399  21.512  0.00  0.00    +0.000 A 
BRANCH   9  12
ATOM     12  N   UNL     1      -0.405  11.764  22.144  0.00  0.00    +0.000 N 
ATOM     13  O   UNL     1      -0.326  12.876  21.599  0.00  0.00    +0.000 OA
ATOM     14  O   UNL     1      -0.946  11.555  23.239  0.00  0.00    +0.000 OA
ENDBRANCH   9  12
ENDBRANCH   4   6
BRANCH   1  15
ATOM     15  C   UNL     1       3.217   4.113  19.479  0.00  0.00    +0.000 C 
BRANCH  15  16
ATOM     16  N   UNL     1       1.909   3.639  18.978  0.00  0.00    +0.000 NA
BRANCH  16  18
ATOM     17  C   UNL     1       3.419   1.832  18.057  0.00  0.00    +0.000 C 
ATOM     18  C   UNL     1       2.048   2.504  18.051  0.00  0.00    +0.000 C 
ENDBRANCH  16  18
BRANCH  16  19
ATOM     19  C   UNL     1       0.972   3.396  20.090  0.00  0.00    +0.000 C 
ATOM     20  C   UNL     1       1.564   2.756  21.344  0.00  0.00    +0.000 C 
ENDBRANCH  16  19
ENDBRANCH  15  16
ENDBRANCH   1  15
TORSDOF 6
ENDMDL
