MODEL 1
REMARK VINA RESULT:      -7.6      0.000      0.000
REMARK  Name = 
REMARK  2 active torsions:
REMARK  status: ('A' for Active; 'I' for Inactive)
REMARK    1  A    between atoms: C_1  and  C_2
REMARK    2  A    between atoms: N_14  and  O_15
REMARK                            x       y       z     vdW  Elec       q    Type
REMARK                         _______ _______ _______ _____ _____    ______ ____
ROOT
ATOM      1  C   UNL     1       7.641   5.459  18.720  0.00  0.00    +0.000 C 
ATOM      2  C   UNL     1       6.658   4.782  17.752  0.00  0.00    +0.000 C 
ATOM      3  C   UNL     1       5.378   4.468  18.467  0.00  0.00    +0.000 A 
ATOM      4  N   UNL     1       5.162   3.409  19.309  0.00  0.00    +0.000 N 
ATOM      5  C   UNL     1       3.861   3.445  19.776  0.00  0.00    +0.000 A 
ATOM      6  C   UNL     1       3.189   2.573  20.640  0.00  0.00    +0.000 A 
ATOM      7  C   UNL     1       1.849   2.854  20.933  0.00  0.00    +0.000 A 
ATOM      8  C   UNL     1       1.210   3.963  20.383  0.00  0.00    +0.000 A 
ATOM      9  C   UNL     1       1.896   4.825  19.519  0.00  0.00    +0.000 A 
ATOM     10  C   UNL     1       3.244   4.564  19.209  0.00  0.00    +0.000 A 
ATOM     11  C   UNL     1       4.210   5.196  18.384  0.00  0.00    +0.000 A 
ATOM     12  C   UNL     1       4.100   6.386  17.491  0.00  0.00    +0.000 C 
ATOM     13  C   UNL     1       5.474   6.765  16.880  0.00  0.00    +0.000 C 
ATOM     14  N   UNL     1       6.306   5.587  16.547  0.00  0.00    +0.000 NA
ATOM     15  H   UNL     1       5.838   2.701  19.550  0.00  0.00    +0.000 HD
ENDROOT
BRANCH  14  16
ATOM     16  O   UNL     1       7.536   6.107  15.976  0.00  0.00    +0.000 OA
ATOM     17  H   UNL     1       8.202   5.695  16.559  0.00  0.00    +0.000 HD
ENDBRANCH  14  16
TORSDOF 1
ENDMDL
MODEL 2
REMARK VINA RESULT:      -7.4      1.178      1.178
REMARK  Name = 
REMARK  2 active torsions:
REMARK  status: ('A' for Active; 'I' for Inactive)
REMARK    1  A    between atoms: C_1  and  C_2
REMARK    2  A    between atoms: N_14  and  O_15
REMARK                            x       y       z     vdW  Elec       q    Type
REMARK                         _______ _______ _______ _____ _____    ______ ____
ROOT
ATOM      1  C   UNL     1       7.463   5.777  19.072  0.00  0.00    +0.000 C 
ATOM      2  C   UNL     1       6.895   5.227  17.755  0.00  0.00    +0.000 C 
ATOM      3  C   UNL     1       5.558   4.596  18.004  0.00  0.00    +0.000 A 
ATOM      4  N   UNL     1       5.338   3.351  18.532  0.00  0.00    +0.000 N 
ATOM      5  C   UNL     1       3.979   3.112  18.609  0.00  0.00    +0.000 A 
ATOM      6  C   UNL     1       3.285   1.985  19.064  0.00  0.00    +0.000 A 
ATOM      7  C   UNL     1       1.887   2.019  19.013  0.00  0.00    +0.000 A 
ATOM      8  C   UNL     1       1.212   3.136  18.527  0.00  0.00    +0.000 A 
ATOM      9  C   UNL     1       1.919   4.255  18.074  0.00  0.00    +0.000 A 
ATOM     10  C   UNL     1       3.327   4.246  18.115  0.00  0.00    +0.000 A 
ATOM     11  C   UNL     1       4.333   5.170  17.734  0.00  0.00    +0.000 A 
ATOM     12  C   UNL     1       4.232   6.512  17.090  0.00  0.00    +0.000 C 
ATOM     13  C   UNL     1       5.620   7.193  16.978  0.00  0.00    +0.000 C 
ATOM     14  N   UNL     1       6.712   6.241  16.676  0.00  0.00    +0.000 NA
ATOM     15  H   UNL     1       6.052   2.697  18.815  0.00  0.00    +0.000 HD
ENDROOT
BRANCH  14  16
ATOM     16  O   UNL     1       7.928   7.031  16.587  0.00  0.00    +0.000 OA
ATOM     17  H   UNL     1       8.512   6.543  17.199  0.00  0.00    +0.000 HD
ENDBRANCH  14  16
TORSDOF 1
ENDMDL
MODEL 3
REMARK VINA RESULT:      -7.3      2.925      5.151
REMARK  Name = 
REMARK  2 active torsions:
REMARK  status: ('A' for Active; 'I' for Inactive)
REMARK    1  A    between atoms: C_1  and  C_2
REMARK    2  A    between atoms: N_14  and  O_15
REMARK                            x       y       z     vdW  Elec       q    Type
REMARK                         _______ _______ _______ _____ _____    ______ ____
ROOT
ATOM      1  C   UNL     1       1.474   1.987  19.317  0.00  0.00    +0.000 C 
ATOM      2  C   UNL     1       2.785   2.574  19.862  0.00  0.00    +0.000 C 
ATOM      3  C   UNL     1       3.434   3.425  18.812  0.00  0.00    +0.000 A 
ATOM      4  N   UNL     1       4.166   2.974  17.746  0.00  0.00    +0.000 N 
ATOM      5  C   UNL     1       4.608   4.049  16.997  0.00  0.00    +0.000 A 
ATOM      6  C   UNL     1       5.392   4.081  15.838  0.00  0.00    +0.000 A 
ATOM      7  C   UNL     1       5.700   5.334  15.296  0.00  0.00    +0.000 A 
ATOM      8  C   UNL     1       5.240   6.507  15.889  0.00  0.00    +0.000 A 
ATOM      9  C   UNL     1       4.458   6.460  17.049  0.00  0.00    +0.000 A 
ATOM     10  C   UNL     1       4.135   5.211  17.614  0.00  0.00    +0.000 A 
ATOM     11  C   UNL     1       3.401   4.803  18.758  0.00  0.00    +0.000 A 
ATOM     12  C   UNL     1       2.728   5.604  19.821  0.00  0.00    +0.000 C 
ATOM     13  C   UNL     1       1.950   4.696  20.808  0.00  0.00    +0.000 C 
ATOM     14  N   UNL     1       2.638   3.415  21.085  0.00  0.00    +0.000 NA
ATOM     15  H   UNL     1       4.367   2.009  17.535  0.00  0.00    +0.000 HD
ENDROOT
BRANCH  14  16
ATOM     16  O   UNL     1       1.798   2.698  22.028  0.00  0.00    +0.000 OA
ATOM     17  H   UNL     1       2.352   2.727  22.832  0.00  0.00    +0.000 HD
ENDBRANCH  14  16
TORSDOF 1
ENDMDL
MODEL 4
REMARK VINA RESULT:      -7.3      2.610      4.916
REMARK  Name = 
REMARK  2 active torsions:
REMARK  status: ('A' for Active; 'I' for Inactive)
REMARK    1  A    between atoms: C_1  and  C_2
REMARK    2  A    between atoms: N_14  and  O_15
REMARK                            x       y       z     vdW  Elec       q    Type
REMARK                         _______ _______ _______ _____ _____    ______ ____
ROOT
ATOM      1  C   UNL     1       3.452   1.492  18.467  0.00  0.00    +0.000 C 
ATOM      2  C   UNL     1       3.340   2.717  19.388  0.00  0.00    +0.000 C 
ATOM      3  C   UNL     1       4.291   3.783  18.932  0.00  0.00    +0.000 A 
ATOM      4  N   UNL     1       5.639   3.820  19.171  0.00  0.00    +0.000 N 
ATOM      5  C   UNL     1       6.182   4.955  18.599  0.00  0.00    +0.000 A 
ATOM      6  C   UNL     1       7.502   5.419  18.592  0.00  0.00    +0.000 A 
ATOM      7  C   UNL     1       7.763   6.627  17.935  0.00  0.00    +0.000 A 
ATOM      8  C   UNL     1       6.743   7.339  17.309  0.00  0.00    +0.000 A 
ATOM      9  C   UNL     1       5.427   6.863  17.325  0.00  0.00    +0.000 A 
ATOM     10  C   UNL     1       5.139   5.651  17.980  0.00  0.00    +0.000 A 
ATOM     11  C   UNL     1       3.953   4.904  18.201  0.00  0.00    +0.000 A 
ATOM     12  C   UNL     1       2.537   5.189  17.831  0.00  0.00    +0.000 C 
ATOM     13  C   UNL     1       1.606   4.004  18.192  0.00  0.00    +0.000 C 
ATOM     14  N   UNL     1       1.983   3.332  19.456  0.00  0.00    +0.000 NA
ATOM     15  H   UNL     1       6.164   3.134  19.692  0.00  0.00    +0.000 HD
ENDROOT
BRANCH  14  16
ATOM     16  O   UNL     1       1.014   2.269  19.657  0.00  0.00    +0.000 OA
ATOM     17  H   UNL     1       1.161   1.730  18.856  0.00  0.00    +0.000 HD
ENDBRANCH  14  16
TORSDOF 1
ENDMDL
MODEL 5
REMARK VINA RESULT:      -7.1      2.853      5.140
REMARK  Name = 
REMARK  2 active torsions:
REMARK  status: ('A' for Active; 'I' for Inactive)
REMARK    1  A    between atoms: C_1  and  C_2
REMARK    2  A    between atoms: N_14  and  O_15
REMARK                            x       y       z     vdW  Elec       q    Type
REMARK                         _______ _______ _______ _____ _____    ______ ____
ROOT
ATOM      1  C   UNL     1       3.136   2.447  20.889  0.00  0.00    +0.000 C 
ATOM      2  C   UNL     1       2.945   3.822  20.230  0.00  0.00    +0.000 C 
ATOM      3  C   UNL     1       3.944   3.999  19.126  0.00  0.00    +0.000 A 
ATOM      4  N   UNL     1       5.263   4.337  19.277  0.00  0.00    +0.000 N 
ATOM      5  C   UNL     1       5.868   4.411  18.036  0.00  0.00    +0.000 A 
ATOM      6  C   UNL     1       7.187   4.731  17.693  0.00  0.00    +0.000 A 
ATOM      7  C   UNL     1       7.521   4.740  16.334  0.00  0.00    +0.000 A 
ATOM      8  C   UNL     1       6.573   4.439  15.359  0.00  0.00    +0.000 A 
ATOM      9  C   UNL     1       5.258   4.121  15.717  0.00  0.00    +0.000 A 
ATOM     10  C   UNL     1       4.897   4.106  17.078  0.00  0.00    +0.000 A 
ATOM     11  C   UNL     1       3.689   3.853  17.778  0.00  0.00    +0.000 A 
ATOM     12  C   UNL     1       2.318   3.544  17.278  0.00  0.00    +0.000 C 
ATOM     13  C   UNL     1       1.347   3.230  18.444  0.00  0.00    +0.000 C 
ATOM     14  N   UNL     1       1.593   4.059  19.646  0.00  0.00    +0.000 NA
ATOM     15  H   UNL     1       5.729   4.517  20.152  0.00  0.00    +0.000 HD
ENDROOT
BRANCH  14  16
ATOM     16  O   UNL     1       0.600   3.658  20.627  0.00  0.00    +0.000 OA
ATOM     17  H   UNL     1       1.015   3.973  21.453  0.00  0.00    +0.000 HD
ENDBRANCH  14  16
TORSDOF 1
ENDMDL
MODEL 6
REMARK VINA RESULT:      -7.1      1.433      1.824
REMARK  Name = 
REMARK  2 active torsions:
REMARK  status: ('A' for Active; 'I' for Inactive)
REMARK    1  A    between atoms: C_1  and  C_2
REMARK    2  A    between atoms: N_14  and  O_15
REMARK                            x       y       z     vdW  Elec       q    Type
REMARK                         _______ _______ _______ _____ _____    ______ ____
ROOT
ATOM      1  C   UNL     1       6.020   6.875  17.180  0.00  0.00    +0.000 C 
ATOM      2  C   UNL     1       6.181   5.449  17.729  0.00  0.00    +0.000 C 
ATOM      3  C   UNL     1       4.881   4.979  18.309  0.00  0.00    +0.000 A 
ATOM      4  N   UNL     1       4.376   5.315  19.537  0.00  0.00    +0.000 N 
ATOM      5  C   UNL     1       3.159   4.688  19.727  0.00  0.00    +0.000 A 
ATOM      6  C   UNL     1       2.287   4.720  20.822  0.00  0.00    +0.000 A 
ATOM      7  C   UNL     1       1.112   3.965  20.740  0.00  0.00    +0.000 A 
ATOM      8  C   UNL     1       0.821   3.209  19.607  0.00  0.00    +0.000 A 
ATOM      9  C   UNL     1       1.702   3.186  18.519  0.00  0.00    +0.000 A 
ATOM     10  C   UNL     1       2.891   3.937  18.578  0.00  0.00    +0.000 A 
ATOM     11  C   UNL     1       3.986   4.127  17.695  0.00  0.00    +0.000 A 
ATOM     12  C   UNL     1       4.277   3.529  16.360  0.00  0.00    +0.000 C 
ATOM     13  C   UNL     1       5.553   4.142  15.730  0.00  0.00    +0.000 C 
ATOM     14  N   UNL     1       6.611   4.433  16.725  0.00  0.00    +0.000 NA
ATOM     15  H   UNL     1       4.821   5.918  20.212  0.00  0.00    +0.000 HD
ENDROOT
BRANCH  14  16
ATOM     16  O   UNL     1       7.731   4.979  15.980  0.00  0.00    +0.000 OA
ATOM     17  H   UNL     1       8.391   5.091  16.691  0.00  0.00    +0.000 HD
ENDBRANCH  14  16
TORSDOF 1
ENDMDL
MODEL 7
REMARK VINA RESULT:      -7.1      2.543      5.231
REMARK  Name = 
REMARK  2 active torsions:
REMARK  status: ('A' for Active; 'I' for Inactive)
REMARK    1  A    between atoms: C_1  and  C_2
REMARK    2  A    between atoms: N_14  and  O_15
REMARK                            x       y       z     vdW  Elec       q    Type
REMARK                         _______ _______ _______ _____ _____    ______ ____
ROOT
ATOM      1  C   UNL     1       1.532   4.489  17.827  0.00  0.00    +0.000 C 
ATOM      2  C   UNL     1       2.750   3.699  17.323  0.00  0.00    +0.000 C 
ATOM      3  C   UNL     1       4.004   4.475  17.592  0.00  0.00    +0.000 A 
ATOM      4  N   UNL     1       4.476   5.529  16.856  0.00  0.00    +0.000 N 
ATOM      5  C   UNL     1       5.660   5.987  17.404  0.00  0.00    +0.000 A 
ATOM      6  C   UNL     1       6.503   7.025  16.993  0.00  0.00    +0.000 A 
ATOM      7  C   UNL     1       7.659   7.260  17.745  0.00  0.00    +0.000 A 
ATOM      8  C   UNL     1       7.958   6.487  18.865  0.00  0.00    +0.000 A 
ATOM      9  C   UNL     1       7.105   5.451  19.264  0.00  0.00    +0.000 A 
ATOM     10  C   UNL     1       5.935   5.195  18.523  0.00  0.00    +0.000 A 
ATOM     11  C   UNL     1       4.887   4.244  18.627  0.00  0.00    +0.000 A 
ATOM     12  C   UNL     1       4.686   3.115  19.580  0.00  0.00    +0.000 C 
ATOM     13  C   UNL     1       3.315   2.426  19.361  0.00  0.00    +0.000 C 
ATOM     14  N   UNL     1       2.923   2.350  17.936  0.00  0.00    +0.000 NA
ATOM     15  H   UNL     1       4.041   5.913  16.032  0.00  0.00    +0.000 HD
ENDROOT
BRANCH  14  16
ATOM     16  O   UNL     1       1.640   1.670  17.902  0.00  0.00    +0.000 OA
ATOM     17  H   UNL     1       1.654   1.289  17.003  0.00  0.00    +0.000 HD
ENDBRANCH  14  16
TORSDOF 1
ENDMDL
MODEL 8
REMARK VINA RESULT:      -7.0      1.779      1.880
REMARK  Name = 
REMARK  2 active torsions:
REMARK  status: ('A' for Active; 'I' for Inactive)
REMARK    1  A    between atoms: C_1  and  C_2
REMARK    2  A    between atoms: N_14  and  O_15
REMARK                            x       y       z     vdW  Elec       q    Type
REMARK                         _______ _______ _______ _____ _____    ______ ____
ROOT
ATOM      1  C   UNL     1       7.148   6.490  17.331  0.00  0.00    +0.000 C 
ATOM      2  C   UNL     1       7.119   5.012  16.912  0.00  0.00    +0.000 C 
ATOM      3  C   UNL     1       5.894   4.352  17.469  0.00  0.00    +0.000 A 
ATOM      4  N   UNL     1       5.727   3.913  18.756  0.00  0.00    +0.000 N 
ATOM      5  C   UNL     1       4.471   3.355  18.899  0.00  0.00    +0.000 A 
ATOM      6  C   UNL     1       3.864   2.770  20.016  0.00  0.00    +0.000 A 
ATOM      7  C   UNL     1       2.566   2.269  19.863  0.00  0.00    +0.000 A 
ATOM      8  C   UNL     1       1.903   2.351  18.641  0.00  0.00    +0.000 A 
ATOM      9  C   UNL     1       2.523   2.938  17.532  0.00  0.00    +0.000 A 
ATOM     10  C   UNL     1       3.829   3.450  17.660  0.00  0.00    +0.000 A 
ATOM     11  C   UNL     1       4.738   4.075  16.769  0.00  0.00    +0.000 A 
ATOM     12  C   UNL     1       4.624   4.378  15.313  0.00  0.00    +0.000 C 
ATOM     13  C   UNL     1       5.846   5.184  14.803  0.00  0.00    +0.000 C 
ATOM     14  N   UNL     1       7.119   4.775  15.439  0.00  0.00    +0.000 NA
ATOM     15  H   UNL     1       6.413   3.974  19.493  0.00  0.00    +0.000 HD
ENDROOT
BRANCH  14  16
ATOM     16  O   UNL     1       8.154   5.604  14.848  0.00  0.00    +0.000 OA
ATOM     17  H   UNL     1       8.154   6.367  15.457  0.00  0.00    +0.000 HD
ENDBRANCH  14  16
TORSDOF 1
ENDMDL
MODEL 9
REMARK VINA RESULT:      -7.0      3.133      5.516
REMARK  Name = 
REMARK  2 active torsions:
REMARK  status: ('A' for Active; 'I' for Inactive)
REMARK    1  A    between atoms: C_1  and  C_2
REMARK    2  A    between atoms: N_14  and  O_15
REMARK                            x       y       z     vdW  Elec       q    Type
REMARK                         _______ _______ _______ _____ _____    ______ ____
ROOT
ATOM      1  C   UNL     1       2.384   4.745  20.688  0.00  0.00    +0.000 C 
ATOM      2  C   UNL     1       1.812   4.505  19.282  0.00  0.00    +0.000 C 
ATOM      3  C   UNL     1       2.910   4.598  18.265  0.00  0.00    +0.000 A 
ATOM      4  N   UNL     1       3.453   5.752  17.766  0.00  0.00    +0.000 N 
ATOM      5  C   UNL     1       4.439   5.443  16.847  0.00  0.00    +0.000 A 
ATOM      6  C   UNL     1       5.252   6.283  16.078  0.00  0.00    +0.000 A 
ATOM      7  C   UNL     1       6.168   5.682  15.208  0.00  0.00    +0.000 A 
ATOM      8  C   UNL     1       6.267   4.296  15.113  0.00  0.00    +0.000 A 
ATOM      9  C   UNL     1       5.447   3.468  15.888  0.00  0.00    +0.000 A 
ATOM     10  C   UNL     1       4.517   4.049  16.771  0.00  0.00    +0.000 A 
ATOM     11  C   UNL     1       3.545   3.530  17.666  0.00  0.00    +0.000 A 
ATOM     12  C   UNL     1       3.136   2.125  17.953  0.00  0.00    +0.000 C 
ATOM     13  C   UNL     1       2.103   2.059  19.107  0.00  0.00    +0.000 C 
ATOM     14  N   UNL     1       1.142   3.186  19.091  0.00  0.00    +0.000 NA
ATOM     15  H   UNL     1       3.178   6.689  18.016  0.00  0.00    +0.000 HD
ENDROOT
BRANCH  14  16
ATOM     16  O   UNL     1       0.243   2.969  20.211  0.00  0.00    +0.000 OA
ATOM     17  H   UNL     1       0.075   3.888  20.496  0.00  0.00    +0.000 HD
ENDBRANCH  14  16
TORSDOF 1
ENDMDL
