MODEL 1
REMARK VINA RESULT:      -8.3      0.000      0.000
REMARK  Name = 
REMARK  2 active torsions:
REMARK  status: ('A' for Active; 'I' for Inactive)
REMARK    1  A    between atoms: C_2  and  C_4
REMARK    2  A    between atoms: C_14  and  N_15
REMARK                            x       y       z     vdW  Elec       q    Type
REMARK                         _______ _______ _______ _____ _____    ______ ____
ROOT
ATOM      1  C   UNL     1       2.322   2.952  18.992  0.00  0.00    +0.000 A 
ATOM      2  C   UNL     1       3.209   2.806  20.065  0.00  0.00    +0.000 A 
ATOM      3  C   UNL     1       4.564   3.111  19.889  0.00  0.00    +0.000 A 
ATOM      4  C   UNL     1       5.047   3.569  18.655  0.00  0.00    +0.000 A 
ATOM      5  C   UNL     1       4.154   3.714  17.588  0.00  0.00    +0.000 A 
ATOM      6  C   UNL     1       2.799   3.390  17.752  0.00  0.00    +0.000 A 
ATOM      7  C   UNL     1       4.657   4.246  16.276  0.00  0.00    +0.000 C 
ATOM      8  C   UNL     1       4.973   5.732  16.400  0.00  0.00    +0.000 C 
ATOM      9  C   UNL     1       6.158   6.127  17.257  0.00  0.00    +0.000 A 
ATOM     10  C   UNL     1       6.593   7.466  17.111  0.00  0.00    +0.000 A 
ATOM     11  C   UNL     1       7.692   7.976  17.803  0.00  0.00    +0.000 A 
ATOM     12  C   UNL     1       8.338   7.144  18.708  0.00  0.00    +0.000 A 
ATOM     13  C   UNL     1       7.924   5.818  18.875  0.00  0.00    +0.000 A 
ATOM     14  C   UNL     1       6.813   5.297  18.185  0.00  0.00    +0.000 A 
ATOM     15  N   UNL     1       6.389   3.991  18.536  0.00  0.00    +0.000 N 
ATOM     16  H   UNL     1       6.996   3.552  19.220  0.00  0.00    +0.000 HD
ENDROOT
BRANCH   1  18
ATOM     17  N   UNL     1       0.222   3.189  20.196  0.00  0.00    +0.000 N 
ATOM     18  C   UNL     1       0.873   2.663  19.116  0.00  0.00    +0.000 C 
ATOM     19  O   UNL     1       0.266   2.027  18.262  0.00  0.00    +0.000 OA
ATOM     20  H   UNL     1      -0.786   3.104  20.182  0.00  0.00    +0.000 HD
ATOM     21  H   UNL     1       0.618   3.941  20.741  0.00  0.00    +0.000 HD
ENDBRANCH   1  18
BRANCH  11  22
ATOM     22  N   UNL     1       7.972   9.345  17.770  0.00  0.00    +0.000 N 
ATOM     23  H   UNL     1       8.941   9.564  17.560  0.00  0.00    +0.000 HD
ATOM     24  H   UNL     1       7.619   9.863  18.567  0.00  0.00    +0.000 HD
ENDBRANCH  11  22
TORSDOF 2
ENDMDL
MODEL 2
REMARK VINA RESULT:      -8.0      5.208      5.853
REMARK  Name = 
REMARK  2 active torsions:
REMARK  status: ('A' for Active; 'I' for Inactive)
REMARK    1  A    between atoms: C_2  and  C_4
REMARK    2  A    between atoms: C_14  and  N_15
REMARK                            x       y       z     vdW  Elec       q    Type
REMARK                         _______ _______ _______ _____ _____    ______ ____
ROOT
ATOM      1  C   UNL     1       2.067   4.156  18.766  0.00  0.00    +0.000 A 
ATOM      2  C   UNL     1       1.615   4.230  20.088  0.00  0.00    +0.000 A 
ATOM      3  C   UNL     1       1.616   5.462  20.753  0.00  0.00    +0.000 A 
ATOM      4  C   UNL     1       2.056   6.628  20.111  0.00  0.00    +0.000 A 
ATOM      5  C   UNL     1       2.505   6.547  18.788  0.00  0.00    +0.000 A 
ATOM      6  C   UNL     1       2.526   5.312  18.125  0.00  0.00    +0.000 A 
ATOM      7  C   UNL     1       2.936   7.801  18.081  0.00  0.00    +0.000 C 
ATOM      8  C   UNL     1       1.722   8.669  17.768  0.00  0.00    +0.000 C 
ATOM      9  C   UNL     1       1.006   9.320  18.933  0.00  0.00    +0.000 A 
ATOM     10  C   UNL     1       0.085  10.337  18.587  0.00  0.00    +0.000 A 
ATOM     11  C   UNL     1      -0.630  11.057  19.546  0.00  0.00    +0.000 A 
ATOM     12  C   UNL     1      -0.464  10.712  20.881  0.00  0.00    +0.000 A 
ATOM     13  C   UNL     1       0.436   9.706  21.248  0.00  0.00    +0.000 A 
ATOM     14  C   UNL     1       1.158   8.971  20.287  0.00  0.00    +0.000 A 
ATOM     15  N   UNL     1       1.928   7.878  20.755  0.00  0.00    +0.000 N 
ATOM     16  H   UNL     1       1.917   7.794  21.766  0.00  0.00    +0.000 HD
ENDROOT
BRANCH   1  18
ATOM     17  N   UNL     1       1.715   1.752  18.670  0.00  0.00    +0.000 N 
ATOM     18  C   UNL     1       2.076   2.887  18.000  0.00  0.00    +0.000 C 
ATOM     19  O   UNL     1       2.340   2.856  16.803  0.00  0.00    +0.000 OA
ATOM     20  H   UNL     1       1.586   0.929  18.096  0.00  0.00    +0.000 HD
ATOM     21  H   UNL     1       1.221   1.788  19.549  0.00  0.00    +0.000 HD
ENDBRANCH   1  18
BRANCH  11  22
ATOM     22  N   UNL     1      -1.658  11.919  19.156  0.00  0.00    +0.000 N 
ATOM     23  H   UNL     1      -1.629  12.182  18.176  0.00  0.00    +0.000 HD
ATOM     24  H   UNL     1      -1.790  12.716  19.770  0.00  0.00    +0.000 HD
ENDBRANCH  11  22
TORSDOF 2
ENDMDL
MODEL 3
REMARK VINA RESULT:      -7.3      4.522      6.144
REMARK  Name = 
REMARK  2 active torsions:
REMARK  status: ('A' for Active; 'I' for Inactive)
REMARK    1  A    between atoms: C_2  and  C_4
REMARK    2  A    between atoms: C_14  and  N_15
REMARK                            x       y       z     vdW  Elec       q    Type
REMARK                         _______ _______ _______ _____ _____    ______ ____
ROOT
ATOM      1  C   UNL     1       6.584   5.640  18.177  0.00  0.00    +0.000 A 
ATOM      2  C   UNL     1       6.558   6.707  17.271  0.00  0.00    +0.000 A 
ATOM      3  C   UNL     1       5.338   7.317  16.954  0.00  0.00    +0.000 A 
ATOM      4  C   UNL     1       4.140   6.880  17.536  0.00  0.00    +0.000 A 
ATOM      5  C   UNL     1       4.174   5.814  18.442  0.00  0.00    +0.000 A 
ATOM      6  C   UNL     1       5.389   5.186  18.748  0.00  0.00    +0.000 A 
ATOM      7  C   UNL     1       2.899   5.371  19.102  0.00  0.00    +0.000 C 
ATOM      8  C   UNL     1       2.448   6.411  20.122  0.00  0.00    +0.000 C 
ATOM      9  C   UNL     1       1.960   7.744  19.594  0.00  0.00    +0.000 A 
ATOM     10  C   UNL     1       1.284   8.557  20.534  0.00  0.00    +0.000 A 
ATOM     11  C   UNL     1       0.743   9.799  20.197  0.00  0.00    +0.000 A 
ATOM     12  C   UNL     1       0.934  10.266  18.904  0.00  0.00    +0.000 A 
ATOM     13  C   UNL     1       1.604   9.484  17.958  0.00  0.00    +0.000 A 
ATOM     14  C   UNL     1       2.157   8.232  18.290  0.00  0.00    +0.000 A 
ATOM     15  N   UNL     1       2.943   7.590  17.300  0.00  0.00    +0.000 N 
ATOM     16  H   UNL     1       2.959   8.097  16.422  0.00  0.00    +0.000 HD
ENDROOT
BRANCH   1  18
ATOM     17  N   UNL     1       8.350   5.254  19.804  0.00  0.00    +0.000 N 
ATOM     18  C   UNL     1       7.842   4.963  18.569  0.00  0.00    +0.000 C 
ATOM     19  O   UNL     1       8.382   4.133  17.846  0.00  0.00    +0.000 OA
ATOM     20  H   UNL     1       9.121   4.674  20.107  0.00  0.00    +0.000 HD
ATOM     21  H   UNL     1       7.789   5.693  20.520  0.00  0.00    +0.000 HD
ENDBRANCH   1  18
BRANCH  11  22
ATOM     22  N   UNL     1       0.248  10.645  21.194  0.00  0.00    +0.000 N 
ATOM     23  H   UNL     1       0.850  10.723  22.008  0.00  0.00    +0.000 HD
ATOM     24  H   UNL     1      -0.721  10.477  21.441  0.00  0.00    +0.000 HD
ENDBRANCH  11  22
TORSDOF 2
ENDMDL
MODEL 4
REMARK VINA RESULT:      -7.1      3.535      6.167
REMARK  Name = 
REMARK  2 active torsions:
REMARK  status: ('A' for Active; 'I' for Inactive)
REMARK    1  A    between atoms: C_2  and  C_4
REMARK    2  A    between atoms: C_14  and  N_15
REMARK                            x       y       z     vdW  Elec       q    Type
REMARK                         _______ _______ _______ _____ _____    ______ ____
ROOT
ATOM      1  C   UNL     1       7.084   4.759  13.995  0.00  0.00    +0.000 A 
ATOM      2  C   UNL     1       5.943   3.999  13.713  0.00  0.00    +0.000 A 
ATOM      3  C   UNL     1       5.201   3.447  14.765  0.00  0.00    +0.000 A 
ATOM      4  C   UNL     1       5.581   3.650  16.100  0.00  0.00    +0.000 A 
ATOM      5  C   UNL     1       6.722   4.412  16.373  0.00  0.00    +0.000 A 
ATOM      6  C   UNL     1       7.480   4.949  15.323  0.00  0.00    +0.000 A 
ATOM      7  C   UNL     1       7.108   4.669  17.803  0.00  0.00    +0.000 C 
ATOM      8  C   UNL     1       6.128   5.646  18.442  0.00  0.00    +0.000 C 
ATOM      9  C   UNL     1       4.715   5.160  18.689  0.00  0.00    +0.000 A 
ATOM     10  C   UNL     1       3.932   5.978  19.539  0.00  0.00    +0.000 A 
ATOM     11  C   UNL     1       2.622   5.651  19.893  0.00  0.00    +0.000 A 
ATOM     12  C   UNL     1       2.060   4.509  19.337  0.00  0.00    +0.000 A 
ATOM     13  C   UNL     1       2.810   3.688  18.490  0.00  0.00    +0.000 A 
ATOM     14  C   UNL     1       4.131   4.012  18.123  0.00  0.00    +0.000 A 
ATOM     15  N   UNL     1       4.749   3.194  17.145  0.00  0.00    +0.000 N 
ATOM     16  H   UNL     1       4.169   2.410  16.866  0.00  0.00    +0.000 HD
ENDROOT
BRANCH   1  18
ATOM     17  N   UNL     1       9.025   6.059  13.320  0.00  0.00    +0.000 N 
ATOM     18  C   UNL     1       7.903   5.384  12.930  0.00  0.00    +0.000 C 
ATOM     19  O   UNL     1       7.624   5.260  11.742  0.00  0.00    +0.000 OA
ATOM     20  H   UNL     1       9.644   6.348  12.573  0.00  0.00    +0.000 HD
ATOM     21  H   UNL     1       9.431   5.931  14.236  0.00  0.00    +0.000 HD
ENDBRANCH   1  18
BRANCH  11  22
ATOM     22  N   UNL     1       1.828   6.573  20.580  0.00  0.00    +0.000 N 
ATOM     23  H   UNL     1       1.973   7.537  20.296  0.00  0.00    +0.000 HD
ATOM     24  H   UNL     1       1.834   6.459  21.588  0.00  0.00    +0.000 HD
ENDBRANCH  11  22
TORSDOF 2
ENDMDL
MODEL 5
REMARK VINA RESULT:      -7.0      4.606      6.262
REMARK  Name = 
REMARK  2 active torsions:
REMARK  status: ('A' for Active; 'I' for Inactive)
REMARK    1  A    between atoms: C_2  and  C_4
REMARK    2  A    between atoms: C_14  and  N_15
REMARK                            x       y       z     vdW  Elec       q    Type
REMARK                         _______ _______ _______ _____ _____    ______ ____
ROOT
ATOM      1  C   UNL     1       6.126   5.627  17.866  0.00  0.00    +0.000 A 
ATOM      2  C   UNL     1       6.047   6.831  17.157  0.00  0.00    +0.000 A 
ATOM      3  C   UNL     1       4.823   7.506  17.071  0.00  0.00    +0.000 A 
ATOM      4  C   UNL     1       3.673   6.997  17.693  0.00  0.00    +0.000 A 
ATOM      5  C   UNL     1       3.760   5.793  18.401  0.00  0.00    +0.000 A 
ATOM      6  C   UNL     1       4.979   5.103  18.472  0.00  0.00    +0.000 A 
ATOM      7  C   UNL     1       2.542   5.266  19.105  0.00  0.00    +0.000 C 
ATOM      8  C   UNL     1       2.229   6.127  20.324  0.00  0.00    +0.000 C 
ATOM      9  C   UNL     1       1.736   7.537  20.078  0.00  0.00    +0.000 A 
ATOM     10  C   UNL     1       1.183   8.192  21.204  0.00  0.00    +0.000 A 
ATOM     11  C   UNL     1       0.653   9.481  21.135  0.00  0.00    +0.000 A 
ATOM     12  C   UNL     1       0.732  10.157  19.924  0.00  0.00    +0.000 A 
ATOM     13  C   UNL     1       1.280   9.534  18.798  0.00  0.00    +0.000 A 
ATOM     14  C   UNL     1       1.821   8.235  18.859  0.00  0.00    +0.000 A 
ATOM     15  N   UNL     1       2.483   7.756  17.702  0.00  0.00    +0.000 N 
ATOM     16  H   UNL     1       2.430   8.403  16.923  0.00  0.00    +0.000 HD
ENDROOT
BRANCH   1  18
ATOM     17  N   UNL     1       7.881   4.255  16.891  0.00  0.00    +0.000 N 
ATOM     18  C   UNL     1       7.393   4.872  18.009  0.00  0.00    +0.000 C 
ATOM     19  O   UNL     1       8.013   4.843  19.066  0.00  0.00    +0.000 OA
ATOM     20  H   UNL     1       8.815   3.874  16.976  0.00  0.00    +0.000 HD
ATOM     21  H   UNL     1       7.561   4.500  15.966  0.00  0.00    +0.000 HD
ENDBRANCH   1  18
BRANCH  11  22
ATOM     22  N   UNL     1       0.287  10.156  22.303  0.00  0.00    +0.000 N 
ATOM     23  H   UNL     1       1.063  10.596  22.788  0.00  0.00    +0.000 HD
ATOM     24  H   UNL     1      -0.307   9.619  22.926  0.00  0.00    +0.000 HD
ENDBRANCH  11  22
TORSDOF 2
ENDMDL
MODEL 6
REMARK VINA RESULT:      -6.8      3.140      6.123
REMARK  Name = 
REMARK  2 active torsions:
REMARK  status: ('A' for Active; 'I' for Inactive)
REMARK    1  A    between atoms: C_2  and  C_4
REMARK    2  A    between atoms: C_14  and  N_15
REMARK                            x       y       z     vdW  Elec       q    Type
REMARK                         _______ _______ _______ _____ _____    ______ ____
ROOT
ATOM      1  C   UNL     1       6.803   5.087  15.403  0.00  0.00    +0.000 A 
ATOM      2  C   UNL     1       7.418   4.377  16.441  0.00  0.00    +0.000 A 
ATOM      3  C   UNL     1       6.897   4.456  17.738  0.00  0.00    +0.000 A 
ATOM      4  C   UNL     1       5.762   5.231  18.014  0.00  0.00    +0.000 A 
ATOM      5  C   UNL     1       5.152   5.938  16.972  0.00  0.00    +0.000 A 
ATOM      6  C   UNL     1       5.682   5.879  15.675  0.00  0.00    +0.000 A 
ATOM      7  C   UNL     1       3.910   6.736  17.253  0.00  0.00    +0.000 C 
ATOM      8  C   UNL     1       2.732   5.800  17.500  0.00  0.00    +0.000 C 
ATOM      9  C   UNL     1       2.746   4.976  18.770  0.00  0.00    +0.000 A 
ATOM     10  C   UNL     1       1.519   4.354  19.104  0.00  0.00    +0.000 A 
ATOM     11  C   UNL     1       1.357   3.590  20.261  0.00  0.00    +0.000 A 
ATOM     12  C   UNL     1       2.465   3.392  21.074  0.00  0.00    +0.000 A 
ATOM     13  C   UNL     1       3.691   3.990  20.763  0.00  0.00    +0.000 A 
ATOM     14  C   UNL     1       3.864   4.759  19.596  0.00  0.00    +0.000 A 
ATOM     15  N   UNL     1       5.180   5.195  19.300  0.00  0.00    +0.000 N 
ATOM     16  H   UNL     1       5.848   4.946  20.021  0.00  0.00    +0.000 HD
ENDROOT
BRANCH   1  18
ATOM     17  N   UNL     1       6.634   4.202  13.145  0.00  0.00    +0.000 N 
ATOM     18  C   UNL     1       7.294   5.033  14.006  0.00  0.00    +0.000 C 
ATOM     19  O   UNL     1       8.215   5.742  13.616  0.00  0.00    +0.000 OA
ATOM     20  H   UNL     1       6.889   4.292  12.169  0.00  0.00    +0.000 HD
ATOM     21  H   UNL     1       5.715   3.841  13.353  0.00  0.00    +0.000 HD
ENDBRANCH   1  18
BRANCH  11  22
ATOM     22  N   UNL     1       0.189   2.847  20.456  0.00  0.00    +0.000 N 
ATOM     23  H   UNL     1      -0.025   2.205  19.699  0.00  0.00    +0.000 HD
ATOM     24  H   UNL     1      -0.614   3.399  20.737  0.00  0.00    +0.000 HD
ENDBRANCH  11  22
TORSDOF 2
ENDMDL
MODEL 7
REMARK VINA RESULT:      -6.8      5.090      7.051
REMARK  Name = 
REMARK  2 active torsions:
REMARK  status: ('A' for Active; 'I' for Inactive)
REMARK    1  A    between atoms: C_2  and  C_4
REMARK    2  A    between atoms: C_14  and  N_15
REMARK                            x       y       z     vdW  Elec       q    Type
REMARK                         _______ _______ _______ _____ _____    ______ ____
ROOT
ATOM      1  C   UNL     1       0.677  10.095  19.045  0.00  0.00    +0.000 A 
ATOM      2  C   UNL     1       1.246   9.854  17.789  0.00  0.00    +0.000 A 
ATOM      3  C   UNL     1       2.087   8.748  17.611  0.00  0.00    +0.000 A 
ATOM      4  C   UNL     1       2.363   7.873  18.671  0.00  0.00    +0.000 A 
ATOM      5  C   UNL     1       1.790   8.120  19.923  0.00  0.00    +0.000 A 
ATOM      6  C   UNL     1       0.964   9.237  20.113  0.00  0.00    +0.000 A 
ATOM      7  C   UNL     1       2.048   7.162  21.051  0.00  0.00    +0.000 C 
ATOM      8  C   UNL     1       1.301   5.855  20.807  0.00  0.00    +0.000 C 
ATOM      9  C   UNL     1       1.779   4.976  19.670  0.00  0.00    +0.000 A 
ATOM     10  C   UNL     1       1.262   3.658  19.663  0.00  0.00    +0.000 A 
ATOM     11  C   UNL     1       1.631   2.715  18.703  0.00  0.00    +0.000 A 
ATOM     12  C   UNL     1       2.492   3.115  17.690  0.00  0.00    +0.000 A 
ATOM     13  C   UNL     1       3.012   4.414  17.671  0.00  0.00    +0.000 A 
ATOM     14  C   UNL     1       2.641   5.373  18.633  0.00  0.00    +0.000 A 
ATOM     15  N   UNL     1       3.109   6.697  18.437  0.00  0.00    +0.000 N 
ATOM     16  H   UNL     1       3.726   6.781  17.636  0.00  0.00    +0.000 HD
ENDROOT
BRANCH   1  18
ATOM     17  N   UNL     1      -0.504  12.063  18.243  0.00  0.00    +0.000 N 
ATOM     18  C   UNL     1      -0.234  11.237  19.297  0.00  0.00    +0.000 C 
ATOM     19  O   UNL     1      -0.771  11.407  20.385  0.00  0.00    +0.000 OA
ATOM     20  H   UNL     1      -1.238  12.743  18.397  0.00  0.00    +0.000 HD
ATOM     21  H   UNL     1      -0.319  11.787  17.289  0.00  0.00    +0.000 HD
ENDBRANCH   1  18
BRANCH  11  22
ATOM     22  N   UNL     1       0.960   1.491  18.625  0.00  0.00    +0.000 N 
ATOM     23  H   UNL     1      -0.017   1.570  18.362  0.00  0.00    +0.000 HD
ATOM     24  H   UNL     1       1.100   0.887  19.428  0.00  0.00    +0.000 HD
ENDBRANCH  11  22
TORSDOF 2
ENDMDL
MODEL 8
REMARK VINA RESULT:      -6.8      5.231      6.466
REMARK  Name = 
REMARK  2 active torsions:
REMARK  status: ('A' for Active; 'I' for Inactive)
REMARK    1  A    between atoms: C_2  and  C_4
REMARK    2  A    between atoms: C_14  and  N_15
REMARK                            x       y       z     vdW  Elec       q    Type
REMARK                         _______ _______ _______ _____ _____    ______ ____
ROOT
ATOM      1  C   UNL     1       5.369   5.798  18.587  0.00  0.00    +0.000 A 
ATOM      2  C   UNL     1       5.294   6.675  17.500  0.00  0.00    +0.000 A 
ATOM      3  C   UNL     1       4.103   7.368  17.249  0.00  0.00    +0.000 A 
ATOM      4  C   UNL     1       2.984   7.202  18.078  0.00  0.00    +0.000 A 
ATOM      5  C   UNL     1       3.067   6.324  19.164  0.00  0.00    +0.000 A 
ATOM      6  C   UNL     1       4.250   5.612  19.407  0.00  0.00    +0.000 A 
ATOM      7  C   UNL     1       1.885   6.176  20.080  0.00  0.00    +0.000 C 
ATOM      8  C   UNL     1       1.718   7.433  20.926  0.00  0.00    +0.000 C 
ATOM      9  C   UNL     1       1.279   8.699  20.219  0.00  0.00    +0.000 A 
ATOM     10  C   UNL     1       0.854   9.750  21.066  0.00  0.00    +0.000 A 
ATOM     11  C   UNL     1       0.387  10.969  20.570  0.00  0.00    +0.000 A 
ATOM     12  C   UNL     1       0.400  11.164  19.195  0.00  0.00    +0.000 A 
ATOM     13  C   UNL     1       0.822  10.143  18.337  0.00  0.00    +0.000 A 
ATOM     14  C   UNL     1       1.299   8.912  18.829  0.00  0.00    +0.000 A 
ATOM     15  N   UNL     1       1.839   8.005  17.883  0.00  0.00    +0.000 N 
ATOM     16  H   UNL     1       1.755   8.337  16.929  0.00  0.00    +0.000 HD
ENDROOT
BRANCH   1  18
ATOM     17  N   UNL     1       7.064   4.162  17.983  0.00  0.00    +0.000 N 
ATOM     18  C   UNL     1       6.604   5.047  18.917  0.00  0.00    +0.000 C 
ATOM     19  O   UNL     1       7.224   5.246  19.956  0.00  0.00    +0.000 OA
ATOM     20  H   UNL     1       7.981   3.774  18.164  0.00  0.00    +0.000 HD
ATOM     21  H   UNL     1       6.753   4.192  17.023  0.00  0.00    +0.000 HD
ENDBRANCH   1  18
BRANCH  11  22
ATOM     22  N   UNL     1       0.153  12.039  21.439  0.00  0.00    +0.000 N 
ATOM     23  H   UNL     1      -0.682  12.574  21.221  0.00  0.00    +0.000 HD
ATOM     24  H   UNL     1       0.962  12.629  21.601  0.00  0.00    +0.000 HD
ENDBRANCH  11  22
TORSDOF 2
ENDMDL
MODEL 9
REMARK VINA RESULT:      -6.7      8.976      9.898
REMARK  Name = 
REMARK  2 active torsions:
REMARK  status: ('A' for Active; 'I' for Inactive)
REMARK    1  A    between atoms: C_2  and  C_4
REMARK    2  A    between atoms: C_14  and  N_15
REMARK                            x       y       z     vdW  Elec       q    Type
REMARK                         _______ _______ _______ _____ _____    ______ ____
ROOT
ATOM      1  C   UNL     1      -4.980  11.474  17.796  0.00  0.00    +0.000 A 
ATOM      2  C   UNL     1      -4.358  10.953  16.656  0.00  0.00    +0.000 A 
ATOM      3  C   UNL     1      -2.960  10.888  16.598  0.00  0.00    +0.000 A 
ATOM      4  C   UNL     1      -2.172  11.330  17.671  0.00  0.00    +0.000 A 
ATOM      5  C   UNL     1      -2.802  11.849  18.807  0.00  0.00    +0.000 A 
ATOM      6  C   UNL     1      -4.200  11.936  18.862  0.00  0.00    +0.000 A 
ATOM      7  C   UNL     1      -1.965  12.284  19.977  0.00  0.00    +0.000 C 
ATOM      8  C   UNL     1      -1.377  11.067  20.682  0.00  0.00    +0.000 C 
ATOM      9  C   UNL     1      -0.317  10.275  19.946  0.00  0.00    +0.000 A 
ATOM     10  C   UNL     1       0.404   9.347  20.735  0.00  0.00    +0.000 A 
ATOM     11  C   UNL     1       1.437   8.566  20.215  0.00  0.00    +0.000 A 
ATOM     12  C   UNL     1       1.718   8.671  18.859  0.00  0.00    +0.000 A 
ATOM     13  C   UNL     1       1.015   9.576  18.056  0.00  0.00    +0.000 A 
ATOM     14  C   UNL     1      -0.032  10.365  18.572  0.00  0.00    +0.000 A 
ATOM     15  N   UNL     1      -0.774  11.138  17.644  0.00  0.00    +0.000 N 
ATOM     16  H   UNL     1      -0.409  11.076  16.700  0.00  0.00    +0.000 HD
ENDROOT
BRANCH   1  18
ATOM     17  N   UNL     1      -7.073  10.565  18.637  0.00  0.00    +0.000 N 
ATOM     18  C   UNL     1      -6.454  11.555  17.927  0.00  0.00    +0.000 C 
ATOM     19  O   UNL     1      -7.093  12.496  17.469  0.00  0.00    +0.000 OA
ATOM     20  H   UNL     1      -8.053  10.719  18.838  0.00  0.00    +0.000 HD
ATOM     21  H   UNL     1      -6.561   9.957  19.259  0.00  0.00    +0.000 HD
ENDBRANCH   1  18
BRANCH  11  22
ATOM     22  N   UNL     1       1.995   7.537  20.979  0.00  0.00    +0.000 N 
ATOM     23  H   UNL     1       1.360   6.766  21.162  0.00  0.00    +0.000 HD
ATOM     24  H   UNL     1       2.476   7.852  21.814  0.00  0.00    +0.000 HD
ENDBRANCH  11  22
TORSDOF 2
ENDMDL
