MODEL 1
REMARK VINA RESULT:      -7.9      0.000      0.000
REMARK  Name = 
REMARK  3 active torsions:
REMARK  status: ('A' for Active; 'I' for Inactive)
REMARK    1  A    between atoms: C_2  and  C_5
REMARK    2  A    between atoms: C_9  and  N_10
REMARK    3  A    between atoms: C_19  and  C_20
REMARK                            x       y       z     vdW  Elec       q    Type
REMARK                         _______ _______ _______ _____ _____    ______ ____
ROOT
ATOM      1  N   UNL     1       2.189   6.735  20.020  0.00  0.00    +0.000 N 
ATOM      2  C   UNL     1       2.402   7.509  18.785  0.00  0.00    +0.000 C 
ATOM      3  C   UNL     1       1.220   8.485  18.580  0.00  0.00    +0.000 C 
ATOM      4  N   UNL     1       0.993   9.294  19.781  0.00  0.00    +0.000 N 
ATOM      5  C   UNL     1       0.870  10.661  19.728  0.00  0.00    +0.000 A 
ATOM      6  N   UNL     1       1.703  11.397  20.425  0.00  0.00    +0.000 NA
ATOM      7  C   UNL     1       1.574  12.751  20.315  0.00  0.00    +0.000 A 
ATOM      8  S   UNL     1       2.656  13.787  21.125  0.00  0.00    +0.000 S 
ATOM      9  C   UNL     1       1.837  15.176  20.561  0.00  0.00    +0.000 A 
ATOM     10  C   UNL     1       0.748  14.894  19.747  0.00  0.00    +0.000 A 
ATOM     11  C   UNL     1       0.649  13.471  19.574  0.00  0.00    +0.000 A 
ATOM     12  N   UNL     1      -0.243  12.669  18.818  0.00  0.00    +0.000 N 
ATOM     13  C   UNL     1      -1.235  12.978  17.921  0.00  0.00    +0.000 A 
ATOM     14  C   UNL     1      -1.924  11.822  17.616  0.00  0.00    +0.000 A 
ATOM     15  C   UNL     1      -1.242  10.754  18.236  0.00  0.00    +0.000 A 
ATOM     16  C   UNL     1      -0.172  11.293  18.925  0.00  0.00    +0.000 A 
ATOM     17  C   UNL     1       0.872   8.560  21.041  0.00  0.00    +0.000 C 
ATOM     18  C   UNL     1       2.036   7.570  21.229  0.00  0.00    +0.000 C 
ENDROOT
BRANCH   1  23
ATOM     19  C   UNL     1       2.910   3.213  19.047  0.00  0.00    +0.000 A 
ATOM     20  C   UNL     1       2.600   2.548  20.240  0.00  0.00    +0.000 A 
ATOM     21  C   UNL     1       2.178   3.276  21.348  0.00  0.00    +0.000 A 
ATOM     22  C   UNL     1       2.064   4.666  21.267  0.00  0.00    +0.000 A 
ATOM     23  C   UNL     1       2.358   5.372  20.093  0.00  0.00    +0.000 A 
ATOM     24  C   UNL     1       2.783   4.615  18.991  0.00  0.00    +0.000 A 
BRANCH  19  26
ATOM     25  F   UNL     1       2.416   2.331  16.867  0.00  0.00    +0.000 F 
ATOM     26  C   UNL     1       3.374   2.462  17.827  0.00  0.00    +0.000 C 
ATOM     27  F   UNL     1       3.784   1.195  18.118  0.00  0.00    +0.000 F 
ATOM     28  F   UNL     1       4.433   3.063  17.216  0.00  0.00    +0.000 F 
ENDBRANCH  19  26
ENDBRANCH   1  23
BRANCH  10  29
ATOM     29  C   UNL     1      -0.103  15.994  19.282  0.00  0.00    +0.000 A 
ATOM     30  C   UNL     1       0.246  16.754  18.154  0.00  0.00    +0.000 A 
ATOM     31  C   UNL     1      -0.549  17.826  17.735  0.00  0.00    +0.000 A 
ATOM     32  C   UNL     1      -1.726  18.127  18.414  0.00  0.00    +0.000 A 
ATOM     33  C   UNL     1      -2.085  17.387  19.536  0.00  0.00    +0.000 A 
ATOM     34  C   UNL     1      -1.256  16.357  19.990  0.00  0.00    +0.000 A 
ENDBRANCH  10  29
TORSDOF 3
ENDMDL
MODEL 2
REMARK VINA RESULT:      -7.9      0.068      1.042
REMARK  Name = 
REMARK  3 active torsions:
REMARK  status: ('A' for Active; 'I' for Inactive)
REMARK    1  A    between atoms: C_2  and  C_5
REMARK    2  A    between atoms: C_9  and  N_10
REMARK    3  A    between atoms: C_19  and  C_20
REMARK                            x       y       z     vdW  Elec       q    Type
REMARK                         _______ _______ _______ _____ _____    ______ ____
ROOT
ATOM      1  N   UNL     1       2.203   6.766  20.018  0.00  0.00    +0.000 N 
ATOM      2  C   UNL     1       2.442   7.556  18.798  0.00  0.00    +0.000 C 
ATOM      3  C   UNL     1       1.260   8.527  18.575  0.00  0.00    +0.000 C 
ATOM      4  N   UNL     1       0.997   9.320  19.779  0.00  0.00    +0.000 N 
ATOM      5  C   UNL     1       0.867  10.687  19.740  0.00  0.00    +0.000 A 
ATOM      6  N   UNL     1       1.678  11.420  20.466  0.00  0.00    +0.000 NA
ATOM      7  C   UNL     1       1.544  12.773  20.369  0.00  0.00    +0.000 A 
ATOM      8  S   UNL     1       2.598  13.807  21.218  0.00  0.00    +0.000 S 
ATOM      9  C   UNL     1       1.785  15.197  20.650  0.00  0.00    +0.000 A 
ATOM     10  C   UNL     1       0.719  14.918  19.805  0.00  0.00    +0.000 A 
ATOM     11  C   UNL     1       0.633  13.497  19.614  0.00  0.00    +0.000 A 
ATOM     12  N   UNL     1      -0.235  12.699  18.826  0.00  0.00    +0.000 N 
ATOM     13  C   UNL     1      -1.206  13.013  17.909  0.00  0.00    +0.000 A 
ATOM     14  C   UNL     1      -1.880  11.857  17.572  0.00  0.00    +0.000 A 
ATOM     15  C   UNL     1      -1.207  10.785  18.196  0.00  0.00    +0.000 A 
ATOM     16  C   UNL     1      -0.158  11.322  18.919  0.00  0.00    +0.000 A 
ATOM     17  C   UNL     1       0.850   8.570  21.028  0.00  0.00    +0.000 C 
ATOM     18  C   UNL     1       2.014   7.584  21.233  0.00  0.00    +0.000 C 
ENDROOT
BRANCH   1  23
ATOM     19  C   UNL     1       2.929   3.254  19.012  0.00  0.00    +0.000 A 
ATOM     20  C   UNL     1       2.634   2.579  20.202  0.00  0.00    +0.000 A 
ATOM     21  C   UNL     1       2.221   3.296  21.320  0.00  0.00    +0.000 A 
ATOM     22  C   UNL     1       2.100   4.686  21.251  0.00  0.00    +0.000 A 
ATOM     23  C   UNL     1       2.378   5.403  20.079  0.00  0.00    +0.000 A 
ATOM     24  C   UNL     1       2.795   4.656  18.967  0.00  0.00    +0.000 A 
BRANCH  19  26
ATOM     25  F   UNL     1       3.723   1.216  18.018  0.00  0.00    +0.000 F 
ATOM     26  C   UNL     1       3.384   2.514  17.781  0.00  0.00    +0.000 C 
ATOM     27  F   UNL     1       4.477   3.085  17.202  0.00  0.00    +0.000 F 
ATOM     28  F   UNL     1       2.426   2.476  16.812  0.00  0.00    +0.000 F 
ENDBRANCH  19  26
ENDBRANCH   1  23
BRANCH  10  29
ATOM     29  C   UNL     1      -0.128  16.019  19.333  0.00  0.00    +0.000 A 
ATOM     30  C   UNL     1      -1.289  16.390  20.029  0.00  0.00    +0.000 A 
ATOM     31  C   UNL     1      -2.114  17.415  19.556  0.00  0.00    +0.000 A 
ATOM     32  C   UNL     1      -1.766  18.114  18.403  0.00  0.00    +0.000 A 
ATOM     33  C   UNL     1      -0.619  17.758  17.700  0.00  0.00    +0.000 A 
ATOM     34  C   UNL     1       0.168  16.690  18.140  0.00  0.00    +0.000 A 
ENDBRANCH  10  29
TORSDOF 3
ENDMDL
MODEL 3
REMARK VINA RESULT:      -7.7      3.452      4.519
REMARK  Name = 
REMARK  3 active torsions:
REMARK  status: ('A' for Active; 'I' for Inactive)
REMARK    1  A    between atoms: C_2  and  C_5
REMARK    2  A    between atoms: C_9  and  N_10
REMARK    3  A    between atoms: C_19  and  C_20
REMARK                            x       y       z     vdW  Elec       q    Type
REMARK                         _______ _______ _______ _____ _____    ______ ____
ROOT
ATOM      1  N   UNL     1       3.287   6.981  18.071  0.00  0.00    +0.000 N 
ATOM      2  C   UNL     1       2.170   6.582  18.944  0.00  0.00    +0.000 C 
ATOM      3  C   UNL     1       1.754   7.783  19.826  0.00  0.00    +0.000 C 
ATOM      4  N   UNL     1       1.501   8.972  19.008  0.00  0.00    +0.000 N 
ATOM      5  C   UNL     1       0.356   9.720  19.141  0.00  0.00    +0.000 A 
ATOM      6  N   UNL     1      -0.418   9.880  18.094  0.00  0.00    +0.000 NA
ATOM      7  C   UNL     1      -1.565  10.595  18.275  0.00  0.00    +0.000 A 
ATOM      8  S   UNL     1      -2.667  10.795  16.992  0.00  0.00    +0.000 S 
ATOM      9  C   UNL     1      -3.695  11.766  17.951  0.00  0.00    +0.000 A 
ATOM     10  C   UNL     1      -3.242  11.950  19.250  0.00  0.00    +0.000 A 
ATOM     11  C   UNL     1      -2.024  11.211  19.430  0.00  0.00    +0.000 A 
ATOM     12  N   UNL     1      -1.186  11.026  20.560  0.00  0.00    +0.000 N 
ATOM     13  C   UNL     1      -1.307  11.399  21.875  0.00  0.00    +0.000 A 
ATOM     14  C   UNL     1      -0.116  11.132  22.517  0.00  0.00    +0.000 A 
ATOM     15  C   UNL     1       0.708  10.445  21.600  0.00  0.00    +0.000 A 
ATOM     16  C   UNL     1       0.004  10.339  20.415  0.00  0.00    +0.000 A 
ATOM     17  C   UNL     1       2.554   9.341  18.060  0.00  0.00    +0.000 C 
ATOM     18  C   UNL     1       2.985   8.137  17.203  0.00  0.00    +0.000 C 
ENDROOT
BRANCH   1  23
ATOM     19  C   UNL     1       5.932   4.915  16.457  0.00  0.00    +0.000 A 
ATOM     20  C   UNL     1       6.693   4.550  17.575  0.00  0.00    +0.000 A 
ATOM     21  C   UNL     1       6.330   5.009  18.837  0.00  0.00    +0.000 A 
ATOM     22  C   UNL     1       5.210   5.830  18.985  0.00  0.00    +0.000 A 
ATOM     23  C   UNL     1       4.416   6.215  17.896  0.00  0.00    +0.000 A 
ATOM     24  C   UNL     1       4.805   5.740  16.634  0.00  0.00    +0.000 A 
BRANCH  19  26
ATOM     25  F   UNL     1       7.525   4.857  14.659  0.00  0.00    +0.000 F 
ATOM     26  C   UNL     1       6.295   4.443  15.073  0.00  0.00    +0.000 C 
ATOM     27  F   UNL     1       5.417   4.877  14.126  0.00  0.00    +0.000 F 
ATOM     28  F   UNL     1       6.308   3.084  14.973  0.00  0.00    +0.000 F 
ENDBRANCH  19  26
ENDBRANCH   1  23
BRANCH  10  29
ATOM     29  C   UNL     1      -3.978  12.851  20.144  0.00  0.00    +0.000 A 
ATOM     30  C   UNL     1      -5.320  12.605  20.475  0.00  0.00    +0.000 A 
ATOM     31  C   UNL     1      -6.030  13.485  21.298  0.00  0.00    +0.000 A 
ATOM     32  C   UNL     1      -5.395  14.601  21.836  0.00  0.00    +0.000 A 
ATOM     33  C   UNL     1      -4.066  14.860  21.517  0.00  0.00    +0.000 A 
ATOM     34  C   UNL     1      -3.378  14.014  20.643  0.00  0.00    +0.000 A 
ENDBRANCH  10  29
TORSDOF 3
ENDMDL
MODEL 4
REMARK VINA RESULT:      -7.7      3.474      4.490
REMARK  Name = 
REMARK  3 active torsions:
REMARK  status: ('A' for Active; 'I' for Inactive)
REMARK    1  A    between atoms: C_2  and  C_5
REMARK    2  A    between atoms: C_9  and  N_10
REMARK    3  A    between atoms: C_19  and  C_20
REMARK                            x       y       z     vdW  Elec       q    Type
REMARK                         _______ _______ _______ _____ _____    ______ ____
ROOT
ATOM      1  N   UNL     1       3.322   6.948  18.049  0.00  0.00    +0.000 N 
ATOM      2  C   UNL     1       2.208   6.554  18.929  0.00  0.00    +0.000 C 
ATOM      3  C   UNL     1       1.791   7.762  19.800  0.00  0.00    +0.000 C 
ATOM      4  N   UNL     1       1.531   8.943  18.971  0.00  0.00    +0.000 N 
ATOM      5  C   UNL     1       0.384   9.688  19.100  0.00  0.00    +0.000 A 
ATOM      6  N   UNL     1      -0.393   9.835  18.053  0.00  0.00    +0.000 NA
ATOM      7  C   UNL     1      -1.542  10.548  18.231  0.00  0.00    +0.000 A 
ATOM      8  S   UNL     1      -2.649  10.731  16.950  0.00  0.00    +0.000 S 
ATOM      9  C   UNL     1      -3.677  11.709  17.902  0.00  0.00    +0.000 A 
ATOM     10  C   UNL     1      -3.220  11.907  19.198  0.00  0.00    +0.000 A 
ATOM     11  C   UNL     1      -1.999  11.173  19.382  0.00  0.00    +0.000 A 
ATOM     12  N   UNL     1      -1.157  11.004  20.511  0.00  0.00    +0.000 N 
ATOM     13  C   UNL     1      -1.275  11.389  21.822  0.00  0.00    +0.000 A 
ATOM     14  C   UNL     1      -0.081  11.132  22.463  0.00  0.00    +0.000 A 
ATOM     15  C   UNL     1       0.742  10.439  21.550  0.00  0.00    +0.000 A 
ATOM     16  C   UNL     1       0.035  10.318  20.368  0.00  0.00    +0.000 A 
ATOM     17  C   UNL     1       2.580   9.305  18.016  0.00  0.00    +0.000 C 
ATOM     18  C   UNL     1       3.013   8.094  17.170  0.00  0.00    +0.000 C 
ENDROOT
BRANCH   1  23
ATOM     19  C   UNL     1       6.031   4.971  16.429  0.00  0.00    +0.000 A 
ATOM     20  C   UNL     1       6.730   4.521  17.556  0.00  0.00    +0.000 A 
ATOM     21  C   UNL     1       6.307   4.895  18.827  0.00  0.00    +0.000 A 
ATOM     22  C   UNL     1       5.186   5.715  18.976  0.00  0.00    +0.000 A 
ATOM     23  C   UNL     1       4.452   6.183  17.877  0.00  0.00    +0.000 A 
ATOM     24  C   UNL     1       4.902   5.794  16.606  0.00  0.00    +0.000 A 
BRANCH  19  26
ATOM     25  F   UNL     1       6.272   3.275  14.745  0.00  0.00    +0.000 F 
ATOM     26  C   UNL     1       6.460   4.592  15.036  0.00  0.00    +0.000 C 
ATOM     27  F   UNL     1       7.782   4.838  14.812  0.00  0.00    +0.000 F 
ATOM     28  F   UNL     1       5.786   5.284  14.076  0.00  0.00    +0.000 F 
ENDBRANCH  19  26
ENDBRANCH   1  23
BRANCH  10  29
ATOM     29  C   UNL     1      -3.956  12.814  20.086  0.00  0.00    +0.000 A 
ATOM     30  C   UNL     1      -3.338  13.949  20.635  0.00  0.00    +0.000 A 
ATOM     31  C   UNL     1      -4.031  14.792  21.510  0.00  0.00    +0.000 A 
ATOM     32  C   UNL     1      -5.365  14.535  21.815  0.00  0.00    +0.000 A 
ATOM     33  C   UNL     1      -5.992  13.413  21.281  0.00  0.00    +0.000 A 
ATOM     34  C   UNL     1      -5.277  12.538  20.458  0.00  0.00    +0.000 A 
ENDBRANCH  10  29
TORSDOF 3
ENDMDL
MODEL 5
REMARK VINA RESULT:      -7.5      2.814      3.502
REMARK  Name = 
REMARK  3 active torsions:
REMARK  status: ('A' for Active; 'I' for Inactive)
REMARK    1  A    between atoms: C_2  and  C_5
REMARK    2  A    between atoms: C_9  and  N_10
REMARK    3  A    between atoms: C_19  and  C_20
REMARK                            x       y       z     vdW  Elec       q    Type
REMARK                         _______ _______ _______ _____ _____    ______ ____
ROOT
ATOM      1  N   UNL     1       2.388   7.929  18.992  0.00  0.00    +0.000 N 
ATOM      2  C   UNL     1       2.172   9.096  18.119  0.00  0.00    +0.000 C 
ATOM      3  C   UNL     1       0.660   9.415  18.054  0.00  0.00    +0.000 C 
ATOM      4  N   UNL     1       0.091   9.540  19.399  0.00  0.00    +0.000 N 
ATOM      5  C   UNL     1      -0.685  10.612  19.767  0.00  0.00    +0.000 A 
ATOM      6  N   UNL     1      -0.303  11.348  20.784  0.00  0.00    +0.000 NA
ATOM      7  C   UNL     1      -1.077  12.426  21.094  0.00  0.00    +0.000 A 
ATOM      8  S   UNL     1      -0.623  13.480  22.352  0.00  0.00    +0.000 S 
ATOM      9  C   UNL     1      -2.027  14.431  22.140  0.00  0.00    +0.000 A 
ATOM     10  C   UNL     1      -2.856  13.988  21.118  0.00  0.00    +0.000 A 
ATOM     11  C   UNL     1      -2.251  12.847  20.487  0.00  0.00    +0.000 A 
ATOM     12  N   UNL     1      -2.654  12.052  19.383  0.00  0.00    +0.000 N 
ATOM     13  C   UNL     1      -3.688  12.163  18.488  0.00  0.00    +0.000 A 
ATOM     14  C   UNL     1      -3.732  11.015  17.725  0.00  0.00    +0.000 A 
ATOM     15  C   UNL     1      -2.603  10.242  18.070  0.00  0.00    +0.000 A 
ATOM     16  C   UNL     1      -1.918  10.929  19.055  0.00  0.00    +0.000 A 
ATOM     17  C   UNL     1       0.369   8.439  20.323  0.00  0.00    +0.000 C 
ATOM     18  C   UNL     1       1.871   8.106  20.365  0.00  0.00    +0.000 C 
ENDROOT
BRANCH   1  23
ATOM     19  C   UNL     1       4.676   5.724  17.051  0.00  0.00    +0.000 A 
ATOM     20  C   UNL     1       4.793   4.638  17.928  0.00  0.00    +0.000 A 
ATOM     21  C   UNL     1       4.131   4.663  19.151  0.00  0.00    +0.000 A 
ATOM     22  C   UNL     1       3.352   5.769  19.500  0.00  0.00    +0.000 A 
ATOM     23  C   UNL     1       3.201   6.874  18.651  0.00  0.00    +0.000 A 
ATOM     24  C   UNL     1       3.881   6.825  17.425  0.00  0.00    +0.000 A 
BRANCH  19  26
ATOM     25  F   UNL     1       5.127   4.638  14.955  0.00  0.00    +0.000 F 
ATOM     26  C   UNL     1       5.382   5.737  15.720  0.00  0.00    +0.000 C 
ATOM     27  F   UNL     1       6.737   5.796  15.847  0.00  0.00    +0.000 F 
ATOM     28  F   UNL     1       5.033   6.809  14.956  0.00  0.00    +0.000 F 
ENDBRANCH  19  26
ENDBRANCH   1  23
BRANCH  10  29
ATOM     29  C   UNL     1      -4.145  14.653  20.902  0.00  0.00    +0.000 A 
ATOM     30  C   UNL     1      -4.210  16.020  20.588  0.00  0.00    +0.000 A 
ATOM     31  C   UNL     1      -5.442  16.660  20.419  0.00  0.00    +0.000 A 
ATOM     32  C   UNL     1      -6.625  15.933  20.520  0.00  0.00    +0.000 A 
ATOM     33  C   UNL     1      -6.578  14.578  20.833  0.00  0.00    +0.000 A 
ATOM     34  C   UNL     1      -5.348  13.956  21.065  0.00  0.00    +0.000 A 
ENDBRANCH  10  29
TORSDOF 3
ENDMDL
MODEL 6
REMARK VINA RESULT:      -7.5      2.952      3.789
REMARK  Name = 
REMARK  3 active torsions:
REMARK  status: ('A' for Active; 'I' for Inactive)
REMARK    1  A    between atoms: C_2  and  C_5
REMARK    2  A    between atoms: C_9  and  N_10
REMARK    3  A    between atoms: C_19  and  C_20
REMARK                            x       y       z     vdW  Elec       q    Type
REMARK                         _______ _______ _______ _____ _____    ______ ____
ROOT
ATOM      1  N   UNL     1       2.125   8.112  19.107  0.00  0.00    +0.000 N 
ATOM      2  C   UNL     1       1.891   9.270  18.227  0.00  0.00    +0.000 C 
ATOM      3  C   UNL     1       0.374   9.567  18.161  0.00  0.00    +0.000 C 
ATOM      4  N   UNL     1      -0.195   9.692  19.505  0.00  0.00    +0.000 N 
ATOM      5  C   UNL     1      -0.986  10.755  19.867  0.00  0.00    +0.000 A 
ATOM      6  N   UNL     1      -0.614  11.503  20.880  0.00  0.00    +0.000 NA
ATOM      7  C   UNL     1      -1.404  12.572  21.183  0.00  0.00    +0.000 A 
ATOM      8  S   UNL     1      -0.964  13.641  22.434  0.00  0.00    +0.000 S 
ATOM      9  C   UNL     1      -2.382  14.569  22.217  0.00  0.00    +0.000 A 
ATOM     10  C   UNL     1      -3.205  14.107  21.199  0.00  0.00    +0.000 A 
ATOM     11  C   UNL     1      -2.584  12.972  20.574  0.00  0.00    +0.000 A 
ATOM     12  N   UNL     1      -2.976  12.164  19.476  0.00  0.00    +0.000 N 
ATOM     13  C   UNL     1      -4.013  12.254  18.582  0.00  0.00    +0.000 A 
ATOM     14  C   UNL     1      -4.040  11.100  17.826  0.00  0.00    +0.000 A 
ATOM     15  C   UNL     1      -2.900  10.346  18.175  0.00  0.00    +0.000 A 
ATOM     16  C   UNL     1      -2.225  11.050  19.155  0.00  0.00    +0.000 A 
ATOM     17  C   UNL     1       0.100   8.602  20.436  0.00  0.00    +0.000 C 
ATOM     18  C   UNL     1       1.606   8.290  20.479  0.00  0.00    +0.000 C 
ENDROOT
BRANCH   1  23
ATOM     19  C   UNL     1       4.507   5.968  17.211  0.00  0.00    +0.000 A 
ATOM     20  C   UNL     1       4.577   4.852  18.055  0.00  0.00    +0.000 A 
ATOM     21  C   UNL     1       3.852   4.837  19.242  0.00  0.00    +0.000 A 
ATOM     22  C   UNL     1       3.057   5.932  19.588  0.00  0.00    +0.000 A 
ATOM     23  C   UNL     1       2.953   7.067  18.772  0.00  0.00    +0.000 A 
ATOM     24  C   UNL     1       3.696   7.058  17.581  0.00  0.00    +0.000 A 
BRANCH  19  26
ATOM     25  F   UNL     1       6.612   6.258  16.089  0.00  0.00    +0.000 F 
ATOM     26  C   UNL     1       5.280   6.024  15.920  0.00  0.00    +0.000 C 
ATOM     27  F   UNL     1       4.834   7.005  15.086  0.00  0.00    +0.000 F 
ATOM     28  F   UNL     1       5.195   4.865  15.210  0.00  0.00    +0.000 F 
ENDBRANCH  19  26
ENDBRANCH   1  23
BRANCH  10  29
ATOM     29  C   UNL     1      -4.503  14.753  20.980  0.00  0.00    +0.000 A 
ATOM     30  C   UNL     1      -5.703  14.070  21.235  0.00  0.00    +0.000 A 
ATOM     31  C   UNL     1      -6.940  14.674  20.990  0.00  0.00    +0.000 A 
ATOM     32  C   UNL     1      -6.995  15.986  20.527  0.00  0.00    +0.000 A 
ATOM     33  C   UNL     1      -5.815  16.676  20.266  0.00  0.00    +0.000 A 
ATOM     34  C   UNL     1      -4.581  16.047  20.451  0.00  0.00    +0.000 A 
ENDBRANCH  10  29
TORSDOF 3
ENDMDL
MODEL 7
REMARK VINA RESULT:      -7.4      3.014      3.680
REMARK  Name = 
REMARK  3 active torsions:
REMARK  status: ('A' for Active; 'I' for Inactive)
REMARK    1  A    between atoms: C_2  and  C_5
REMARK    2  A    between atoms: C_9  and  N_10
REMARK    3  A    between atoms: C_19  and  C_20
REMARK                            x       y       z     vdW  Elec       q    Type
REMARK                         _______ _______ _______ _____ _____    ______ ____
ROOT
ATOM      1  N   UNL     1       2.524   7.799  18.582  0.00  0.00    +0.000 N 
ATOM      2  C   UNL     1       2.250   8.969  17.730  0.00  0.00    +0.000 C 
ATOM      3  C   UNL     1       0.736   9.286  17.765  0.00  0.00    +0.000 C 
ATOM      4  N   UNL     1       0.257   9.405  19.145  0.00  0.00    +0.000 N 
ATOM      5  C   UNL     1      -0.494  10.474  19.567  0.00  0.00    +0.000 A 
ATOM      6  N   UNL     1      -0.047  11.206  20.560  0.00  0.00    +0.000 NA
ATOM      7  C   UNL     1      -0.801  12.283  20.924  0.00  0.00    +0.000 A 
ATOM      8  S   UNL     1      -0.267  13.332  22.154  0.00  0.00    +0.000 S 
ATOM      9  C   UNL     1      -1.682  14.281  22.039  0.00  0.00    +0.000 A 
ATOM     10  C   UNL     1      -2.576  13.841  21.071  0.00  0.00    +0.000 A 
ATOM     11  C   UNL     1      -2.013  12.704  20.397  0.00  0.00    +0.000 A 
ATOM     12  N   UNL     1      -2.486  11.913  19.319  0.00  0.00    +0.000 N 
ATOM     13  C   UNL     1      -3.577  12.026  18.495  0.00  0.00    +0.000 A 
ATOM     14  C   UNL     1      -3.669  10.880  17.732  0.00  0.00    +0.000 A 
ATOM     15  C   UNL     1      -2.519  10.108  17.999  0.00  0.00    +0.000 A 
ATOM     16  C   UNL     1      -1.772  10.792  18.939  0.00  0.00    +0.000 A 
ATOM     17  C   UNL     1       0.596   8.301  20.044  0.00  0.00    +0.000 C 
ATOM     18  C   UNL     1       2.098   7.969  19.986  0.00  0.00    +0.000 C 
ENDROOT
BRANCH   1  23
ATOM     19  C   UNL     1       5.465   5.851  17.386  0.00  0.00    +0.000 A 
ATOM     20  C   UNL     1       4.898   4.576  17.267  0.00  0.00    +0.000 A 
ATOM     21  C   UNL     1       3.562   4.379  17.602  0.00  0.00    +0.000 A 
ATOM     22  C   UNL     1       2.791   5.452  18.055  0.00  0.00    +0.000 A 
ATOM     23  C   UNL     1       3.315   6.746  18.184  0.00  0.00    +0.000 A 
ATOM     24  C   UNL     1       4.665   6.917  17.841  0.00  0.00    +0.000 A 
BRANCH  19  26
ATOM     25  F   UNL     1       7.227   7.425  16.953  0.00  0.00    +0.000 F 
ATOM     26  C   UNL     1       6.908   6.103  17.038  0.00  0.00    +0.000 C 
ATOM     27  F   UNL     1       7.260   5.557  15.840  0.00  0.00    +0.000 F 
ATOM     28  F   UNL     1       7.766   5.573  17.955  0.00  0.00    +0.000 F 
ENDBRANCH  19  26
ENDBRANCH   1  23
BRANCH  10  29
ATOM     29  C   UNL     1      -3.877  14.505  20.943  0.00  0.00    +0.000 A 
ATOM     30  C   UNL     1      -3.965  15.872  20.635  0.00  0.00    +0.000 A 
ATOM     31  C   UNL     1      -5.206  16.512  20.550  0.00  0.00    +0.000 A 
ATOM     32  C   UNL     1      -6.379  15.783  20.730  0.00  0.00    +0.000 A 
ATOM     33  C   UNL     1      -6.309  14.428  21.039  0.00  0.00    +0.000 A 
ATOM     34  C   UNL     1      -5.066  13.807  21.186  0.00  0.00    +0.000 A 
ENDBRANCH  10  29
TORSDOF 3
ENDMDL
MODEL 8
REMARK VINA RESULT:      -7.4      2.577      3.402
REMARK  Name = 
REMARK  3 active torsions:
REMARK  status: ('A' for Active; 'I' for Inactive)
REMARK    1  A    between atoms: C_2  and  C_5
REMARK    2  A    between atoms: C_9  and  N_10
REMARK    3  A    between atoms: C_19  and  C_20
REMARK                            x       y       z     vdW  Elec       q    Type
REMARK                         _______ _______ _______ _____ _____    ______ ____
ROOT
ATOM      1  N   UNL     1       2.210   8.067  18.616  0.00  0.00    +0.000 N 
ATOM      2  C   UNL     1       1.918   9.246  17.783  0.00  0.00    +0.000 C 
ATOM      3  C   UNL     1       0.409   9.575  17.870  0.00  0.00    +0.000 C 
ATOM      4  N   UNL     1      -0.025   9.686  19.266  0.00  0.00    +0.000 N 
ATOM      5  C   UNL     1      -0.752  10.758  19.722  0.00  0.00    +0.000 A 
ATOM      6  N   UNL     1      -0.267  11.478  20.706  0.00  0.00    +0.000 NA
ATOM      7  C   UNL     1      -1.000  12.557  21.103  0.00  0.00    +0.000 A 
ATOM      8  S   UNL     1      -0.417  13.591  22.324  0.00  0.00    +0.000 S 
ATOM      9  C   UNL     1      -1.828  14.553  22.263  0.00  0.00    +0.000 A 
ATOM     10  C   UNL     1      -2.756  14.128  21.321  0.00  0.00    +0.000 A 
ATOM     11  C   UNL     1      -2.225  12.993  20.620  0.00  0.00    +0.000 A 
ATOM     12  N   UNL     1      -2.739  12.215  19.551  0.00  0.00    +0.000 N 
ATOM     13  C   UNL     1      -3.855  12.344  18.764  0.00  0.00    +0.000 A 
ATOM     14  C   UNL     1      -3.982  11.205  17.994  0.00  0.00    +0.000 A 
ATOM     15  C   UNL     1      -2.830  10.421  18.217  0.00  0.00    +0.000 A 
ATOM     16  C   UNL     1      -2.048  11.092  19.138  0.00  0.00    +0.000 A 
ATOM     17  C   UNL     1       0.335   8.572  20.145  0.00  0.00    +0.000 C 
ATOM     18  C   UNL     1       1.832   8.229  20.035  0.00  0.00    +0.000 C 
ENDROOT
BRANCH   1  23
ATOM     19  C   UNL     1       3.434   4.597  18.043  0.00  0.00    +0.000 A 
ATOM     20  C   UNL     1       4.634   4.855  17.368  0.00  0.00    +0.000 A 
ATOM     21  C   UNL     1       5.006   6.168  17.098  0.00  0.00    +0.000 A 
ATOM     22  C   UNL     1       4.184   7.223  17.501  0.00  0.00    +0.000 A 
ATOM     23  C   UNL     1       2.978   7.012  18.183  0.00  0.00    +0.000 A 
ATOM     24  C   UNL     1       2.625   5.679  18.442  0.00  0.00    +0.000 A 
BRANCH  19  26
ATOM     25  F   UNL     1       2.535   2.510  17.262  0.00  0.00    +0.000 F 
ATOM     26  C   UNL     1       2.994   3.190  18.350  0.00  0.00    +0.000 C 
ATOM     27  F   UNL     1       1.987   3.146  19.268  0.00  0.00    +0.000 F 
ATOM     28  F   UNL     1       4.000   2.429  18.865  0.00  0.00    +0.000 F 
ENDBRANCH  19  26
ENDBRANCH   1  23
BRANCH  10  29
ATOM     29  C   UNL     1      -4.055  14.804  21.241  0.00  0.00    +0.000 A 
ATOM     30  C   UNL     1      -5.230  14.168  21.674  0.00  0.00    +0.000 A 
ATOM     31  C   UNL     1      -6.472  14.801  21.562  0.00  0.00    +0.000 A 
ATOM     32  C   UNL     1      -6.552  16.095  21.055  0.00  0.00    +0.000 A 
ATOM     33  C   UNL     1      -5.398  16.738  20.620  0.00  0.00    +0.000 A 
ATOM     34  C   UNL     1      -4.167  16.079  20.673  0.00  0.00    +0.000 A 
ENDBRANCH  10  29
TORSDOF 3
ENDMDL
MODEL 9
REMARK VINA RESULT:      -7.3      3.147      3.880
REMARK  Name = 
REMARK  3 active torsions:
REMARK  status: ('A' for Active; 'I' for Inactive)
REMARK    1  A    between atoms: C_2  and  C_5
REMARK    2  A    between atoms: C_9  and  N_10
REMARK    3  A    between atoms: C_19  and  C_20
REMARK                            x       y       z     vdW  Elec       q    Type
REMARK                         _______ _______ _______ _____ _____    ______ ____
ROOT
ATOM      1  N   UNL     1       2.538   7.782  18.619  0.00  0.00    +0.000 N 
ATOM      2  C   UNL     1       2.265   8.978  17.803  0.00  0.00    +0.000 C 
ATOM      3  C   UNL     1       0.747   9.271  17.814  0.00  0.00    +0.000 C 
ATOM      4  N   UNL     1       0.234   9.333  19.186  0.00  0.00    +0.000 N 
ATOM      5  C   UNL     1      -0.542  10.375  19.629  0.00  0.00    +0.000 A 
ATOM      6  N   UNL     1      -0.130  11.077  20.658  0.00  0.00    +0.000 NA
ATOM      7  C   UNL     1      -0.908  12.128  21.043  0.00  0.00    +0.000 A 
ATOM      8  S   UNL     1      -0.418  13.140  22.323  0.00  0.00    +0.000 S 
ATOM      9  C   UNL     1      -1.845  14.072  22.208  0.00  0.00    +0.000 A 
ATOM     10  C   UNL     1      -2.710  13.654  21.205  0.00  0.00    +0.000 A 
ATOM     11  C   UNL     1      -2.114  12.551  20.504  0.00  0.00    +0.000 A 
ATOM     12  N   UNL     1      -2.550  11.793  19.387  0.00  0.00    +0.000 N 
ATOM     13  C   UNL     1      -3.623  11.920  18.542  0.00  0.00    +0.000 A 
ATOM     14  C   UNL     1      -3.681  10.802  17.736  0.00  0.00    +0.000 A 
ATOM     15  C   UNL     1      -2.525  10.037  18.002  0.00  0.00    +0.000 A 
ATOM     16  C   UNL     1      -1.811  10.697  18.984  0.00  0.00    +0.000 A 
ATOM     17  C   UNL     1       0.570   8.202  20.053  0.00  0.00    +0.000 C 
ATOM     18  C   UNL     1       2.078   7.895  20.018  0.00  0.00    +0.000 C 
ENDROOT
BRANCH   1  23
ATOM     19  C   UNL     1       5.543   5.916  17.451  0.00  0.00    +0.000 A 
ATOM     20  C   UNL     1       4.992   4.645  17.244  0.00  0.00    +0.000 A 
ATOM     21  C   UNL     1       3.646   4.424  17.512  0.00  0.00    +0.000 A 
ATOM     22  C   UNL     1       2.847   5.467  17.985  0.00  0.00    +0.000 A 
ATOM     23  C   UNL     1       3.354   6.756  18.201  0.00  0.00    +0.000 A 
ATOM     24  C   UNL     1       4.716   6.953  17.925  0.00  0.00    +0.000 A 
BRANCH  19  26
ATOM     25  F   UNL     1       7.837   5.722  18.140  0.00  0.00    +0.000 F 
ATOM     26  C   UNL     1       6.997   6.196  17.177  0.00  0.00    +0.000 C 
ATOM     27  F   UNL     1       7.263   7.528  17.074  0.00  0.00    +0.000 F 
ATOM     28  F   UNL     1       7.424   5.641  16.008  0.00  0.00    +0.000 F 
ENDBRANCH  19  26
ENDBRANCH   1  23
BRANCH  10  29
ATOM     29  C   UNL     1      -4.018  14.304  21.071  0.00  0.00    +0.000 A 
ATOM     30  C   UNL     1      -5.207  13.582  21.259  0.00  0.00    +0.000 A 
ATOM     31  C   UNL     1      -6.454  14.195  21.094  0.00  0.00    +0.000 A 
ATOM     32  C   UNL     1      -6.528  15.549  20.780  0.00  0.00    +0.000 A 
ATOM     33  C   UNL     1      -5.358  16.279  20.587  0.00  0.00    +0.000 A 
ATOM     34  C   UNL     1      -4.115  15.648  20.690  0.00  0.00    +0.000 A 
ENDBRANCH  10  29
TORSDOF 3
ENDMDL
