MODEL 1
REMARK VINA RESULT:      -7.4      0.000      0.000
REMARK  Name = 
REMARK  8 active torsions:
REMARK  status: ('A' for Active; 'I' for Inactive)
REMARK    1  A    between atoms: C_1  and  C_2
REMARK    2  A    between atoms: C_2  and  C_3
REMARK    3  A    between atoms: C_2  and  N_12
REMARK    4  A    between atoms: C_3  and  O_4
REMARK    5  A    between atoms: C_3  and  C_5
REMARK    6  A    between atoms: C_8  and  O_9
REMARK    7  A    between atoms: C_15  and  C_16
REMARK    8  A    between atoms: C_16  and  C_17
REMARK                            x       y       z     vdW  Elec       q    Type
REMARK                         _______ _______ _______ _____ _____    ______ ____
ROOT
ATOM      1  C   UNL     1       3.592   3.647  19.549  0.00  0.00    +0.000 C 
ATOM      2  C   UNL     1       3.192   4.983  18.877  0.00  0.00    +0.000 C 
ENDROOT
BRANCH   2   3
ATOM      3  N   UNL     1       4.382   5.761  18.400  0.00  0.00    +0.000 NA
ATOM      4  C   UNL     1       5.644   5.202  18.925  0.00  0.00    +0.000 C 
ATOM      5  C   UNL     1       6.870   5.975  18.439  0.00  0.00    +0.000 C 
ATOM      6  C   UNL     1       6.963   5.994  16.912  0.00  0.00    +0.000 C 
ATOM      7  C   UNL     1       5.653   6.595  16.389  0.00  0.00    +0.000 C 
ATOM      8  C   UNL     1       4.416   5.862  16.926  0.00  0.00    +0.000 C 
BRANCH   6   9
ATOM      9  C   UNL     1       7.217   4.604  16.284  0.00  0.00    +0.000 C 
BRANCH   9  10
ATOM     10  C   UNL     1       7.060   4.535  14.785  0.00  0.00    +0.000 A 
ATOM     11  C   UNL     1       7.872   5.319  13.953  0.00  0.00    +0.000 A 
ATOM     12  C   UNL     1       7.768   5.224  12.565  0.00  0.00    +0.000 A 
ATOM     13  C   UNL     1       6.855   4.342  11.992  0.00  0.00    +0.000 A 
ATOM     14  C   UNL     1       6.037   3.562  12.811  0.00  0.00    +0.000 A 
ATOM     15  C   UNL     1       6.138   3.659  14.199  0.00  0.00    +0.000 A 
ENDBRANCH   9  10
ENDBRANCH   6   9
ENDBRANCH   2   3
BRANCH   2  16
ATOM     16  C   UNL     1       2.169   5.752  19.814  0.00  0.00    +0.000 C 
BRANCH  16  17
ATOM     17  C   UNL     1       1.917   7.240  19.568  0.00  0.00    +0.000 A 
ATOM     18  C   UNL     1       2.018   7.812  18.288  0.00  0.00    +0.000 A 
ATOM     19  C   UNL     1       1.669   9.145  18.053  0.00  0.00    +0.000 A 
ATOM     20  C   UNL     1       1.208   9.926  19.100  0.00  0.00    +0.000 A 
ATOM     21  C   UNL     1       1.098   9.394  20.378  0.00  0.00    +0.000 A 
ATOM     22  C   UNL     1       1.445   8.060  20.607  0.00  0.00    +0.000 A 
BRANCH  20  23
ATOM     23  O   UNL     1       0.833  11.227  18.911  0.00  0.00    +0.000 OA
ATOM     24  H   UNL     1       1.145  11.748  19.670  0.00  0.00    +0.000 HD
ENDBRANCH  20  23
ENDBRANCH  16  17
BRANCH  16  25
ATOM     25  O   UNL     1       2.551   5.522  21.184  0.00  0.00    +0.000 OA
ATOM     26  H   UNL     1       2.411   6.352  21.667  0.00  0.00    +0.000 HD
ENDBRANCH  16  25
ENDBRANCH   2  16
TORSDOF 7
ENDMDL
MODEL 2
REMARK VINA RESULT:      -7.3      3.936      8.321
REMARK  Name = 
REMARK  8 active torsions:
REMARK  status: ('A' for Active; 'I' for Inactive)
REMARK    1  A    between atoms: C_1  and  C_2
REMARK    2  A    between atoms: C_2  and  C_3
REMARK    3  A    between atoms: C_2  and  N_12
REMARK    4  A    between atoms: C_3  and  O_4
REMARK    5  A    between atoms: C_3  and  C_5
REMARK    6  A    between atoms: C_8  and  O_9
REMARK    7  A    between atoms: C_15  and  C_16
REMARK    8  A    between atoms: C_16  and  C_17
REMARK                            x       y       z     vdW  Elec       q    Type
REMARK                         _______ _______ _______ _____ _____    ______ ____
ROOT
ATOM      1  C   UNL     1       1.507   6.373  20.555  0.00  0.00    +0.000 C 
ATOM      2  C   UNL     1       2.413   7.195  19.607  0.00  0.00    +0.000 C 
ENDROOT
BRANCH   2   3
ATOM      3  N   UNL     1       1.952   8.616  19.468  0.00  0.00    +0.000 NA
ATOM      4  C   UNL     1       1.382   8.876  18.130  0.00  0.00    +0.000 C 
ATOM      5  C   UNL     1       0.896  10.316  17.975  0.00  0.00    +0.000 C 
ATOM      6  C   UNL     1      -0.165  10.676  19.017  0.00  0.00    +0.000 C 
ATOM      7  C   UNL     1       0.454  10.418  20.396  0.00  0.00    +0.000 C 
ATOM      8  C   UNL     1       1.002   8.991  20.536  0.00  0.00    +0.000 C 
BRANCH   6   9
ATOM      9  C   UNL     1      -1.489   9.894  18.856  0.00  0.00    +0.000 C 
BRANCH   9  10
ATOM     10  C   UNL     1      -2.327  10.282  17.663  0.00  0.00    +0.000 A 
ATOM     11  C   UNL     1      -2.081   9.703  16.409  0.00  0.00    +0.000 A 
ATOM     12  C   UNL     1      -2.883  10.019  15.313  0.00  0.00    +0.000 A 
ATOM     13  C   UNL     1      -3.942  10.913  15.456  0.00  0.00    +0.000 A 
ATOM     14  C   UNL     1      -4.191  11.499  16.697  0.00  0.00    +0.000 A 
ATOM     15  C   UNL     1      -3.387  11.187  17.794  0.00  0.00    +0.000 A 
ENDBRANCH   9  10
ENDBRANCH   6   9
ENDBRANCH   2   3
BRANCH   2  16
ATOM     16  C   UNL     1       2.632   6.384  18.263  0.00  0.00    +0.000 C 
BRANCH  16  17
ATOM     17  C   UNL     1       2.886   4.878  18.343  0.00  0.00    +0.000 A 
ATOM     18  C   UNL     1       2.027   3.943  17.737  0.00  0.00    +0.000 A 
ATOM     19  C   UNL     1       2.332   2.579  17.713  0.00  0.00    +0.000 A 
ATOM     20  C   UNL     1       3.506   2.130  18.294  0.00  0.00    +0.000 A 
ATOM     21  C   UNL     1       4.375   3.025  18.904  0.00  0.00    +0.000 A 
ATOM     22  C   UNL     1       4.069   4.388  18.922  0.00  0.00    +0.000 A 
BRANCH  20  23
ATOM     23  O   UNL     1       3.854   0.808  18.272  0.00  0.00    +0.000 OA
ATOM     24  H   UNL     1       3.055   0.279  18.437  0.00  0.00    +0.000 HD
ENDBRANCH  20  23
ENDBRANCH  16  17
BRANCH  16  25
ATOM     25  O   UNL     1       3.672   7.033  17.507  0.00  0.00    +0.000 OA
ATOM     26  H   UNL     1       4.278   7.445  18.144  0.00  0.00    +0.000 HD
ENDBRANCH  16  25
ENDBRANCH   2  16
TORSDOF 7
ENDMDL
MODEL 3
REMARK VINA RESULT:      -7.3      0.244      1.015
REMARK  Name = 
REMARK  8 active torsions:
REMARK  status: ('A' for Active; 'I' for Inactive)
REMARK    1  A    between atoms: C_1  and  C_2
REMARK    2  A    between atoms: C_2  and  C_3
REMARK    3  A    between atoms: C_2  and  N_12
REMARK    4  A    between atoms: C_3  and  O_4
REMARK    5  A    between atoms: C_3  and  C_5
REMARK    6  A    between atoms: C_8  and  O_9
REMARK    7  A    between atoms: C_15  and  C_16
REMARK    8  A    between atoms: C_16  and  C_17
REMARK                            x       y       z     vdW  Elec       q    Type
REMARK                         _______ _______ _______ _____ _____    ______ ____
ROOT
ATOM      1  C   UNL     1       3.885   3.575  19.768  0.00  0.00    +0.000 C 
ATOM      2  C   UNL     1       3.306   4.802  19.024  0.00  0.00    +0.000 C 
ENDROOT
BRANCH   2   3
ATOM      3  N   UNL     1       4.378   5.667  18.431  0.00  0.00    +0.000 NA
ATOM      4  C   UNL     1       5.719   5.279  18.910  0.00  0.00    +0.000 C 
ATOM      5  C   UNL     1       6.826   6.143  18.307  0.00  0.00    +0.000 C 
ATOM      6  C   UNL     1       6.833   6.074  16.778  0.00  0.00    +0.000 C 
ATOM      7  C   UNL     1       5.440   6.499  16.301  0.00  0.00    +0.000 C 
ATOM      8  C   UNL     1       4.320   5.677  16.954  0.00  0.00    +0.000 C 
BRANCH   6   9
ATOM      9  C   UNL     1       7.202   4.680  16.218  0.00  0.00    +0.000 C 
BRANCH   9  10
ATOM     10  C   UNL     1       7.095   4.538  14.720  0.00  0.00    +0.000 A 
ATOM     11  C   UNL     1       6.152   3.665  14.159  0.00  0.00    +0.000 A 
ATOM     12  C   UNL     1       6.013   3.566  12.774  0.00  0.00    +0.000 A 
ATOM     13  C   UNL     1       6.811   4.339  11.934  0.00  0.00    +0.000 A 
ATOM     14  C   UNL     1       7.758   5.205  12.483  0.00  0.00    +0.000 A 
ATOM     15  C   UNL     1       7.900   5.304  13.866  0.00  0.00    +0.000 A 
ENDBRANCH   9  10
ENDBRANCH   6   9
ENDBRANCH   2   3
BRANCH   2  16
ATOM     16  C   UNL     1       2.244   5.522  19.955  0.00  0.00    +0.000 C 
BRANCH  16  17
ATOM     17  C   UNL     1       1.981   7.015  19.757  0.00  0.00    +0.000 A 
ATOM     18  C   UNL     1       2.158   7.646  18.513  0.00  0.00    +0.000 A 
ATOM     19  C   UNL     1       1.801   8.983  18.313  0.00  0.00    +0.000 A 
ATOM     20  C   UNL     1       1.254   9.708  19.359  0.00  0.00    +0.000 A 
ATOM     21  C   UNL     1       1.068   9.117  20.602  0.00  0.00    +0.000 A 
ATOM     22  C   UNL     1       1.423   7.781  20.795  0.00  0.00    +0.000 A 
BRANCH  20  23
ATOM     23  O   UNL     1       0.869  11.010  19.200  0.00  0.00    +0.000 OA
ATOM     24  H   UNL     1      -0.034  11.106  19.551  0.00  0.00    +0.000 HD
ENDBRANCH  20  23
ENDBRANCH  16  17
BRANCH  16  25
ATOM     25  O   UNL     1       2.583   5.244  21.326  0.00  0.00    +0.000 OA
ATOM     26  H   UNL     1       1.751   5.098  21.806  0.00  0.00    +0.000 HD
ENDBRANCH  16  25
ENDBRANCH   2  16
TORSDOF 7
ENDMDL
MODEL 4
REMARK VINA RESULT:      -7.2      2.884      8.103
REMARK  Name = 
REMARK  8 active torsions:
REMARK  status: ('A' for Active; 'I' for Inactive)
REMARK    1  A    between atoms: C_1  and  C_2
REMARK    2  A    between atoms: C_2  and  C_3
REMARK    3  A    between atoms: C_2  and  N_12
REMARK    4  A    between atoms: C_3  and  O_4
REMARK    5  A    between atoms: C_3  and  C_5
REMARK    6  A    between atoms: C_8  and  O_9
REMARK    7  A    between atoms: C_15  and  C_16
REMARK    8  A    between atoms: C_16  and  C_17
REMARK                            x       y       z     vdW  Elec       q    Type
REMARK                         _______ _______ _______ _____ _____    ______ ____
ROOT
ATOM      1  C   UNL     1       1.891   5.007  18.032  0.00  0.00    +0.000 C 
ATOM      2  C   UNL     1       2.671   5.631  19.214  0.00  0.00    +0.000 C 
ENDROOT
BRANCH   2   3
ATOM      3  N   UNL     1       2.572   7.127  19.237  0.00  0.00    +0.000 NA
ATOM      4  C   UNL     1       2.514   7.690  17.872  0.00  0.00    +0.000 C 
ATOM      5  C   UNL     1       2.401   9.214  17.876  0.00  0.00    +0.000 C 
ATOM      6  C   UNL     1       1.162   9.692  18.636  0.00  0.00    +0.000 C 
ATOM      7  C   UNL     1       1.252   9.113  20.054  0.00  0.00    +0.000 C 
ATOM      8  C   UNL     1       1.431   7.589  20.055  0.00  0.00    +0.000 C 
BRANCH   6   9
ATOM      9  C   UNL     1      -0.174   9.294  17.967  0.00  0.00    +0.000 C 
BRANCH   9  10
ATOM     10  C   UNL     1      -1.341  10.202  18.266  0.00  0.00    +0.000 A 
ATOM     11  C   UNL     1      -1.152  11.374  19.013  0.00  0.00    +0.000 A 
ATOM     12  C   UNL     1      -2.217  12.243  19.250  0.00  0.00    +0.000 A 
ATOM     13  C   UNL     1      -3.481  11.954  18.743  0.00  0.00    +0.000 A 
ATOM     14  C   UNL     1      -3.682  10.787  18.005  0.00  0.00    +0.000 A 
ATOM     15  C   UNL     1      -2.619   9.916  17.769  0.00  0.00    +0.000 A 
ENDBRANCH   9  10
ENDBRANCH   6   9
ENDBRANCH   2   3
BRANCH   2  16
ATOM     16  C   UNL     1       4.131   5.014  19.258  0.00  0.00    +0.000 C 
BRANCH  16  17
ATOM     17  C   UNL     1       5.029   5.154  18.028  0.00  0.00    +0.000 A 
ATOM     18  C   UNL     1       5.955   6.204  17.896  0.00  0.00    +0.000 A 
ATOM     19  C   UNL     1       6.854   6.256  16.827  0.00  0.00    +0.000 A 
ATOM     20  C   UNL     1       6.842   5.252  15.873  0.00  0.00    +0.000 A 
ATOM     21  C   UNL     1       5.938   4.202  15.971  0.00  0.00    +0.000 A 
ATOM     22  C   UNL     1       5.044   4.152  17.043  0.00  0.00    +0.000 A 
BRANCH  20  23
ATOM     23  O   UNL     1       7.719   5.251  14.825  0.00  0.00    +0.000 OA
ATOM     24  H   UNL     1       7.257   4.906  14.041  0.00  0.00    +0.000 HD
ENDBRANCH  20  23
ENDBRANCH  16  17
BRANCH  16  25
ATOM     25  O   UNL     1       4.026   3.633  19.655  0.00  0.00    +0.000 OA
ATOM     26  H   UNL     1       3.085   3.444  19.799  0.00  0.00    +0.000 HD
ENDBRANCH  16  25
ENDBRANCH   2  16
TORSDOF 7
ENDMDL
MODEL 5
REMARK VINA RESULT:      -7.1      1.313      2.135
REMARK  Name = 
REMARK  8 active torsions:
REMARK  status: ('A' for Active; 'I' for Inactive)
REMARK    1  A    between atoms: C_1  and  C_2
REMARK    2  A    between atoms: C_2  and  C_3
REMARK    3  A    between atoms: C_2  and  N_12
REMARK    4  A    between atoms: C_3  and  O_4
REMARK    5  A    between atoms: C_3  and  C_5
REMARK    6  A    between atoms: C_8  and  O_9
REMARK    7  A    between atoms: C_15  and  C_16
REMARK    8  A    between atoms: C_16  and  C_17
REMARK                            x       y       z     vdW  Elec       q    Type
REMARK                         _______ _______ _______ _____ _____    ______ ____
ROOT
ATOM      1  C   UNL     1       2.038   3.877  17.878  0.00  0.00    +0.000 C 
ATOM      2  C   UNL     1       2.829   5.208  17.860  0.00  0.00    +0.000 C 
ENDROOT
BRANCH   2   3
ATOM      3  N   UNL     1       4.240   5.027  17.385  0.00  0.00    +0.000 NA
ATOM      4  C   UNL     1       4.385   3.810  16.561  0.00  0.00    +0.000 C 
ATOM      5  C   UNL     1       5.815   3.616  16.058  0.00  0.00    +0.000 C 
ATOM      6  C   UNL     1       6.294   4.808  15.228  0.00  0.00    +0.000 C 
ATOM      7  C   UNL     1       6.153   6.056  16.108  0.00  0.00    +0.000 C 
ATOM      8  C   UNL     1       4.734   6.221  16.669  0.00  0.00    +0.000 C 
BRANCH   6   9
ATOM      9  C   UNL     1       5.530   4.989  13.896  0.00  0.00    +0.000 C 
BRANCH   9  10
ATOM     10  C   UNL     1       5.785   3.926  12.856  0.00  0.00    +0.000 A 
ATOM     11  C   UNL     1       7.098   3.582  12.504  0.00  0.00    +0.000 A 
ATOM     12  C   UNL     1       7.342   2.566  11.580  0.00  0.00    +0.000 A 
ATOM     13  C   UNL     1       6.278   1.879  11.000  0.00  0.00    +0.000 A 
ATOM     14  C   UNL     1       4.967   2.218  11.338  0.00  0.00    +0.000 A 
ATOM     15  C   UNL     1       4.722   3.237  12.259  0.00  0.00    +0.000 A 
ENDBRANCH   9  10
ENDBRANCH   6   9
ENDBRANCH   2   3
BRANCH   2  16
ATOM     16  C   UNL     1       2.635   5.947  19.249  0.00  0.00    +0.000 C 
BRANCH  16  17
ATOM     17  C   UNL     1       2.044   7.358  19.259  0.00  0.00    +0.000 A 
ATOM     18  C   UNL     1       1.550   7.953  20.433  0.00  0.00    +0.000 A 
ATOM     19  C   UNL     1       1.125   9.284  20.455  0.00  0.00    +0.000 A 
ATOM     20  C   UNL     1       1.191  10.043  19.298  0.00  0.00    +0.000 A 
ATOM     21  C   UNL     1       1.671   9.486  18.120  0.00  0.00    +0.000 A 
ATOM     22  C   UNL     1       2.099   8.157  18.104  0.00  0.00    +0.000 A 
BRANCH  20  23
ATOM     23  O   UNL     1       0.808  11.355  19.281  0.00  0.00    +0.000 OA
ATOM     24  H   UNL     1       0.110  11.460  18.612  0.00  0.00    +0.000 HD
ENDBRANCH  20  23
ENDBRANCH  16  17
BRANCH  16  25
ATOM     25  O   UNL     1       3.889   5.917  19.957  0.00  0.00    +0.000 OA
ATOM     26  H   UNL     1       3.936   6.724  20.496  0.00  0.00    +0.000 HD
ENDBRANCH  16  25
ENDBRANCH   2  16
TORSDOF 7
ENDMDL
MODEL 6
REMARK VINA RESULT:      -7.1      2.692      7.558
REMARK  Name = 
REMARK  8 active torsions:
REMARK  status: ('A' for Active; 'I' for Inactive)
REMARK    1  A    between atoms: C_1  and  C_2
REMARK    2  A    between atoms: C_2  and  C_3
REMARK    3  A    between atoms: C_2  and  N_12
REMARK    4  A    between atoms: C_3  and  O_4
REMARK    5  A    between atoms: C_3  and  C_5
REMARK    6  A    between atoms: C_8  and  O_9
REMARK    7  A    between atoms: C_15  and  C_16
REMARK    8  A    between atoms: C_16  and  C_17
REMARK                            x       y       z     vdW  Elec       q    Type
REMARK                         _______ _______ _______ _____ _____    ______ ____
ROOT
ATOM      1  C   UNL     1       1.667   4.078  17.950  0.00  0.00    +0.000 C 
ATOM      2  C   UNL     1       2.687   4.477  19.045  0.00  0.00    +0.000 C 
ENDROOT
BRANCH   2   3
ATOM      3  N   UNL     1       2.897   5.961  19.115  0.00  0.00    +0.000 NA
ATOM      4  C   UNL     1       2.970   6.565  17.769  0.00  0.00    +0.000 C 
ATOM      5  C   UNL     1       3.171   8.079  17.821  0.00  0.00    +0.000 C 
ATOM      6  C   UNL     1       2.049   8.777  18.591  0.00  0.00    +0.000 C 
ATOM      7  C   UNL     1       2.003   8.150  19.989  0.00  0.00    +0.000 C 
ATOM      8  C   UNL     1       1.866   6.622  19.942  0.00  0.00    +0.000 C 
BRANCH   6   9
ATOM      9  C   UNL     1       0.667   8.683  17.904  0.00  0.00    +0.000 C 
BRANCH   9  10
ATOM     10  C   UNL     1      -0.218   9.894  18.064  0.00  0.00    +0.000 A 
ATOM     11  C   UNL     1       0.230  11.006  18.792  0.00  0.00    +0.000 A 
ATOM     12  C   UNL     1      -0.562  12.148  18.902  0.00  0.00    +0.000 A 
ATOM     13  C   UNL     1      -1.810  12.196  18.284  0.00  0.00    +0.000 A 
ATOM     14  C   UNL     1      -2.268  11.093  17.563  0.00  0.00    +0.000 A 
ATOM     15  C   UNL     1      -1.478   9.948  17.455  0.00  0.00    +0.000 A 
ENDBRANCH   9  10
ENDBRANCH   6   9
ENDBRANCH   2   3
BRANCH   2  16
ATOM     16  C   UNL     1       3.987   3.581  18.898  0.00  0.00    +0.000 C 
BRANCH  16  17
ATOM     17  C   UNL     1       5.030   3.961  17.846  0.00  0.00    +0.000 A 
ATOM     18  C   UNL     1       4.816   3.749  16.472  0.00  0.00    +0.000 A 
ATOM     19  C   UNL     1       5.722   4.208  15.512  0.00  0.00    +0.000 A 
ATOM     20  C   UNL     1       6.858   4.892  15.914  0.00  0.00    +0.000 A 
ATOM     21  C   UNL     1       7.101   5.116  17.263  0.00  0.00    +0.000 A 
ATOM     22  C   UNL     1       6.191   4.658  18.219  0.00  0.00    +0.000 A 
BRANCH  20  23
ATOM     23  O   UNL     1       7.758   5.379  15.008  0.00  0.00    +0.000 OA
ATOM     24  H   UNL     1       8.592   5.560  15.474  0.00  0.00    +0.000 HD
ENDBRANCH  20  23
ENDBRANCH  16  17
BRANCH  16  25
ATOM     25  O   UNL     1       3.575   2.211  18.732  0.00  0.00    +0.000 OA
ATOM     26  H   UNL     1       4.359   1.655  18.865  0.00  0.00    +0.000 HD
ENDBRANCH  16  25
ENDBRANCH   2  16
TORSDOF 7
ENDMDL
MODEL 7
REMARK VINA RESULT:      -7.1      1.314      2.263
REMARK  Name = 
REMARK  8 active torsions:
REMARK  status: ('A' for Active; 'I' for Inactive)
REMARK    1  A    between atoms: C_1  and  C_2
REMARK    2  A    between atoms: C_2  and  C_3
REMARK    3  A    between atoms: C_2  and  N_12
REMARK    4  A    between atoms: C_3  and  O_4
REMARK    5  A    between atoms: C_3  and  C_5
REMARK    6  A    between atoms: C_8  and  O_9
REMARK    7  A    between atoms: C_15  and  C_16
REMARK    8  A    between atoms: C_16  and  C_17
REMARK                            x       y       z     vdW  Elec       q    Type
REMARK                         _______ _______ _______ _____ _____    ______ ____
ROOT
ATOM      1  C   UNL     1       1.791   4.260  17.657  0.00  0.00    +0.000 C 
ATOM      2  C   UNL     1       2.740   5.459  17.898  0.00  0.00    +0.000 C 
ENDROOT
BRANCH   2   3
ATOM      3  N   UNL     1       4.155   5.153  17.505  0.00  0.00    +0.000 NA
ATOM      4  C   UNL     1       4.238   3.945  16.660  0.00  0.00    +0.000 C 
ATOM      5  C   UNL     1       5.672   3.626  16.240  0.00  0.00    +0.000 C 
ATOM      6  C   UNL     1       6.313   4.783  15.472  0.00  0.00    +0.000 C 
ATOM      7  C   UNL     1       6.234   6.021  16.375  0.00  0.00    +0.000 C 
ATOM      8  C   UNL     1       4.805   6.309  16.852  0.00  0.00    +0.000 C 
BRANCH   6   9
ATOM      9  C   UNL     1       5.655   5.063  14.101  0.00  0.00    +0.000 C 
BRANCH   9  10
ATOM     10  C   UNL     1       5.860   3.994  13.056  0.00  0.00    +0.000 A 
ATOM     11  C   UNL     1       4.758   3.340  12.490  0.00  0.00    +0.000 A 
ATOM     12  C   UNL     1       4.937   2.386  11.487  0.00  0.00    +0.000 A 
ATOM     13  C   UNL     1       6.219   2.078  11.037  0.00  0.00    +0.000 A 
ATOM     14  C   UNL     1       7.323   2.719  11.600  0.00  0.00    +0.000 A 
ATOM     15  C   UNL     1       7.146   3.670  12.604  0.00  0.00    +0.000 A 
ENDBRANCH   9  10
ENDBRANCH   6   9
ENDBRANCH   2   3
BRANCH   2  16
ATOM     16  C   UNL     1       2.513   6.017  19.364  0.00  0.00    +0.000 C 
BRANCH  16  17
ATOM     17  C   UNL     1       1.907   7.411  19.538  0.00  0.00    +0.000 A 
ATOM     18  C   UNL     1       1.429   7.867  20.779  0.00  0.00    +0.000 A 
ATOM     19  C   UNL     1       0.989   9.182  20.954  0.00  0.00    +0.000 A 
ATOM     20  C   UNL     1       1.026  10.064  19.887  0.00  0.00    +0.000 A 
ATOM     21  C   UNL     1       1.490   9.646  18.646  0.00  0.00    +0.000 A 
ATOM     22  C   UNL     1       1.932   8.332  18.477  0.00  0.00    +0.000 A 
BRANCH  20  23
ATOM     23  O   UNL     1       0.628  11.365  20.020  0.00  0.00    +0.000 OA
ATOM     24  H   UNL     1       1.191  11.916  19.449  0.00  0.00    +0.000 HD
ENDBRANCH  20  23
ENDBRANCH  16  17
BRANCH  16  25
ATOM     25  O   UNL     1       3.754   5.909  20.086  0.00  0.00    +0.000 OA
ATOM     26  H   UNL     1       4.461   5.797  19.431  0.00  0.00    +0.000 HD
ENDBRANCH  16  25
ENDBRANCH   2  16
TORSDOF 7
ENDMDL
MODEL 8
REMARK VINA RESULT:      -7.0      2.709      7.832
REMARK  Name = 
REMARK  8 active torsions:
REMARK  status: ('A' for Active; 'I' for Inactive)
REMARK    1  A    between atoms: C_1  and  C_2
REMARK    2  A    between atoms: C_2  and  C_3
REMARK    3  A    between atoms: C_2  and  N_12
REMARK    4  A    between atoms: C_3  and  O_4
REMARK    5  A    between atoms: C_3  and  C_5
REMARK    6  A    between atoms: C_8  and  O_9
REMARK    7  A    between atoms: C_15  and  C_16
REMARK    8  A    between atoms: C_16  and  C_17
REMARK                            x       y       z     vdW  Elec       q    Type
REMARK                         _______ _______ _______ _____ _____    ______ ____
ROOT
ATOM      1  C   UNL     1       1.949   4.465  17.853  0.00  0.00    +0.000 C 
ATOM      2  C   UNL     1       2.798   4.970  19.045  0.00  0.00    +0.000 C 
ENDROOT
BRANCH   2   3
ATOM      3  N   UNL     1       2.856   6.467  19.110  0.00  0.00    +0.000 NA
ATOM      4  C   UNL     1       2.842   7.072  17.763  0.00  0.00    +0.000 C 
ATOM      5  C   UNL     1       2.888   8.599  17.810  0.00  0.00    +0.000 C 
ATOM      6  C   UNL     1       1.714   9.181  18.600  0.00  0.00    +0.000 C 
ATOM      7  C   UNL     1       1.759   8.555  20.000  0.00  0.00    +0.000 C 
ATOM      8  C   UNL     1       1.778   7.021  19.956  0.00  0.00    +0.000 C 
BRANCH   6   9
ATOM      9  C   UNL     1       0.337   8.943  17.939  0.00  0.00    +0.000 C 
BRANCH   9  10
ATOM     10  C   UNL     1      -0.691  10.020  18.183  0.00  0.00    +0.000 A 
ATOM     11  C   UNL     1      -1.830  10.108  17.370  0.00  0.00    +0.000 A 
ATOM     12  C   UNL     1      -2.809  11.069  17.621  0.00  0.00    +0.000 A 
ATOM     13  C   UNL     1      -2.664  11.952  18.688  0.00  0.00    +0.000 A 
ATOM     14  C   UNL     1      -1.531  11.878  19.500  0.00  0.00    +0.000 A 
ATOM     15  C   UNL     1      -0.550  10.919  19.248  0.00  0.00    +0.000 A 
ENDBRANCH   9  10
ENDBRANCH   6   9
ENDBRANCH   2   3
BRANCH   2  16
ATOM     16  C   UNL     1       4.186   4.203  19.057  0.00  0.00    +0.000 C 
BRANCH  16  17
ATOM     17  C   UNL     1       5.173   4.445  17.914  0.00  0.00    +0.000 A 
ATOM     18  C   UNL     1       5.025   3.832  16.657  0.00  0.00    +0.000 A 
ATOM     19  C   UNL     1       5.862   4.153  15.585  0.00  0.00    +0.000 A 
ATOM     20  C   UNL     1       6.861   5.097  15.755  0.00  0.00    +0.000 A 
ATOM     21  C   UNL     1       7.038   5.719  16.984  0.00  0.00    +0.000 A 
ATOM     22  C   UNL     1       6.196   5.398  18.052  0.00  0.00    +0.000 A 
BRANCH  20  23
ATOM     23  O   UNL     1       7.687   5.457  14.726  0.00  0.00    +0.000 OA
ATOM     24  H   UNL     1       7.566   6.407  14.557  0.00  0.00    +0.000 HD
ENDBRANCH  20  23
ENDBRANCH  16  17
BRANCH  16  25
ATOM     25  O   UNL     1       3.923   2.795  19.211  0.00  0.00    +0.000 OA
ATOM     26  H   UNL     1       4.758   2.326  19.050  0.00  0.00    +0.000 HD
ENDBRANCH  16  25
ENDBRANCH   2  16
TORSDOF 7
ENDMDL
MODEL 9
REMARK VINA RESULT:      -7.0      2.711      7.880
REMARK  Name = 
REMARK  8 active torsions:
REMARK  status: ('A' for Active; 'I' for Inactive)
REMARK    1  A    between atoms: C_1  and  C_2
REMARK    2  A    between atoms: C_2  and  C_3
REMARK    3  A    between atoms: C_2  and  N_12
REMARK    4  A    between atoms: C_3  and  O_4
REMARK    5  A    between atoms: C_3  and  C_5
REMARK    6  A    between atoms: C_8  and  O_9
REMARK    7  A    between atoms: C_15  and  C_16
REMARK    8  A    between atoms: C_16  and  C_17
REMARK                            x       y       z     vdW  Elec       q    Type
REMARK                         _______ _______ _______ _____ _____    ______ ____
ROOT
ATOM      1  C   UNL     1       1.639   4.334  17.774  0.00  0.00    +0.000 C 
ATOM      2  C   UNL     1       2.651   4.711  18.883  0.00  0.00    +0.000 C 
ENDROOT
BRANCH   2   3
ATOM      3  N   UNL     1       2.792   6.195  19.047  0.00  0.00    +0.000 NA
ATOM      4  C   UNL     1       2.804   6.888  17.742  0.00  0.00    +0.000 C 
ATOM      5  C   UNL     1       2.934   8.404  17.890  0.00  0.00    +0.000 C 
ATOM      6  C   UNL     1       1.798   8.994  18.727  0.00  0.00    +0.000 C 
ATOM      7  C   UNL     1       1.816   8.276  20.082  0.00  0.00    +0.000 C 
ATOM      8  C   UNL     1       1.750   6.750  19.937  0.00  0.00    +0.000 C 
BRANCH   6   9
ATOM      9  C   UNL     1       0.406   8.877  18.064  0.00  0.00    +0.000 C 
BRANCH   9  10
ATOM     10  C   UNL     1      -0.541  10.018  18.343  0.00  0.00    +0.000 A 
ATOM     11  C   UNL     1      -1.697  10.182  17.567  0.00  0.00    +0.000 A 
ATOM     12  C   UNL     1      -2.603  11.204  17.851  0.00  0.00    +0.000 A 
ATOM     13  C   UNL     1      -2.366  12.072  18.915  0.00  0.00    +0.000 A 
ATOM     14  C   UNL     1      -1.214  11.922  19.688  0.00  0.00    +0.000 A 
ATOM     15  C   UNL     1      -0.307  10.902  19.404  0.00  0.00    +0.000 A 
ENDBRANCH   9  10
ENDBRANCH   6   9
ENDBRANCH   2   3
BRANCH   2  16
ATOM     16  C   UNL     1       3.990   3.889  18.668  0.00  0.00    +0.000 C 
BRANCH  16  17
ATOM     17  C   UNL     1       4.995   4.376  17.623  0.00  0.00    +0.000 A 
ATOM     18  C   UNL     1       6.203   5.000  17.982  0.00  0.00    +0.000 A 
ATOM     19  C   UNL     1       7.167   5.332  17.027  0.00  0.00    +0.000 A 
ATOM     20  C   UNL     1       6.938   5.038  15.693  0.00  0.00    +0.000 A 
ATOM     21  C   UNL     1       5.755   4.424  15.302  0.00  0.00    +0.000 A 
ATOM     22  C   UNL     1       4.795   4.092  16.261  0.00  0.00    +0.000 A 
BRANCH  20  23
ATOM     23  O   UNL     1       7.864   5.323  14.728  0.00  0.00    +0.000 OA
ATOM     24  H   UNL     1       7.552   6.095  14.225  0.00  0.00    +0.000 HD
ENDBRANCH  20  23
ENDBRANCH  16  17
BRANCH  16  25
ATOM     25  O   UNL     1       3.642   2.511  18.434  0.00  0.00    +0.000 OA
ATOM     26  H   UNL     1       2.880   2.305  19.000  0.00  0.00    +0.000 HD
ENDBRANCH  16  25
ENDBRANCH   2  16
TORSDOF 7
ENDMDL
