MODEL 1
REMARK VINA RESULT:      -7.8      0.000      0.000
REMARK  Name = 
REMARK  13 active torsions:
REMARK  status: ('A' for Active; 'I' for Inactive)
REMARK    1  A    between atoms: C_1  and  C_2
REMARK    2  A    between atoms: C_2  and  C_3
REMARK    3  A    between atoms: C_3  and  C_4
REMARK    4  A    between atoms: C_4  and  C_5
REMARK    5  A    between atoms: C_5  and  C_6
REMARK    6  A    between atoms: C_6  and  C_7
REMARK    7  A    between atoms: C_7  and  N_8
REMARK    8  A    between atoms: C_11  and  N_12
REMARK    9  A    between atoms: N_15  and  C_16
REMARK   10  A    between atoms: C_23  and  O_24
REMARK   11  A    between atoms: O_24  and  C_25
REMARK   12  A    between atoms: C_28  and  C_29
REMARK   13  A    between atoms: C_29  and  O_30
REMARK                            x       y       z     vdW  Elec       q    Type
REMARK                         _______ _______ _______ _____ _____    ______ ____
ROOT
ATOM      1  N   UNL     1       2.769   6.840  19.021  0.00  0.00    +0.000 N 
ATOM      2  C   UNL     1       1.992   7.645  19.828  0.00  0.00    +0.000 C 
ATOM      3  O   UNL     1       1.756   7.387  21.001  0.00  0.00    +0.000 OA
ATOM      4  N   UNL     1       1.467   8.705  19.115  0.00  0.00    +0.000 N 
ATOM      5  H   UNL     1       3.308   7.344  18.326  0.00  0.00    +0.000 HD
ATOM      6  H   UNL     1       1.308   8.503  18.140  0.00  0.00    +0.000 HD
ENDROOT
BRANCH   4   7
ATOM      7  C   UNL     1       0.614   9.661  19.722  0.00  0.00    +0.000 A 
ATOM      8  C   UNL     1       0.881  10.073  21.026  0.00  0.00    +0.000 A 
ATOM      9  C   UNL     1       0.065  11.036  21.585  0.00  0.00    +0.000 A 
ATOM     10  N   UNL     1      -0.977  11.595  20.944  0.00  0.00    +0.000 NA
ATOM     11  C   UNL     1      -1.256  11.181  19.698  0.00  0.00    +0.000 A 
ATOM     12  C   UNL     1      -2.367  11.715  19.063  0.00  0.00    +0.000 A 
ATOM     13  C   UNL     1      -2.764  11.312  17.783  0.00  0.00    +0.000 A 
ATOM     14  C   UNL     1      -2.028  10.348  17.107  0.00  0.00    +0.000 A 
ATOM     15  C   UNL     1      -0.896   9.809  17.723  0.00  0.00    +0.000 A 
ATOM     16  C   UNL     1      -0.485  10.210  19.019  0.00  0.00    +0.000 A 
BRANCH  14  17
ATOM     17  O   UNL     1      -2.301   9.843  15.868  0.00  0.00    +0.000 OA
ATOM     18  C   UNL     1      -3.219  10.571  15.062  0.00  0.00    +0.000 C 
ENDBRANCH  14  17
ENDBRANCH   4   7
BRANCH   1  22
ATOM     19  N   UNL     1       4.737   4.135  17.411  0.00  0.00    +0.000 NA
ATOM     20  C   UNL     1       5.303   5.387  17.934  0.00  0.00    +0.000 C 
ATOM     21  C   UNL     1       4.899   5.620  19.389  0.00  0.00    +0.000 C 
ATOM     22  C   UNL     1       3.378   5.617  19.565  0.00  0.00    +0.000 C 
ATOM     23  C   UNL     1       2.791   4.324  18.965  0.00  0.00    +0.000 C 
ATOM     24  C   UNL     1       3.265   4.117  17.519  0.00  0.00    +0.000 C 
BRANCH  19  25
ATOM     25  C   UNL     1       5.123   3.892  16.007  0.00  0.00    +0.000 C 
BRANCH  25  26
ATOM     26  C   UNL     1       6.480   4.471  15.586  0.00  0.00    +0.000 C 
BRANCH  26  27
ATOM     27  C   UNL     1       6.612   4.672  14.075  0.00  0.00    +0.000 C 
BRANCH  27  28
ATOM     28  C   UNL     1       6.139   3.423  13.329  0.00  0.00    +0.000 C 
BRANCH  28  29
ATOM     29  C   UNL     1       5.723   3.749  11.897  0.00  0.00    +0.000 C 
BRANCH  29  31
ATOM     30  C   UNL     1       3.567   3.603  10.605  0.00  0.00    +0.000 C 
ATOM     31  C   UNL     1       4.580   2.841  11.442  0.00  0.00    +0.000 C 
ENDBRANCH  29  31
ENDBRANCH  28  29
ENDBRANCH  27  28
ENDBRANCH  26  27
ENDBRANCH  25  26
ENDBRANCH  19  25
BRANCH  23  32
ATOM     32  C   UNL     1       1.262   4.252  19.065  0.00  0.00    +0.000 C 
BRANCH  32  33
ATOM     33  O   UNL     1       0.798   4.542  20.378  0.00  0.00    +0.000 OA
ATOM     34  H   UNL     1       0.154   5.266  20.268  0.00  0.00    +0.000 HD
ENDBRANCH  32  33
ENDBRANCH  23  32
ENDBRANCH   1  22
TORSDOF 11
ENDMDL
MODEL 2
REMARK VINA RESULT:      -7.7      1.080      1.298
REMARK  Name = 
REMARK  13 active torsions:
REMARK  status: ('A' for Active; 'I' for Inactive)
REMARK    1  A    between atoms: C_1  and  C_2
REMARK    2  A    between atoms: C_2  and  C_3
REMARK    3  A    between atoms: C_3  and  C_4
REMARK    4  A    between atoms: C_4  and  C_5
REMARK    5  A    between atoms: C_5  and  C_6
REMARK    6  A    between atoms: C_6  and  C_7
REMARK    7  A    between atoms: C_7  and  N_8
REMARK    8  A    between atoms: C_11  and  N_12
REMARK    9  A    between atoms: N_15  and  C_16
REMARK   10  A    between atoms: C_23  and  O_24
REMARK   11  A    between atoms: O_24  and  C_25
REMARK   12  A    between atoms: C_28  and  C_29
REMARK   13  A    between atoms: C_29  and  O_30
REMARK                            x       y       z     vdW  Elec       q    Type
REMARK                         _______ _______ _______ _____ _____    ______ ____
ROOT
ATOM      1  N   UNL     1       2.839   6.771  18.357  0.00  0.00    +0.000 N 
ATOM      2  C   UNL     1       2.173   7.624  19.213  0.00  0.00    +0.000 C 
ATOM      3  O   UNL     1       2.099   7.437  20.421  0.00  0.00    +0.000 OA
ATOM      4  N   UNL     1       1.550   8.640  18.516  0.00  0.00    +0.000 N 
ATOM      5  H   UNL     1       3.276   7.232  17.567  0.00  0.00    +0.000 HD
ATOM      6  H   UNL     1       1.262   8.381  17.585  0.00  0.00    +0.000 HD
ENDROOT
BRANCH   4   7
ATOM      7  C   UNL     1       0.781   9.633  19.176  0.00  0.00    +0.000 A 
ATOM      8  C   UNL     1       1.233  10.139  20.393  0.00  0.00    +0.000 A 
ATOM      9  C   UNL     1       0.493  11.134  20.999  0.00  0.00    +0.000 A 
ATOM     10  N   UNL     1      -0.642  11.640  20.483  0.00  0.00    +0.000 NA
ATOM     11  C   UNL     1      -1.097  11.136  19.325  0.00  0.00    +0.000 A 
ATOM     12  C   UNL     1      -2.299  11.616  18.828  0.00  0.00    +0.000 A 
ATOM     13  C   UNL     1      -2.874  11.120  17.653  0.00  0.00    +0.000 A 
ATOM     14  C   UNL     1      -2.231  10.115  16.944  0.00  0.00    +0.000 A 
ATOM     15  C   UNL     1      -1.012   9.628  17.419  0.00  0.00    +0.000 A 
ATOM     16  C   UNL     1      -0.419  10.124  18.608  0.00  0.00    +0.000 A 
BRANCH  14  17
ATOM     17  O   UNL     1      -2.677   9.520  15.798  0.00  0.00    +0.000 OA
ATOM     18  C   UNL     1      -3.141  10.379  14.763  0.00  0.00    +0.000 C 
ENDBRANCH  14  17
ENDBRANCH   4   7
BRANCH   1  22
ATOM     19  N   UNL     1       5.627   4.725  17.008  0.00  0.00    +0.000 NA
ATOM     20  C   UNL     1       5.794   5.939  17.820  0.00  0.00    +0.000 C 
ATOM     21  C   UNL     1       5.010   5.850  19.129  0.00  0.00    +0.000 C 
ATOM     22  C   UNL     1       3.523   5.581  18.885  0.00  0.00    +0.000 C 
ATOM     23  C   UNL     1       3.363   4.338  17.989  0.00  0.00    +0.000 C 
ATOM     24  C   UNL     1       4.205   4.461  16.711  0.00  0.00    +0.000 C 
BRANCH  19  25
ATOM     25  C   UNL     1       6.382   4.792  15.742  0.00  0.00    +0.000 C 
BRANCH  25  26
ATOM     26  C   UNL     1       6.174   3.610  14.785  0.00  0.00    +0.000 C 
BRANCH  26  27
ATOM     27  C   UNL     1       5.577   4.018  13.437  0.00  0.00    +0.000 C 
BRANCH  27  28
ATOM     28  C   UNL     1       6.386   3.408  12.291  0.00  0.00    +0.000 C 
BRANCH  28  29
ATOM     29  C   UNL     1       5.622   2.280  11.604  0.00  0.00    +0.000 C 
BRANCH  29  31
ATOM     30  C   UNL     1       6.093  -0.175  11.308  0.00  0.00    +0.000 C 
ATOM     31  C   UNL     1       6.585   1.236  11.038  0.00  0.00    +0.000 C 
ENDBRANCH  29  31
ENDBRANCH  28  29
ENDBRANCH  27  28
ENDBRANCH  26  27
ENDBRANCH  25  26
ENDBRANCH  19  25
BRANCH  23  32
ATOM     32  C   UNL     1       1.900   4.014  17.662  0.00  0.00    +0.000 C 
BRANCH  32  33
ATOM     33  O   UNL     1       1.071   4.059  18.818  0.00  0.00    +0.000 OA
ATOM     34  H   UNL     1       0.853   5.003  18.938  0.00  0.00    +0.000 HD
ENDBRANCH  32  33
ENDBRANCH  23  32
ENDBRANCH   1  22
TORSDOF 11
ENDMDL
MODEL 3
REMARK VINA RESULT:      -7.2      2.872     10.057
REMARK  Name = 
REMARK  13 active torsions:
REMARK  status: ('A' for Active; 'I' for Inactive)
REMARK    1  A    between atoms: C_1  and  C_2
REMARK    2  A    between atoms: C_2  and  C_3
REMARK    3  A    between atoms: C_3  and  C_4
REMARK    4  A    between atoms: C_4  and  C_5
REMARK    5  A    between atoms: C_5  and  C_6
REMARK    6  A    between atoms: C_6  and  C_7
REMARK    7  A    between atoms: C_7  and  N_8
REMARK    8  A    between atoms: C_11  and  N_12
REMARK    9  A    between atoms: N_15  and  C_16
REMARK   10  A    between atoms: C_23  and  O_24
REMARK   11  A    between atoms: O_24  and  C_25
REMARK   12  A    between atoms: C_28  and  C_29
REMARK   13  A    between atoms: C_29  and  O_30
REMARK                            x       y       z     vdW  Elec       q    Type
REMARK                         _______ _______ _______ _____ _____    ______ ____
ROOT
ATOM      1  N   UNL     1       1.473   9.408  18.635  0.00  0.00    +0.000 N 
ATOM      2  C   UNL     1       1.991   8.178  18.985  0.00  0.00    +0.000 C 
ATOM      3  O   UNL     1       2.096   7.802  20.145  0.00  0.00    +0.000 OA
ATOM      4  N   UNL     1       2.441   7.495  17.872  0.00  0.00    +0.000 N 
ATOM      5  H   UNL     1       0.967   9.412  17.757  0.00  0.00    +0.000 HD
ATOM      6  H   UNL     1       2.767   8.092  17.128  0.00  0.00    +0.000 HD
ENDROOT
BRANCH   4   7
ATOM      7  C   UNL     1       3.039   6.213  17.978  0.00  0.00    +0.000 A 
ATOM      8  C   UNL     1       2.250   5.128  18.354  0.00  0.00    +0.000 A 
ATOM      9  C   UNL     1       2.840   3.882  18.410  0.00  0.00    +0.000 A 
ATOM     10  N   UNL     1       4.135   3.656  18.126  0.00  0.00    +0.000 NA
ATOM     11  C   UNL     1       4.907   4.702  17.790  0.00  0.00    +0.000 A 
ATOM     12  C   UNL     1       6.255   4.474  17.560  0.00  0.00    +0.000 A 
ATOM     13  C   UNL     1       7.146   5.508  17.250  0.00  0.00    +0.000 A 
ATOM     14  C   UNL     1       6.681   6.813  17.161  0.00  0.00    +0.000 A 
ATOM     15  C   UNL     1       5.323   7.061  17.376  0.00  0.00    +0.000 A 
ATOM     16  C   UNL     1       4.412   6.022  17.690  0.00  0.00    +0.000 A 
BRANCH  14  17
ATOM     17  O   UNL     1       7.429   7.922  16.888  0.00  0.00    +0.000 OA
ATOM     18  C   UNL     1       8.097   8.536  17.983  0.00  0.00    +0.000 C 
ENDBRANCH  14  17
ENDBRANCH   4   7
BRANCH   1  22
ATOM     19  N   UNL     1      -1.575  11.516  18.847  0.00  0.00    +0.000 NA
ATOM     20  C   UNL     1      -1.498  10.108  19.263  0.00  0.00    +0.000 C 
ATOM     21  C   UNL     1      -0.354   9.876  20.248  0.00  0.00    +0.000 C 
ATOM     22  C   UNL     1       0.991  10.330  19.675  0.00  0.00    +0.000 C 
ATOM     23  C   UNL     1       0.883  11.790  19.195  0.00  0.00    +0.000 C 
ATOM     24  C   UNL     1      -0.309  11.975  18.244  0.00  0.00    +0.000 C 
BRANCH  19  25
ATOM     25  C   UNL     1      -2.680  11.759  17.899  0.00  0.00    +0.000 C 
BRANCH  25  26
ATOM     26  C   UNL     1      -4.087  11.766  18.512  0.00  0.00    +0.000 C 
BRANCH  26  27
ATOM     27  C   UNL     1      -5.188  11.417  17.509  0.00  0.00    +0.000 C 
BRANCH  27  28
ATOM     28  C   UNL     1      -6.453  10.969  18.242  0.00  0.00    +0.000 C 
BRANCH  28  29
ATOM     29  C   UNL     1      -6.374  11.276  19.736  0.00  0.00    +0.000 C 
BRANCH  29  31
ATOM     30  C   UNL     1      -7.816  12.000  21.667  0.00  0.00    +0.000 C 
ATOM     31  C   UNL     1      -7.558  12.137  20.177  0.00  0.00    +0.000 C 
ENDBRANCH  29  31
ENDBRANCH  28  29
ENDBRANCH  27  28
ENDBRANCH  26  27
ENDBRANCH  25  26
ENDBRANCH  19  25
BRANCH  23  32
ATOM     32  C   UNL     1       2.180  12.318  18.569  0.00  0.00    +0.000 C 
BRANCH  32  33
ATOM     33  O   UNL     1       2.463  11.695  17.322  0.00  0.00    +0.000 OA
ATOM     34  H   UNL     1       3.437  11.652  17.273  0.00  0.00    +0.000 HD
ENDBRANCH  32  33
ENDBRANCH  23  32
ENDBRANCH   1  22
TORSDOF 11
ENDMDL
MODEL 4
REMARK VINA RESULT:      -7.1      2.808     10.444
REMARK  Name = 
REMARK  13 active torsions:
REMARK  status: ('A' for Active; 'I' for Inactive)
REMARK    1  A    between atoms: C_1  and  C_2
REMARK    2  A    between atoms: C_2  and  C_3
REMARK    3  A    between atoms: C_3  and  C_4
REMARK    4  A    between atoms: C_4  and  C_5
REMARK    5  A    between atoms: C_5  and  C_6
REMARK    6  A    between atoms: C_6  and  C_7
REMARK    7  A    between atoms: C_7  and  N_8
REMARK    8  A    between atoms: C_11  and  N_12
REMARK    9  A    between atoms: N_15  and  C_16
REMARK   10  A    between atoms: C_23  and  O_24
REMARK   11  A    between atoms: O_24  and  C_25
REMARK   12  A    between atoms: C_28  and  C_29
REMARK   13  A    between atoms: C_29  and  O_30
REMARK                            x       y       z     vdW  Elec       q    Type
REMARK                         _______ _______ _______ _____ _____    ______ ____
ROOT
ATOM      1  N   UNL     1       1.115   9.826  19.191  0.00  0.00    +0.000 N 
ATOM      2  C   UNL     1       1.924   9.097  18.344  0.00  0.00    +0.000 C 
ATOM      3  O   UNL     1       2.241   9.482  17.226  0.00  0.00    +0.000 OA
ATOM      4  N   UNL     1       2.240   7.870  18.893  0.00  0.00    +0.000 N 
ATOM      5  H   UNL     1       1.334   9.714  20.174  0.00  0.00    +0.000 HD
ATOM      6  H   UNL     1       1.531   7.502  19.508  0.00  0.00    +0.000 HD
ENDROOT
BRANCH   4   7
ATOM      7  C   UNL     1       3.043   6.930  18.200  0.00  0.00    +0.000 A 
ATOM      8  C   UNL     1       3.963   7.389  17.259  0.00  0.00    +0.000 A 
ATOM      9  C   UNL     1       4.765   6.462  16.626  0.00  0.00    +0.000 A 
ATOM     10  N   UNL     1       4.706   5.139  16.862  0.00  0.00    +0.000 NA
ATOM     11  C   UNL     1       3.803   4.688  17.746  0.00  0.00    +0.000 A 
ATOM     12  C   UNL     1       3.703   3.318  17.940  0.00  0.00    +0.000 A 
ATOM     13  C   UNL     1       2.761   2.753  18.807  0.00  0.00    +0.000 A 
ATOM     14  C   UNL     1       1.891   3.575  19.508  0.00  0.00    +0.000 A 
ATOM     15  C   UNL     1       1.985   4.958  19.338  0.00  0.00    +0.000 A 
ATOM     16  C   UNL     1       2.936   5.543  18.464  0.00  0.00    +0.000 A 
BRANCH  14  17
ATOM     17  O   UNL     1       0.911   3.170  20.369  0.00  0.00    +0.000 OA
ATOM     18  C   UNL     1       1.328   2.684  21.639  0.00  0.00    +0.000 C 
ENDBRANCH  14  17
ENDBRANCH   4   7
BRANCH   1  22
ATOM     19  N   UNL     1      -0.458  12.584  21.115  0.00  0.00    +0.000 NA
ATOM     20  C   UNL     1       0.990  12.402  20.942  0.00  0.00    +0.000 C 
ATOM     21  C   UNL     1       1.368  12.280  19.466  0.00  0.00    +0.000 C 
ATOM     22  C   UNL     1       0.608  11.143  18.777  0.00  0.00    +0.000 C 
ATOM     23  C   UNL     1      -0.905  11.316  19.010  0.00  0.00    +0.000 C 
ATOM     24  C   UNL     1      -1.222  11.478  20.504  0.00  0.00    +0.000 C 
BRANCH  19  25
ATOM     25  C   UNL     1      -0.839  12.709  22.536  0.00  0.00    +0.000 C 
BRANCH  25  26
ATOM     26  C   UNL     1      -1.878  11.695  23.033  0.00  0.00    +0.000 C 
BRANCH  26  27
ATOM     27  C   UNL     1      -3.169  12.346  23.535  0.00  0.00    +0.000 C 
BRANCH  27  28
ATOM     28  C   UNL     1      -3.384  13.697  22.851  0.00  0.00    +0.000 C 
BRANCH  28  29
ATOM     29  C   UNL     1      -3.764  14.781  23.857  0.00  0.00    +0.000 C 
BRANCH  29  31
ATOM     30  C   UNL     1      -2.023  15.534  25.511  0.00  0.00    +0.000 C 
ATOM     31  C   UNL     1      -3.112  14.517  25.214  0.00  0.00    +0.000 C 
ENDBRANCH  29  31
ENDBRANCH  28  29
ENDBRANCH  27  28
ENDBRANCH  26  27
ENDBRANCH  25  26
ENDBRANCH  19  25
BRANCH  23  32
ATOM     32  C   UNL     1      -1.745  10.196  18.382  0.00  0.00    +0.000 C 
BRANCH  32  33
ATOM     33  O   UNL     1      -1.292   9.858  17.076  0.00  0.00    +0.000 OA
ATOM     34  H   UNL     1      -0.780  10.633  16.775  0.00  0.00    +0.000 HD
ENDBRANCH  32  33
ENDBRANCH  23  32
ENDBRANCH   1  22
TORSDOF 11
ENDMDL
MODEL 5
REMARK VINA RESULT:      -7.0      2.578      3.158
REMARK  Name = 
REMARK  13 active torsions:
REMARK  status: ('A' for Active; 'I' for Inactive)
REMARK    1  A    between atoms: C_1  and  C_2
REMARK    2  A    between atoms: C_2  and  C_3
REMARK    3  A    between atoms: C_3  and  C_4
REMARK    4  A    between atoms: C_4  and  C_5
REMARK    5  A    between atoms: C_5  and  C_6
REMARK    6  A    between atoms: C_6  and  C_7
REMARK    7  A    between atoms: C_7  and  N_8
REMARK    8  A    between atoms: C_11  and  N_12
REMARK    9  A    between atoms: N_15  and  C_16
REMARK   10  A    between atoms: C_23  and  O_24
REMARK   11  A    between atoms: O_24  and  C_25
REMARK   12  A    between atoms: C_28  and  C_29
REMARK   13  A    between atoms: C_29  and  O_30
REMARK                            x       y       z     vdW  Elec       q    Type
REMARK                         _______ _______ _______ _____ _____    ______ ____
ROOT
ATOM      1  N   UNL     1       2.963   7.217  18.294  0.00  0.00    +0.000 N 
ATOM      2  C   UNL     1       2.036   8.106  18.799  0.00  0.00    +0.000 C 
ATOM      3  O   UNL     1       1.465   7.940  19.868  0.00  0.00    +0.000 OA
ATOM      4  N   UNL     1       1.794   9.131  17.905  0.00  0.00    +0.000 N 
ATOM      5  H   UNL     1       3.704   7.650  17.753  0.00  0.00    +0.000 HD
ATOM      6  H   UNL     1       1.906   8.866  16.939  0.00  0.00    +0.000 HD
ENDROOT
BRANCH   4   7
ATOM      7  C   UNL     1       0.859  10.158  18.189  0.00  0.00    +0.000 A 
ATOM      8  C   UNL     1      -0.489   9.829  18.319  0.00  0.00    +0.000 A 
ATOM      9  C   UNL     1      -1.378  10.836  18.637  0.00  0.00    +0.000 A 
ATOM     10  N   UNL     1      -1.017  12.118  18.824  0.00  0.00    +0.000 NA
ATOM     11  C   UNL     1       0.276  12.447  18.673  0.00  0.00    +0.000 A 
ATOM     12  C   UNL     1       0.633  13.780  18.805  0.00  0.00    +0.000 A 
ATOM     13  C   UNL     1       1.947  14.224  18.619  0.00  0.00    +0.000 A 
ATOM     14  C   UNL     1       2.942  13.311  18.295  0.00  0.00    +0.000 A 
ATOM     15  C   UNL     1       2.605  11.962  18.172  0.00  0.00    +0.000 A 
ATOM     16  C   UNL     1       1.278  11.500  18.359  0.00  0.00    +0.000 A 
BRANCH  14  17
ATOM     17  O   UNL     1       4.258  13.596  18.066  0.00  0.00    +0.000 OA
ATOM     18  C   UNL     1       4.626  14.970  18.038  0.00  0.00    +0.000 C 
ENDBRANCH  14  17
ENDBRANCH   4   7
BRANCH   1  22
ATOM     19  N   UNL     1       5.337   4.455  17.572  0.00  0.00    +0.000 NA
ATOM     20  C   UNL     1       5.698   5.724  18.220  0.00  0.00    +0.000 C 
ATOM     21  C   UNL     1       4.810   6.010  19.430  0.00  0.00    +0.000 C 
ATOM     22  C   UNL     1       3.325   6.013  19.057  0.00  0.00    +0.000 C 
ATOM     23  C   UNL     1       2.970   4.701  18.332  0.00  0.00    +0.000 C 
ATOM     24  C   UNL     1       3.921   4.442  17.154  0.00  0.00    +0.000 C 
BRANCH  19  25
ATOM     25  C   UNL     1       6.190   4.162  16.404  0.00  0.00    +0.000 C 
BRANCH  25  26
ATOM     26  C   UNL     1       6.431   5.339  15.450  0.00  0.00    +0.000 C 
BRANCH  26  27
ATOM     27  C   UNL     1       6.876   4.906  14.051  0.00  0.00    +0.000 C 
BRANCH  27  28
ATOM     28  C   UNL     1       5.901   3.876  13.479  0.00  0.00    +0.000 C 
BRANCH  28  29
ATOM     29  C   UNL     1       6.363   3.362  12.118  0.00  0.00    +0.000 C 
BRANCH  29  31
ATOM     30  C   UNL     1       4.033   3.109  11.202  0.00  0.00    +0.000 C 
ATOM     31  C   UNL     1       5.336   2.399  11.523  0.00  0.00    +0.000 C 
ENDBRANCH  29  31
ENDBRANCH  28  29
ENDBRANCH  27  28
ENDBRANCH  26  27
ENDBRANCH  25  26
ENDBRANCH  19  25
BRANCH  23  32
ATOM     32  C   UNL     1       1.504   4.634  17.888  0.00  0.00    +0.000 C 
BRANCH  32  33
ATOM     33  O   UNL     1       1.057   3.293  17.723  0.00  0.00    +0.000 OA
ATOM     34  H   UNL     1       0.130   3.368  17.426  0.00  0.00    +0.000 HD
ENDBRANCH  32  33
ENDBRANCH  23  32
ENDBRANCH   1  22
TORSDOF 11
ENDMDL
MODEL 6
REMARK VINA RESULT:      -6.9      2.748     10.337
REMARK  Name = 
REMARK  13 active torsions:
REMARK  status: ('A' for Active; 'I' for Inactive)
REMARK    1  A    between atoms: C_1  and  C_2
REMARK    2  A    between atoms: C_2  and  C_3
REMARK    3  A    between atoms: C_3  and  C_4
REMARK    4  A    between atoms: C_4  and  C_5
REMARK    5  A    between atoms: C_5  and  C_6
REMARK    6  A    between atoms: C_6  and  C_7
REMARK    7  A    between atoms: C_7  and  N_8
REMARK    8  A    between atoms: C_11  and  N_12
REMARK    9  A    between atoms: N_15  and  C_16
REMARK   10  A    between atoms: C_23  and  O_24
REMARK   11  A    between atoms: O_24  and  C_25
REMARK   12  A    between atoms: C_28  and  C_29
REMARK   13  A    between atoms: C_29  and  O_30
REMARK                            x       y       z     vdW  Elec       q    Type
REMARK                         _______ _______ _______ _____ _____    ______ ____
ROOT
ATOM      1  N   UNL     1       1.286   9.814  19.181  0.00  0.00    +0.000 N 
ATOM      2  C   UNL     1       2.015   9.040  18.302  0.00  0.00    +0.000 C 
ATOM      3  O   UNL     1       2.237   9.371  17.145  0.00  0.00    +0.000 OA
ATOM      4  N   UNL     1       2.370   7.836  18.877  0.00  0.00    +0.000 N 
ATOM      5  H   UNL     1       1.588   9.744  20.146  0.00  0.00    +0.000 HD
ATOM      6  H   UNL     1       1.714   7.502  19.566  0.00  0.00    +0.000 HD
ENDROOT
BRANCH   4   7
ATOM      7  C   UNL     1       3.106   6.857  18.161  0.00  0.00    +0.000 A 
ATOM      8  C   UNL     1       4.015   7.272  17.190  0.00  0.00    +0.000 A 
ATOM      9  C   UNL     1       4.752   6.307  16.533  0.00  0.00    +0.000 A 
ATOM     10  N   UNL     1       4.639   4.988  16.775  0.00  0.00    +0.000 NA
ATOM     11  C   UNL     1       3.744   4.581  17.690  0.00  0.00    +0.000 A 
ATOM     12  C   UNL     1       3.587   3.218  17.891  0.00  0.00    +0.000 A 
ATOM     13  C   UNL     1       2.647   2.699  18.788  0.00  0.00    +0.000 A 
ATOM     14  C   UNL     1       1.840   3.563  19.515  0.00  0.00    +0.000 A 
ATOM     15  C   UNL     1       1.993   4.939  19.338  0.00  0.00    +0.000 A 
ATOM     16  C   UNL     1       2.942   5.477  18.432  0.00  0.00    +0.000 A 
BRANCH  14  17
ATOM     17  O   UNL     1       0.870   3.205  20.409  0.00  0.00    +0.000 OA
ATOM     18  C   UNL     1       1.304   2.739  21.680  0.00  0.00    +0.000 C 
ENDBRANCH  14  17
ENDBRANCH   4   7
BRANCH   1  22
ATOM     19  N   UNL     1      -0.414  12.526  21.061  0.00  0.00    +0.000 NA
ATOM     20  C   UNL     1       1.043  12.385  20.925  0.00  0.00    +0.000 C 
ATOM     21  C   UNL     1       1.462  12.273  19.460  0.00  0.00    +0.000 C 
ATOM     22  C   UNL     1       0.753  11.115  18.752  0.00  0.00    +0.000 C 
ATOM     23  C   UNL     1      -0.770  11.245  18.947  0.00  0.00    +0.000 C 
ATOM     24  C   UNL     1      -1.130  11.399  20.432  0.00  0.00    +0.000 C 
BRANCH  19  25
ATOM     25  C   UNL     1      -0.834  12.641  22.471  0.00  0.00    +0.000 C 
BRANCH  25  26
ATOM     26  C   UNL     1      -1.895  11.631  22.928  0.00  0.00    +0.000 C 
BRANCH  26  27
ATOM     27  C   UNL     1      -3.095  12.282  23.620  0.00  0.00    +0.000 C 
BRANCH  27  28
ATOM     28  C   UNL     1      -4.105  12.772  22.581  0.00  0.00    +0.000 C 
BRANCH  28  29
ATOM     29  C   UNL     1      -5.068  13.797  23.175  0.00  0.00    +0.000 C 
BRANCH  29  31
ATOM     30  C   UNL     1      -7.104  12.481  23.851  0.00  0.00    +0.000 C 
ATOM     31  C   UNL     1      -6.516  13.444  22.834  0.00  0.00    +0.000 C 
ENDBRANCH  29  31
ENDBRANCH  28  29
ENDBRANCH  27  28
ENDBRANCH  26  27
ENDBRANCH  25  26
ENDBRANCH  19  25
BRANCH  23  32
ATOM     32  C   UNL     1      -1.561  10.102  18.298  0.00  0.00    +0.000 C 
BRANCH  32  33
ATOM     33  O   UNL     1      -1.588  10.209  16.880  0.00  0.00    +0.000 OA
ATOM     34  H   UNL     1      -0.748  10.646  16.641  0.00  0.00    +0.000 HD
ENDBRANCH  32  33
ENDBRANCH  23  32
ENDBRANCH   1  22
TORSDOF 11
ENDMDL
MODEL 7
REMARK VINA RESULT:      -6.9      1.242      1.505
REMARK  Name = 
REMARK  13 active torsions:
REMARK  status: ('A' for Active; 'I' for Inactive)
REMARK    1  A    between atoms: C_1  and  C_2
REMARK    2  A    between atoms: C_2  and  C_3
REMARK    3  A    between atoms: C_3  and  C_4
REMARK    4  A    between atoms: C_4  and  C_5
REMARK    5  A    between atoms: C_5  and  C_6
REMARK    6  A    between atoms: C_6  and  C_7
REMARK    7  A    between atoms: C_7  and  N_8
REMARK    8  A    between atoms: C_11  and  N_12
REMARK    9  A    between atoms: N_15  and  C_16
REMARK   10  A    between atoms: C_23  and  O_24
REMARK   11  A    between atoms: O_24  and  C_25
REMARK   12  A    between atoms: C_28  and  C_29
REMARK   13  A    between atoms: C_29  and  O_30
REMARK                            x       y       z     vdW  Elec       q    Type
REMARK                         _______ _______ _______ _____ _____    ______ ____
ROOT
ATOM      1  N   UNL     1       2.774   6.219  19.087  0.00  0.00    +0.000 N 
ATOM      2  C   UNL     1       2.131   6.875  20.117  0.00  0.00    +0.000 C 
ATOM      3  O   UNL     1       1.915   6.359  21.206  0.00  0.00    +0.000 OA
ATOM      4  N   UNL     1       1.704   8.126  19.719  0.00  0.00    +0.000 N 
ATOM      5  H   UNL     1       3.338   6.821  18.499  0.00  0.00    +0.000 HD
ATOM      6  H   UNL     1       1.481   8.189  18.737  0.00  0.00    +0.000 HD
ENDROOT
BRANCH   4   7
ATOM      7  C   UNL     1       0.994   8.984  20.597  0.00  0.00    +0.000 A 
ATOM      8  C   UNL     1       1.251   8.914  21.965  0.00  0.00    +0.000 A 
ATOM      9  C   UNL     1       0.581   9.786  22.799  0.00  0.00    +0.000 A 
ATOM     10  N   UNL     1      -0.309  10.697  22.366  0.00  0.00    +0.000 NA
ATOM     11  C   UNL     1      -0.581  10.751  21.053  0.00  0.00    +0.000 A 
ATOM     12  C   UNL     1      -1.545  11.648  20.619  0.00  0.00    +0.000 A 
ATOM     13  C   UNL     1      -1.929  11.742  19.277  0.00  0.00    +0.000 A 
ATOM     14  C   UNL     1      -1.332  10.920  18.331  0.00  0.00    +0.000 A 
ATOM     15  C   UNL     1      -0.348  10.019  18.745  0.00  0.00    +0.000 A 
ATOM     16  C   UNL     1       0.049   9.916  20.102  0.00  0.00    +0.000 A 
BRANCH  14  17
ATOM     17  O   UNL     1      -1.615  10.884  16.996  0.00  0.00    +0.000 OA
ATOM     18  C   UNL     1      -2.643   9.996  16.577  0.00  0.00    +0.000 C 
ENDBRANCH  14  17
ENDBRANCH   4   7
BRANCH   1  22
ATOM     19  N   UNL     1       5.478   4.303  17.415  0.00  0.00    +0.000 NA
ATOM     20  C   UNL     1       5.669   5.184  18.576  0.00  0.00    +0.000 C 
ATOM     21  C   UNL     1       4.723   4.819  19.719  0.00  0.00    +0.000 C 
ATOM     22  C   UNL     1       3.258   4.843  19.276  0.00  0.00    +0.000 C 
ATOM     23  C   UNL     1       3.081   3.957  18.027  0.00  0.00    +0.000 C 
ATOM     24  C   UNL     1       4.085   4.338  16.929  0.00  0.00    +0.000 C 
BRANCH  19  25
ATOM     25  C   UNL     1       6.388   4.638  16.303  0.00  0.00    +0.000 C 
BRANCH  25  26
ATOM     26  C   UNL     1       5.725   5.277  15.076  0.00  0.00    +0.000 C 
BRANCH  26  27
ATOM     27  C   UNL     1       5.332   4.261  14.001  0.00  0.00    +0.000 C 
BRANCH  27  28
ATOM     28  C   UNL     1       6.579   3.730  13.291  0.00  0.00    +0.000 C 
BRANCH  28  29
ATOM     29  C   UNL     1       6.329   3.520  11.800  0.00  0.00    +0.000 C 
BRANCH  29  31
ATOM     30  C   UNL     1       6.394   1.081  11.181  0.00  0.00    +0.000 C 
ATOM     31  C   UNL     1       5.506   2.255  11.559  0.00  0.00    +0.000 C 
ENDBRANCH  29  31
ENDBRANCH  28  29
ENDBRANCH  27  28
ENDBRANCH  26  27
ENDBRANCH  25  26
ENDBRANCH  19  25
BRANCH  23  32
ATOM     32  C   UNL     1       1.644   3.951  17.490  0.00  0.00    +0.000 C 
BRANCH  32  33
ATOM     33  O   UNL     1       0.842   2.961  18.123  0.00  0.00    +0.000 OA
ATOM     34  H   UNL     1       0.983   2.148  17.603  0.00  0.00    +0.000 HD
ENDBRANCH  32  33
ENDBRANCH  23  32
ENDBRANCH   1  22
TORSDOF 11
ENDMDL
MODEL 8
REMARK VINA RESULT:      -6.8      3.435      6.532
REMARK  Name = 
REMARK  13 active torsions:
REMARK  status: ('A' for Active; 'I' for Inactive)
REMARK    1  A    between atoms: C_1  and  C_2
REMARK    2  A    between atoms: C_2  and  C_3
REMARK    3  A    between atoms: C_3  and  C_4
REMARK    4  A    between atoms: C_4  and  C_5
REMARK    5  A    between atoms: C_5  and  C_6
REMARK    6  A    between atoms: C_6  and  C_7
REMARK    7  A    between atoms: C_7  and  N_8
REMARK    8  A    between atoms: C_11  and  N_12
REMARK    9  A    between atoms: N_15  and  C_16
REMARK   10  A    between atoms: C_23  and  O_24
REMARK   11  A    between atoms: O_24  and  C_25
REMARK   12  A    between atoms: C_28  and  C_29
REMARK   13  A    between atoms: C_29  and  O_30
REMARK                            x       y       z     vdW  Elec       q    Type
REMARK                         _______ _______ _______ _____ _____    ______ ____
ROOT
ATOM      1  N   UNL     1      -1.066  10.362  19.368  0.00  0.00    +0.000 N 
ATOM      2  C   UNL     1      -1.969  11.329  18.976  0.00  0.00    +0.000 C 
ATOM      3  O   UNL     1      -1.690  12.519  18.914  0.00  0.00    +0.000 OA
ATOM      4  N   UNL     1      -3.218  10.781  18.756  0.00  0.00    +0.000 N 
ATOM      5  H   UNL     1      -1.191   9.466  18.910  0.00  0.00    +0.000 HD
ATOM      6  H   UNL     1      -3.416   9.972  19.323  0.00  0.00    +0.000 HD
ENDROOT
BRANCH   4   7
ATOM      7  C   UNL     1      -4.322  11.581  18.366  0.00  0.00    +0.000 A 
ATOM      8  C   UNL     1      -4.573  11.773  17.009  0.00  0.00    +0.000 A 
ATOM      9  C   UNL     1      -5.677  12.519  16.649  0.00  0.00    +0.000 A 
ATOM     10  N   UNL     1      -6.522  13.075  17.535  0.00  0.00    +0.000 NA
ATOM     11  C   UNL     1      -6.271  12.917  18.844  0.00  0.00    +0.000 A 
ATOM     12  C   UNL     1      -7.109  13.545  19.754  0.00  0.00    +0.000 A 
ATOM     13  C   UNL     1      -6.899  13.476  21.135  0.00  0.00    +0.000 A 
ATOM     14  C   UNL     1      -5.822  12.755  21.632  0.00  0.00    +0.000 A 
ATOM     15  C   UNL     1      -4.974  12.104  20.734  0.00  0.00    +0.000 A 
ATOM     16  C   UNL     1      -5.177  12.166  19.332  0.00  0.00    +0.000 A 
BRANCH  14  17
ATOM     17  O   UNL     1      -5.479  12.614  22.947  0.00  0.00    +0.000 OA
ATOM     18  C   UNL     1      -6.405  13.101  23.911  0.00  0.00    +0.000 C 
ENDBRANCH  14  17
ENDBRANCH   4   7
BRANCH   1  22
ATOM     19  N   UNL     1       2.056   8.365  19.577  0.00  0.00    +0.000 NA
ATOM     20  C   UNL     1       1.540   8.989  18.350  0.00  0.00    +0.000 C 
ATOM     21  C   UNL     1       1.273  10.481  18.550  0.00  0.00    +0.000 C 
ATOM     22  C   UNL     1       0.313  10.736  19.714  0.00  0.00    +0.000 C 
ATOM     23  C   UNL     1       0.837  10.033  20.981  0.00  0.00    +0.000 C 
ATOM     24  C   UNL     1       1.130   8.549  20.712  0.00  0.00    +0.000 C 
BRANCH  19  25
ATOM     25  C   UNL     1       2.324   6.924  19.400  0.00  0.00    +0.000 C 
BRANCH  25  26
ATOM     26  C   UNL     1       3.091   6.547  18.126  0.00  0.00    +0.000 C 
BRANCH  26  27
ATOM     27  C   UNL     1       3.075   5.046  17.828  0.00  0.00    +0.000 C 
BRANCH  27  28
ATOM     28  C   UNL     1       1.640   4.517  17.845  0.00  0.00    +0.000 C 
BRANCH  28  29
ATOM     29  C   UNL     1       1.515   3.262  18.704  0.00  0.00    +0.000 C 
BRANCH  29  31
ATOM     30  C   UNL     1       1.911   3.580  21.169  0.00  0.00    +0.000 C 
ATOM     31  C   UNL     1       0.879   3.588  20.055  0.00  0.00    +0.000 C 
ENDBRANCH  29  31
ENDBRANCH  28  29
ENDBRANCH  27  28
ENDBRANCH  26  27
ENDBRANCH  25  26
ENDBRANCH  19  25
BRANCH  23  32
ATOM     32  C   UNL     1      -0.086  10.206  22.193  0.00  0.00    +0.000 C 
BRANCH  32  33
ATOM     33  O   UNL     1      -0.729   8.989  22.553  0.00  0.00    +0.000 OA
ATOM     34  H   UNL     1      -1.662   9.106  22.288  0.00  0.00    +0.000 HD
ENDBRANCH  32  33
ENDBRANCH  23  32
ENDBRANCH   1  22
TORSDOF 11
ENDMDL
MODEL 9
REMARK VINA RESULT:      -6.8      2.696      8.905
REMARK  Name = 
REMARK  13 active torsions:
REMARK  status: ('A' for Active; 'I' for Inactive)
REMARK    1  A    between atoms: C_1  and  C_2
REMARK    2  A    between atoms: C_2  and  C_3
REMARK    3  A    between atoms: C_3  and  C_4
REMARK    4  A    between atoms: C_4  and  C_5
REMARK    5  A    between atoms: C_5  and  C_6
REMARK    6  A    between atoms: C_6  and  C_7
REMARK    7  A    between atoms: C_7  and  N_8
REMARK    8  A    between atoms: C_11  and  N_12
REMARK    9  A    between atoms: N_15  and  C_16
REMARK   10  A    between atoms: C_23  and  O_24
REMARK   11  A    between atoms: O_24  and  C_25
REMARK   12  A    between atoms: C_28  and  C_29
REMARK   13  A    between atoms: C_29  and  O_30
REMARK                            x       y       z     vdW  Elec       q    Type
REMARK                         _______ _______ _______ _____ _____    ______ ____
ROOT
ATOM      1  N   UNL     1       1.550   9.363  18.671  0.00  0.00    +0.000 N 
ATOM      2  C   UNL     1       2.054   8.102  18.917  0.00  0.00    +0.000 C 
ATOM      3  O   UNL     1       2.257   7.672  20.044  0.00  0.00    +0.000 OA
ATOM      4  N   UNL     1       2.365   7.453  17.738  0.00  0.00    +0.000 N 
ATOM      5  H   UNL     1       0.961   9.422  17.848  0.00  0.00    +0.000 HD
ATOM      6  H   UNL     1       2.638   8.071  16.990  0.00  0.00    +0.000 HD
ENDROOT
BRANCH   4   7
ATOM      7  C   UNL     1       2.921   6.149  17.732  0.00  0.00    +0.000 A 
ATOM      8  C   UNL     1       2.090   5.058  17.983  0.00  0.00    +0.000 A 
ATOM      9  C   UNL     1       2.642   3.794  17.930  0.00  0.00    +0.000 A 
ATOM     10  N   UNL     1       3.936   3.555  17.655  0.00  0.00    +0.000 NA
ATOM     11  C   UNL     1       4.748   4.603  17.441  0.00  0.00    +0.000 A 
ATOM     12  C   UNL     1       6.094   4.355  17.220  0.00  0.00    +0.000 A 
ATOM     13  C   UNL     1       7.023   5.385  17.032  0.00  0.00    +0.000 A 
ATOM     14  C   UNL     1       6.599   6.707  17.061  0.00  0.00    +0.000 A 
ATOM     15  C   UNL     1       5.245   6.977  17.268  0.00  0.00    +0.000 A 
ATOM     16  C   UNL     1       4.295   5.942  17.458  0.00  0.00    +0.000 A 
BRANCH  14  17
ATOM     17  O   UNL     1       7.387   7.812  16.915  0.00  0.00    +0.000 OA
ATOM     18  C   UNL     1       8.118   8.241  18.057  0.00  0.00    +0.000 C 
ENDBRANCH  14  17
ENDBRANCH   4   7
BRANCH   1  22
ATOM     19  N   UNL     1      -1.330  11.638  19.226  0.00  0.00    +0.000 NA
ATOM     20  C   UNL     1      -1.314  10.207  19.564  0.00  0.00    +0.000 C 
ATOM     21  C   UNL     1      -0.116   9.852  20.443  0.00  0.00    +0.000 C 
ATOM     22  C   UNL     1       1.209  10.254  19.790  0.00  0.00    +0.000 C 
ATOM     23  C   UNL     1       1.160  11.742  19.393  0.00  0.00    +0.000 C 
ATOM     24  C   UNL     1      -0.086  12.051  18.548  0.00  0.00    +0.000 C 
BRANCH  19  25
ATOM     25  C   UNL     1      -2.485  11.999  18.380  0.00  0.00    +0.000 C 
BRANCH  25  26
ATOM     26  C   UNL     1      -3.756  11.172  18.611  0.00  0.00    +0.000 C 
BRANCH  26  27
ATOM     27  C   UNL     1      -4.157  10.324  17.402  0.00  0.00    +0.000 C 
BRANCH  27  28
ATOM     28  C   UNL     1      -2.988  10.208  16.423  0.00  0.00    +0.000 C 
BRANCH  28  29
ATOM     29  C   UNL     1      -3.262  10.970  15.129  0.00  0.00    +0.000 C 
BRANCH  29  31
ATOM     30  C   UNL     1      -2.735   9.440  13.201  0.00  0.00    +0.000 C 
ATOM     31  C   UNL     1      -3.835  10.039  14.060  0.00  0.00    +0.000 C 
ENDBRANCH  29  31
ENDBRANCH  28  29
ENDBRANCH  27  28
ENDBRANCH  26  27
ENDBRANCH  25  26
ENDBRANCH  19  25
BRANCH  23  32
ATOM     32  C   UNL     1       2.438  12.223  18.695  0.00  0.00    +0.000 C 
BRANCH  32  33
ATOM     33  O   UNL     1       2.202  12.589  17.340  0.00  0.00    +0.000 OA
ATOM     34  H   UNL     1       1.608  13.362  17.385  0.00  0.00    +0.000 HD
ENDBRANCH  32  33
ENDBRANCH  23  32
ENDBRANCH   1  22
TORSDOF 11
ENDMDL
