MODEL 1
REMARK VINA RESULT:      -7.5      0.000      0.000
REMARK  Name = 
REMARK  3 active torsions:
REMARK  status: ('A' for Active; 'I' for Inactive)
REMARK    1  A    between atoms: C_2  and  C_3
REMARK    2  A    between atoms: C_3  and  N_4
REMARK    3  A    between atoms: N_16  and  O_17
REMARK                            x       y       z     vdW  Elec       q    Type
REMARK                         _______ _______ _______ _____ _____    ______ ____
ROOT
ATOM      1  N   UNL     1       5.705   5.018  16.973  0.00  0.00    +0.000 N 
ATOM      2  C   UNL     1       5.122   6.252  16.627  0.00  0.00    +0.000 C 
ATOM      3  O   UNL     1       5.455   6.927  15.670  0.00  0.00    +0.000 OA
ATOM      4  C   UNL     1       4.093   6.607  17.619  0.00  0.00    +0.000 A 
ATOM      5  C   UNL     1       3.273   7.724  17.592  0.00  0.00    +0.000 A 
ATOM      6  C   UNL     1       2.328   7.867  18.614  0.00  0.00    +0.000 A 
ATOM      7  C   UNL     1       2.220   6.906  19.637  0.00  0.00    +0.000 A 
ATOM      8  C   UNL     1       3.063   5.792  19.664  0.00  0.00    +0.000 A 
ATOM      9  C   UNL     1       3.987   5.674  18.643  0.00  0.00    +0.000 A 
ATOM     10  S   UNL     1       5.143   4.391  18.428  0.00  0.00    +0.000 S 
ATOM     11  O   UNL     1       4.449   3.156  18.175  0.00  0.00    +0.000 OA
ATOM     12  O   UNL     1       6.182   4.547  19.422  0.00  0.00    +0.000 OA
ENDROOT
BRANCH   1  13
ATOM     13  C   UNL     1       6.864   4.384  16.340  0.00  0.00    +0.000 C 
BRANCH  13  15
ATOM     14  O   UNL     1       6.070   3.956  14.091  0.00  0.00    +0.000 OA
ATOM     15  C   UNL     1       6.865   4.540  14.825  0.00  0.00    +0.000 C 
ATOM     16  N   UNL     1       7.796   5.428  14.340  0.00  0.00    +0.000 N 
ATOM     17  H   UNL     1       8.535   5.840  14.911  0.00  0.00    +0.000 HD
BRANCH  16  18
ATOM     18  O   UNL     1       7.888   5.617  12.946  0.00  0.00    +0.000 OA
ATOM     19  H   UNL     1       6.956   5.578  12.649  0.00  0.00    +0.000 HD
ENDBRANCH  16  18
ENDBRANCH  13  15
ENDBRANCH   1  13
TORSDOF 3
ENDMDL
MODEL 2
REMARK VINA RESULT:      -7.4      2.343      3.485
REMARK  Name = 
REMARK  3 active torsions:
REMARK  status: ('A' for Active; 'I' for Inactive)
REMARK    1  A    between atoms: C_2  and  C_3
REMARK    2  A    between atoms: C_3  and  N_4
REMARK    3  A    between atoms: N_16  and  O_17
REMARK                            x       y       z     vdW  Elec       q    Type
REMARK                         _______ _______ _______ _____ _____    ______ ____
ROOT
ATOM      1  N   UNL     1       4.230   4.880  17.431  0.00  0.00    +0.000 N 
ATOM      2  C   UNL     1       3.338   3.795  17.318  0.00  0.00    +0.000 C 
ATOM      3  O   UNL     1       3.205   3.114  16.318  0.00  0.00    +0.000 OA
ATOM      4  C   UNL     1       2.574   3.652  18.569  0.00  0.00    +0.000 A 
ATOM      5  C   UNL     1       1.636   2.673  18.855  0.00  0.00    +0.000 A 
ATOM      6  C   UNL     1       1.041   2.687  20.121  0.00  0.00    +0.000 A 
ATOM      7  C   UNL     1       1.385   3.668  21.071  0.00  0.00    +0.000 A 
ATOM      8  C   UNL     1       2.320   4.660  20.767  0.00  0.00    +0.000 A 
ATOM      9  C   UNL     1       2.893   4.625  19.509  0.00  0.00    +0.000 A 
ATOM     10  S   UNL     1       4.085   5.724  18.877  0.00  0.00    +0.000 S 
ATOM     11  O   UNL     1       5.306   5.593  19.626  0.00  0.00    +0.000 OA
ATOM     12  O   UNL     1       3.435   6.986  18.602  0.00  0.00    +0.000 OA
ENDROOT
BRANCH   1  13
ATOM     13  C   UNL     1       5.057   5.451  16.367  0.00  0.00    +0.000 C 
BRANCH  13  15
ATOM     14  O   UNL     1       7.366   6.182  16.303  0.00  0.00    +0.000 OA
ATOM     15  C   UNL     1       6.549   5.333  16.652  0.00  0.00    +0.000 C 
ATOM     16  N   UNL     1       6.908   4.223  17.380  0.00  0.00    +0.000 N 
ATOM     17  H   UNL     1       6.271   3.452  17.587  0.00  0.00    +0.000 HD
BRANCH  16  18
ATOM     18  O   UNL     1       8.272   4.017  17.670  0.00  0.00    +0.000 OA
ATOM     19  H   UNL     1       8.725   4.305  16.851  0.00  0.00    +0.000 HD
ENDBRANCH  16  18
ENDBRANCH  13  15
ENDBRANCH   1  13
TORSDOF 3
ENDMDL
MODEL 3
REMARK VINA RESULT:      -7.4      2.114      2.945
REMARK  Name = 
REMARK  3 active torsions:
REMARK  status: ('A' for Active; 'I' for Inactive)
REMARK    1  A    between atoms: C_2  and  C_3
REMARK    2  A    between atoms: C_3  and  N_4
REMARK    3  A    between atoms: N_16  and  O_17
REMARK                            x       y       z     vdW  Elec       q    Type
REMARK                         _______ _______ _______ _____ _____    ______ ____
ROOT
ATOM      1  N   UNL     1       4.470   5.798  18.167  0.00  0.00    +0.000 N 
ATOM      2  C   UNL     1       3.265   6.133  18.814  0.00  0.00    +0.000 C 
ATOM      3  O   UNL     1       2.826   7.265  18.909  0.00  0.00    +0.000 OA
ATOM      4  C   UNL     1       2.657   4.920  19.385  0.00  0.00    +0.000 A 
ATOM      5  C   UNL     1       1.447   4.841  20.055  0.00  0.00    +0.000 A 
ATOM      6  C   UNL     1       1.022   3.583  20.494  0.00  0.00    +0.000 A 
ATOM      7  C   UNL     1       1.805   2.435  20.264  0.00  0.00    +0.000 A 
ATOM      8  C   UNL     1       3.032   2.528  19.602  0.00  0.00    +0.000 A 
ATOM      9  C   UNL     1       3.428   3.783  19.179  0.00  0.00    +0.000 A 
ATOM     10  S   UNL     1       4.893   4.179  18.326  0.00  0.00    +0.000 S 
ATOM     11  O   UNL     1       4.879   3.556  17.030  0.00  0.00    +0.000 OA
ATOM     12  O   UNL     1       5.996   4.087  19.258  0.00  0.00    +0.000 OA
ENDROOT
BRANCH   1  13
ATOM     13  C   UNL     1       5.454   6.726  17.605  0.00  0.00    +0.000 C 
BRANCH  13  15
ATOM     14  O   UNL     1       5.176   6.553  15.204  0.00  0.00    +0.000 OA
ATOM     15  C   UNL     1       5.879   6.348  16.192  0.00  0.00    +0.000 C 
ATOM     16  N   UNL     1       7.138   5.804  16.098  0.00  0.00    +0.000 N 
ATOM     17  H   UNL     1       7.695   5.523  16.906  0.00  0.00    +0.000 HD
BRANCH  16  18
ATOM     18  O   UNL     1       7.607   5.399  14.831  0.00  0.00    +0.000 OA
ATOM     19  H   UNL     1       6.856   5.597  14.236  0.00  0.00    +0.000 HD
ENDBRANCH  16  18
ENDBRANCH  13  15
ENDBRANCH   1  13
TORSDOF 3
ENDMDL
MODEL 4
REMARK VINA RESULT:      -7.4      1.156      1.167
REMARK  Name = 
REMARK  3 active torsions:
REMARK  status: ('A' for Active; 'I' for Inactive)
REMARK    1  A    between atoms: C_2  and  C_3
REMARK    2  A    between atoms: C_3  and  N_4
REMARK    3  A    between atoms: N_16  and  O_17
REMARK                            x       y       z     vdW  Elec       q    Type
REMARK                         _______ _______ _______ _____ _____    ______ ____
ROOT
ATOM      1  N   UNL     1       4.779   4.505  16.859  0.00  0.00    +0.000 N 
ATOM      2  C   UNL     1       4.449   5.866  16.705  0.00  0.00    +0.000 C 
ATOM      3  O   UNL     1       4.830   6.566  15.785  0.00  0.00    +0.000 OA
ATOM      4  C   UNL     1       3.623   6.305  17.842  0.00  0.00    +0.000 A 
ATOM      5  C   UNL     1       3.069   7.563  18.020  0.00  0.00    +0.000 A 
ATOM      6  C   UNL     1       2.280   7.775  19.156  0.00  0.00    +0.000 A 
ATOM      7  C   UNL     1       2.061   6.742  20.087  0.00  0.00    +0.000 A 
ATOM      8  C   UNL     1       2.638   5.483  19.907  0.00  0.00    +0.000 A 
ATOM      9  C   UNL     1       3.413   5.299  18.777  0.00  0.00    +0.000 A 
ATOM     10  S   UNL     1       4.233   3.839  18.303  0.00  0.00    +0.000 S 
ATOM     11  O   UNL     1       3.265   2.814  18.016  0.00  0.00    +0.000 OA
ATOM     12  O   UNL     1       5.371   3.656  19.177  0.00  0.00    +0.000 OA
ENDROOT
BRANCH   1  13
ATOM     13  C   UNL     1       5.705   3.726  16.035  0.00  0.00    +0.000 C 
BRANCH  13  15
ATOM     14  O   UNL     1       7.910   4.589  16.546  0.00  0.00    +0.000 OA
ATOM     15  C   UNL     1       6.996   4.474  15.731  0.00  0.00    +0.000 C 
ATOM     16  N   UNL     1       7.085   4.971  14.453  0.00  0.00    +0.000 N 
ATOM     17  H   UNL     1       6.303   4.985  13.797  0.00  0.00    +0.000 HD
BRANCH  16  18
ATOM     18  O   UNL     1       8.235   5.701  14.089  0.00  0.00    +0.000 OA
ATOM     19  H   UNL     1       8.818   5.023  13.691  0.00  0.00    +0.000 HD
ENDBRANCH  16  18
ENDBRANCH  13  15
ENDBRANCH   1  13
TORSDOF 3
ENDMDL
MODEL 5
REMARK VINA RESULT:      -7.3      1.788      2.424
REMARK  Name = 
REMARK  3 active torsions:
REMARK  status: ('A' for Active; 'I' for Inactive)
REMARK    1  A    between atoms: C_2  and  C_3
REMARK    2  A    between atoms: C_3  and  N_4
REMARK    3  A    between atoms: N_16  and  O_17
REMARK                            x       y       z     vdW  Elec       q    Type
REMARK                         _______ _______ _______ _____ _____    ______ ____
ROOT
ATOM      1  N   UNL     1       4.170   4.680  16.956  0.00  0.00    +0.000 N 
ATOM      2  C   UNL     1       4.033   5.975  17.493  0.00  0.00    +0.000 C 
ATOM      3  O   UNL     1       4.623   6.958  17.081  0.00  0.00    +0.000 OA
ATOM      4  C   UNL     1       3.111   5.939  18.639  0.00  0.00    +0.000 A 
ATOM      5  C   UNL     1       2.692   7.022  19.396  0.00  0.00    +0.000 A 
ATOM      6  C   UNL     1       1.779   6.785  20.429  0.00  0.00    +0.000 A 
ATOM      7  C   UNL     1       1.306   5.485  20.692  0.00  0.00    +0.000 A 
ATOM      8  C   UNL     1       1.747   4.397  19.934  0.00  0.00    +0.000 A 
ATOM      9  C   UNL     1       2.649   4.658  18.919  0.00  0.00    +0.000 A 
ATOM     10  S   UNL     1       3.347   3.500  17.823  0.00  0.00    +0.000 S 
ATOM     11  O   UNL     1       2.314   2.937  16.995  0.00  0.00    +0.000 OA
ATOM     12  O   UNL     1       4.317   2.714  18.555  0.00  0.00    +0.000 OA
ENDROOT
BRANCH   1  13
ATOM     13  C   UNL     1       5.105   4.257  15.911  0.00  0.00    +0.000 C 
BRANCH  13  15
ATOM     14  O   UNL     1       7.416   4.910  15.589  0.00  0.00    +0.000 OA
ATOM     15  C   UNL     1       6.563   4.416  16.324  0.00  0.00    +0.000 C 
ATOM     16  N   UNL     1       6.843   4.010  17.607  0.00  0.00    +0.000 N 
ATOM     17  H   UNL     1       6.184   3.500  18.196  0.00  0.00    +0.000 HD
BRANCH  16  18
ATOM     18  O   UNL     1       8.173   4.097  18.068  0.00  0.00    +0.000 OA
ATOM     19  H   UNL     1       8.704   4.001  17.251  0.00  0.00    +0.000 HD
ENDBRANCH  16  18
ENDBRANCH  13  15
ENDBRANCH   1  13
TORSDOF 3
ENDMDL
MODEL 6
REMARK VINA RESULT:      -7.3      0.793      1.092
REMARK  Name = 
REMARK  3 active torsions:
REMARK  status: ('A' for Active; 'I' for Inactive)
REMARK    1  A    between atoms: C_2  and  C_3
REMARK    2  A    between atoms: C_3  and  N_4
REMARK    3  A    between atoms: N_16  and  O_17
REMARK                            x       y       z     vdW  Elec       q    Type
REMARK                         _______ _______ _______ _____ _____    ______ ____
ROOT
ATOM      1  N   UNL     1       5.883   5.239  17.214  0.00  0.00    +0.000 N 
ATOM      2  C   UNL     1       5.179   6.380  16.782  0.00  0.00    +0.000 C 
ATOM      3  O   UNL     1       5.457   7.025  15.787  0.00  0.00    +0.000 OA
ATOM      4  C   UNL     1       4.101   6.686  17.736  0.00  0.00    +0.000 A 
ATOM      5  C   UNL     1       3.168   7.706  17.628  0.00  0.00    +0.000 A 
ATOM      6  C   UNL     1       2.195   7.811  18.627  0.00  0.00    +0.000 A 
ATOM      7  C   UNL     1       2.168   6.909  19.709  0.00  0.00    +0.000 A 
ATOM      8  C   UNL     1       3.123   5.896  19.817  0.00  0.00    +0.000 A 
ATOM      9  C   UNL     1       4.074   5.813  18.817  0.00  0.00    +0.000 A 
ATOM     10  S   UNL     1       5.362   4.648  18.698  0.00  0.00    +0.000 S 
ATOM     11  O   UNL     1       4.807   3.334  18.517  0.00  0.00    +0.000 OA
ATOM     12  O   UNL     1       6.360   4.976  19.693  0.00  0.00    +0.000 OA
ENDROOT
BRANCH   1  13
ATOM     13  C   UNL     1       7.113   4.694  16.637  0.00  0.00    +0.000 C 
BRANCH  13  15
ATOM     14  O   UNL     1       7.657   5.321  14.360  0.00  0.00    +0.000 OA
ATOM     15  C   UNL     1       7.048   4.570  15.120  0.00  0.00    +0.000 C 
ATOM     16  N   UNL     1       6.293   3.517  14.662  0.00  0.00    +0.000 N 
ATOM     17  H   UNL     1       5.693   2.949  15.261  0.00  0.00    +0.000 HD
BRANCH  16  18
ATOM     18  O   UNL     1       6.154   3.338  13.270  0.00  0.00    +0.000 OA
ATOM     19  H   UNL     1       6.976   3.726  12.908  0.00  0.00    +0.000 HD
ENDBRANCH  16  18
ENDBRANCH  13  15
ENDBRANCH   1  13
TORSDOF 3
ENDMDL
MODEL 7
REMARK VINA RESULT:      -7.1      2.353      3.394
REMARK  Name = 
REMARK  3 active torsions:
REMARK  status: ('A' for Active; 'I' for Inactive)
REMARK    1  A    between atoms: C_2  and  C_3
REMARK    2  A    between atoms: C_3  and  N_4
REMARK    3  A    between atoms: N_16  and  O_17
REMARK                            x       y       z     vdW  Elec       q    Type
REMARK                         _______ _______ _______ _____ _____    ______ ____
ROOT
ATOM      1  N   UNL     1       4.702   3.922  17.509  0.00  0.00    +0.000 N 
ATOM      2  C   UNL     1       3.816   2.874  17.827  0.00  0.00    +0.000 C 
ATOM      3  O   UNL     1       3.815   1.784  17.283  0.00  0.00    +0.000 OA
ATOM      4  C   UNL     1       2.881   3.318  18.873  0.00  0.00    +0.000 A 
ATOM      5  C   UNL     1       1.895   2.553  19.476  0.00  0.00    +0.000 A 
ATOM      6  C   UNL     1       1.126   3.151  20.481  0.00  0.00    +0.000 A 
ATOM      7  C   UNL     1       1.348   4.488  20.863  0.00  0.00    +0.000 A 
ATOM      8  C   UNL     1       2.334   5.255  20.236  0.00  0.00    +0.000 A 
ATOM      9  C   UNL     1       3.079   4.642  19.247  0.00  0.00    +0.000 A 
ATOM     10  S   UNL     1       4.368   5.356  18.320  0.00  0.00    +0.000 S 
ATOM     11  O   UNL     1       5.467   5.675  19.191  0.00  0.00    +0.000 OA
ATOM     12  O   UNL     1       3.784   6.285  17.377  0.00  0.00    +0.000 OA
ENDROOT
BRANCH   1  13
ATOM     13  C   UNL     1       5.682   3.945  16.421  0.00  0.00    +0.000 C 
BRANCH  13  15
ATOM     14  O   UNL     1       7.898   4.420  17.278  0.00  0.00    +0.000 OA
ATOM     15  C   UNL     1       6.880   4.835  16.727  0.00  0.00    +0.000 C 
ATOM     16  N   UNL     1       6.758   6.132  16.291  0.00  0.00    +0.000 N 
ATOM     17  H   UNL     1       5.888   6.529  15.932  0.00  0.00    +0.000 HD
BRANCH  16  18
ATOM     18  O   UNL     1       7.809   7.036  16.552  0.00  0.00    +0.000 OA
ATOM     19  H   UNL     1       7.644   7.315  17.476  0.00  0.00    +0.000 HD
ENDBRANCH  16  18
ENDBRANCH  13  15
ENDBRANCH   1  13
TORSDOF 3
ENDMDL
MODEL 8
REMARK VINA RESULT:      -7.1      2.466      3.562
REMARK  Name = 
REMARK  3 active torsions:
REMARK  status: ('A' for Active; 'I' for Inactive)
REMARK    1  A    between atoms: C_2  and  C_3
REMARK    2  A    between atoms: C_3  and  N_4
REMARK    3  A    between atoms: N_16  and  O_17
REMARK                            x       y       z     vdW  Elec       q    Type
REMARK                         _______ _______ _______ _____ _____    ______ ____
ROOT
ATOM      1  N   UNL     1       5.251   5.106  18.529  0.00  0.00    +0.000 N 
ATOM      2  C   UNL     1       4.941   3.908  19.203  0.00  0.00    +0.000 C 
ATOM      3  O   UNL     1       5.738   3.258  19.854  0.00  0.00    +0.000 OA
ATOM      4  C   UNL     1       3.533   3.555  18.958  0.00  0.00    +0.000 A 
ATOM      5  C   UNL     1       2.850   2.472  19.489  0.00  0.00    +0.000 A 
ATOM      6  C   UNL     1       1.498   2.327  19.162  0.00  0.00    +0.000 A 
ATOM      7  C   UNL     1       0.855   3.252  18.317  0.00  0.00    +0.000 A 
ATOM      8  C   UNL     1       1.556   4.331  17.774  0.00  0.00    +0.000 A 
ATOM      9  C   UNL     1       2.891   4.452  18.113  0.00  0.00    +0.000 A 
ATOM     10  S   UNL     1       3.989   5.698  17.592  0.00  0.00    +0.000 S 
ATOM     11  O   UNL     1       3.562   6.967  18.119  0.00  0.00    +0.000 OA
ATOM     12  O   UNL     1       4.308   5.465  16.200  0.00  0.00    +0.000 OA
ENDROOT
BRANCH   1  13
ATOM     13  C   UNL     1       6.574   5.718  18.389  0.00  0.00    +0.000 C 
BRANCH  13  15
ATOM     14  O   UNL     1       8.091   4.197  17.268  0.00  0.00    +0.000 OA
ATOM     15  C   UNL     1       7.351   5.176  17.195  0.00  0.00    +0.000 C 
ATOM     16  N   UNL     1       7.121   5.837  16.013  0.00  0.00    +0.000 N 
ATOM     17  H   UNL     1       6.601   6.713  15.946  0.00  0.00    +0.000 HD
BRANCH  16  18
ATOM     18  O   UNL     1       7.817   5.421  14.859  0.00  0.00    +0.000 OA
ATOM     19  H   UNL     1       7.934   6.250  14.353  0.00  0.00    +0.000 HD
ENDBRANCH  16  18
ENDBRANCH  13  15
ENDBRANCH   1  13
TORSDOF 3
ENDMDL
MODEL 9
REMARK VINA RESULT:      -7.0      2.650      3.998
REMARK  Name = 
REMARK  3 active torsions:
REMARK  status: ('A' for Active; 'I' for Inactive)
REMARK    1  A    between atoms: C_2  and  C_3
REMARK    2  A    between atoms: C_3  and  N_4
REMARK    3  A    between atoms: N_16  and  O_17
REMARK                            x       y       z     vdW  Elec       q    Type
REMARK                         _______ _______ _______ _____ _____    ______ ____
ROOT
ATOM      1  N   UNL     1       4.061   4.383  17.829  0.00  0.00    +0.000 N 
ATOM      2  C   UNL     1       4.530   3.709  18.973  0.00  0.00    +0.000 C 
ATOM      3  O   UNL     1       5.698   3.430  19.178  0.00  0.00    +0.000 OA
ATOM      4  C   UNL     1       3.394   3.363  19.843  0.00  0.00    +0.000 A 
ATOM      5  C   UNL     1       3.461   2.737  21.078  0.00  0.00    +0.000 A 
ATOM      6  C   UNL     1       2.264   2.526  21.771  0.00  0.00    +0.000 A 
ATOM      7  C   UNL     1       1.032   2.936  21.226  0.00  0.00    +0.000 A 
ATOM      8  C   UNL     1       0.973   3.551  19.973  0.00  0.00    +0.000 A 
ATOM      9  C   UNL     1       2.170   3.747  19.309  0.00  0.00    +0.000 A 
ATOM     10  S   UNL     1       2.386   4.495  17.752  0.00  0.00    +0.000 S 
ATOM     11  O   UNL     1       2.000   5.878  17.824  0.00  0.00    +0.000 OA
ATOM     12  O   UNL     1       1.915   3.574  16.741  0.00  0.00    +0.000 OA
ENDROOT
BRANCH   1  13
ATOM     13  C   UNL     1       4.842   4.762  16.650  0.00  0.00    +0.000 C 
BRANCH  13  15
ATOM     14  O   UNL     1       5.118   7.065  17.350  0.00  0.00    +0.000 OA
ATOM     15  C   UNL     1       5.616   6.059  16.848  0.00  0.00    +0.000 C 
ATOM     16  N   UNL     1       6.936   6.004  16.469  0.00  0.00    +0.000 N 
ATOM     17  H   UNL     1       7.344   5.223  15.953  0.00  0.00    +0.000 HD
BRANCH  16  18
ATOM     18  O   UNL     1       7.725   7.167  16.593  0.00  0.00    +0.000 OA
ATOM     19  H   UNL     1       7.063   7.881  16.690  0.00  0.00    +0.000 HD
ENDBRANCH  16  18
ENDBRANCH  13  15
ENDBRANCH   1  13
TORSDOF 3
ENDMDL
