MODEL 1
REMARK VINA RESULT:      -7.0      0.000      0.000
REMARK  Name = 
REMARK  4 active torsions:
REMARK  status: ('A' for Active; 'I' for Inactive)
REMARK    1  A    between atoms: C_2  and  O_3
REMARK    2  A    between atoms: C_2  and  C_4
REMARK    3  A    between atoms: N_9  and  C_10
REMARK    4  A    between atoms: C_10  and  C_11
REMARK                            x       y       z     vdW  Elec       q    Type
REMARK                         _______ _______ _______ _____ _____    ______ ____
ROOT
ATOM      1  C   UNL     1       6.168   5.991  18.387  0.00  0.00    +0.000 C 
ATOM      2  C   UNL     1       5.979   6.841  17.129  0.00  0.00    +0.000 C 
ATOM      3  C   UNL     1       5.671   5.822  16.036  0.00  0.00    +0.000 C 
ATOM      4  C   UNL     1       4.976   4.723  16.793  0.00  0.00    +0.000 C 
ATOM      5  O   UNL     1       4.293   3.843  16.298  0.00  0.00    +0.000 OA
ATOM      6  N   UNL     1       5.302   4.855  18.135  0.00  0.00    +0.000 N 
ENDROOT
BRANCH   1   8
ATOM      7  O   UNL     1       8.137   4.544  18.308  0.00  0.00    +0.000 OA
ATOM      8  C   UNL     1       7.644   5.627  18.587  0.00  0.00    +0.000 C 
BRANCH   8   9
ATOM      9  O   UNL     1       8.368   6.623  19.156  0.00  0.00    +0.000 OA
ATOM     10  H   UNL     1       8.830   6.384  19.980  0.00  0.00    +0.000 HD
ENDBRANCH   8   9
ENDBRANCH   1   8
BRANCH   6  11
ATOM     11  C   UNL     1       4.954   3.869  19.149  0.00  0.00    +0.000 C 
BRANCH  11  12
ATOM     12  C   UNL     1       3.483   3.830  19.512  0.00  0.00    +0.000 A 
ATOM     13  C   UNL     1       2.894   4.898  20.216  0.00  0.00    +0.000 A 
ATOM     14  C   UNL     1       1.544   4.881  20.574  0.00  0.00    +0.000 A 
ATOM     15  C   UNL     1       0.757   3.781  20.260  0.00  0.00    +0.000 A 
ATOM     16  C   UNL     1       1.325   2.691  19.606  0.00  0.00    +0.000 A 
ATOM     17  C   UNL     1       2.678   2.710  19.242  0.00  0.00    +0.000 A 
ATOM     18 CL   UNL     1       3.301   1.299  18.459  0.00  0.00    +0.000 Cl
ENDBRANCH  11  12
ENDBRANCH   6  11
TORSDOF 4
ENDMDL
MODEL 2
REMARK VINA RESULT:      -6.9      2.924      5.353
REMARK  Name = 
REMARK  4 active torsions:
REMARK  status: ('A' for Active; 'I' for Inactive)
REMARK    1  A    between atoms: C_2  and  O_3
REMARK    2  A    between atoms: C_2  and  C_4
REMARK    3  A    between atoms: N_9  and  C_10
REMARK    4  A    between atoms: C_10  and  C_11
REMARK                            x       y       z     vdW  Elec       q    Type
REMARK                         _______ _______ _______ _____ _____    ______ ____
ROOT
ATOM      1  C   UNL     1       3.103   3.234  19.444  0.00  0.00    +0.000 C 
ATOM      2  C   UNL     1       1.594   2.984  19.473  0.00  0.00    +0.000 C 
ATOM      3  C   UNL     1       1.057   4.061  20.411  0.00  0.00    +0.000 C 
ATOM      4  C   UNL     1       2.030   5.191  20.209  0.00  0.00    +0.000 C 
ATOM      5  O   UNL     1       1.841   6.353  20.524  0.00  0.00    +0.000 OA
ATOM      6  N   UNL     1       3.192   4.665  19.665  0.00  0.00    +0.000 N 
ENDROOT
BRANCH   1   8
ATOM      7  O   UNL     1       3.407   2.197  21.638  0.00  0.00    +0.000 OA
ATOM      8  C   UNL     1       3.819   2.386  20.504  0.00  0.00    +0.000 C 
BRANCH   8   9
ATOM      9  O   UNL     1       5.006   1.886  20.075  0.00  0.00    +0.000 OA
ATOM     10  H   UNL     1       5.765   2.491  20.157  0.00  0.00    +0.000 HD
ENDBRANCH   8   9
ENDBRANCH   1   8
BRANCH   6  11
ATOM     11  C   UNL     1       4.419   5.430  19.492  0.00  0.00    +0.000 C 
BRANCH  11  12
ATOM     12  C   UNL     1       4.966   5.433  18.079  0.00  0.00    +0.000 A 
ATOM     13  C   UNL     1       5.967   4.518  17.699  0.00  0.00    +0.000 A 
ATOM     14  C   UNL     1       6.497   4.509  16.407  0.00  0.00    +0.000 A 
ATOM     15  C   UNL     1       6.057   5.436  15.471  0.00  0.00    +0.000 A 
ATOM     16  C   UNL     1       5.103   6.382  15.833  0.00  0.00    +0.000 A 
ATOM     17  C   UNL     1       4.567   6.388  17.127  0.00  0.00    +0.000 A 
ATOM     18 CL   UNL     1       3.409   7.619  17.493  0.00  0.00    +0.000 Cl
ENDBRANCH  11  12
ENDBRANCH   6  11
TORSDOF 4
ENDMDL
MODEL 3
REMARK VINA RESULT:      -6.9      2.891      5.302
REMARK  Name = 
REMARK  4 active torsions:
REMARK  status: ('A' for Active; 'I' for Inactive)
REMARK    1  A    between atoms: C_2  and  O_3
REMARK    2  A    between atoms: C_2  and  C_4
REMARK    3  A    between atoms: N_9  and  C_10
REMARK    4  A    between atoms: C_10  and  C_11
REMARK                            x       y       z     vdW  Elec       q    Type
REMARK                         _______ _______ _______ _____ _____    ______ ____
ROOT
ATOM      1  C   UNL     1       3.114   3.219  19.396  0.00  0.00    +0.000 C 
ATOM      2  C   UNL     1       1.599   3.012  19.431  0.00  0.00    +0.000 C 
ATOM      3  C   UNL     1       1.090   4.149  20.312  0.00  0.00    +0.000 C 
ATOM      4  C   UNL     1       2.094   5.240  20.059  0.00  0.00    +0.000 C 
ATOM      5  O   UNL     1       1.936   6.422  20.315  0.00  0.00    +0.000 OA
ATOM      6  N   UNL     1       3.243   4.656  19.546  0.00  0.00    +0.000 N 
ENDROOT
BRANCH   1   8
ATOM      7  O   UNL     1       3.374   2.267  21.633  0.00  0.00    +0.000 OA
ATOM      8  C   UNL     1       3.805   2.406  20.498  0.00  0.00    +0.000 C 
BRANCH   8   9
ATOM      9  O   UNL     1       4.990   1.874  20.107  0.00  0.00    +0.000 OA
ATOM     10  H   UNL     1       5.353   1.189  20.697  0.00  0.00    +0.000 HD
ENDBRANCH   8   9
ENDBRANCH   1   8
BRANCH   6  11
ATOM     11  C   UNL     1       4.491   5.378  19.340  0.00  0.00    +0.000 C 
BRANCH  11  12
ATOM     12  C   UNL     1       5.217   5.027  18.057  0.00  0.00    +0.000 A 
ATOM     13  C   UNL     1       4.505   4.540  16.944  0.00  0.00    +0.000 A 
ATOM     14  C   UNL     1       5.153   4.196  15.755  0.00  0.00    +0.000 A 
ATOM     15  C   UNL     1       6.533   4.306  15.661  0.00  0.00    +0.000 A 
ATOM     16  C   UNL     1       7.267   4.740  16.761  0.00  0.00    +0.000 A 
ATOM     17  C   UNL     1       6.618   5.090  17.952  0.00  0.00    +0.000 A 
ATOM     18 CL   UNL     1       7.615   5.590  19.274  0.00  0.00    +0.000 Cl
ENDBRANCH  11  12
ENDBRANCH   6  11
TORSDOF 4
ENDMDL
MODEL 4
REMARK VINA RESULT:      -6.8      1.477      1.747
REMARK  Name = 
REMARK  4 active torsions:
REMARK  status: ('A' for Active; 'I' for Inactive)
REMARK    1  A    between atoms: C_2  and  O_3
REMARK    2  A    between atoms: C_2  and  C_4
REMARK    3  A    between atoms: N_9  and  C_10
REMARK    4  A    between atoms: C_10  and  C_11
REMARK                            x       y       z     vdW  Elec       q    Type
REMARK                         _______ _______ _______ _____ _____    ______ ____
ROOT
ATOM      1  C   UNL     1       5.349   5.433  18.491  0.00  0.00    +0.000 C 
ATOM      2  C   UNL     1       5.446   6.676  17.606  0.00  0.00    +0.000 C 
ATOM      3  C   UNL     1       5.648   6.116  16.201  0.00  0.00    +0.000 C 
ATOM      4  C   UNL     1       4.916   4.803  16.259  0.00  0.00    +0.000 C 
ATOM      5  O   UNL     1       4.559   4.147  15.295  0.00  0.00    +0.000 OA
ATOM      6  N   UNL     1       4.780   4.446  17.592  0.00  0.00    +0.000 N 
ENDROOT
BRANCH   1   8
ATOM      7  O   UNL     1       7.178   5.464  20.114  0.00  0.00    +0.000 OA
ATOM      8  C   UNL     1       6.724   5.053  19.057  0.00  0.00    +0.000 C 
BRANCH   8   9
ATOM      9  O   UNL     1       7.429   4.231  18.239  0.00  0.00    +0.000 OA
ATOM     10  H   UNL     1       8.269   3.902  18.606  0.00  0.00    +0.000 HD
ENDBRANCH   8   9
ENDBRANCH   1   8
BRANCH   6  11
ATOM     11  C   UNL     1       4.276   3.152  18.033  0.00  0.00    +0.000 C 
BRANCH  11  12
ATOM     12  C   UNL     1       3.270   3.221  19.164  0.00  0.00    +0.000 A 
ATOM     13  C   UNL     1       3.564   2.648  20.417  0.00  0.00    +0.000 A 
ATOM     14  C   UNL     1       2.649   2.685  21.471  0.00  0.00    +0.000 A 
ATOM     15  C   UNL     1       1.405   3.272  21.288  0.00  0.00    +0.000 A 
ATOM     16  C   UNL     1       1.069   3.805  20.046  0.00  0.00    +0.000 A 
ATOM     17  C   UNL     1       1.989   3.772  18.990  0.00  0.00    +0.000 A 
ATOM     18 CL   UNL     1       1.472   4.431  17.477  0.00  0.00    +0.000 Cl
ENDBRANCH  11  12
ENDBRANCH   6  11
TORSDOF 4
ENDMDL
MODEL 5
REMARK VINA RESULT:      -6.8      3.111      5.433
REMARK  Name = 
REMARK  4 active torsions:
REMARK  status: ('A' for Active; 'I' for Inactive)
REMARK    1  A    between atoms: C_2  and  O_3
REMARK    2  A    between atoms: C_2  and  C_4
REMARK    3  A    between atoms: N_9  and  C_10
REMARK    4  A    between atoms: C_10  and  C_11
REMARK                            x       y       z     vdW  Elec       q    Type
REMARK                         _______ _______ _______ _____ _____    ______ ____
ROOT
ATOM      1  C   UNL     1       2.911   2.977  19.768  0.00  0.00    +0.000 C 
ATOM      2  C   UNL     1       1.961   1.830  19.420  0.00  0.00    +0.000 C 
ATOM      3  C   UNL     1       0.818   2.509  18.671  0.00  0.00    +0.000 C 
ATOM      4  C   UNL     1       1.502   3.674  18.009  0.00  0.00    +0.000 C 
ATOM      5  O   UNL     1       1.055   4.324  17.080  0.00  0.00    +0.000 OA
ATOM      6  N   UNL     1       2.691   3.912  18.682  0.00  0.00    +0.000 N 
ENDROOT
BRANCH   1   8
ATOM      7  O   UNL     1       2.374   4.720  21.397  0.00  0.00    +0.000 OA
ATOM      8  C   UNL     1       2.601   3.543  21.160  0.00  0.00    +0.000 C 
BRANCH   8   9
ATOM      9  O   UNL     1       2.644   2.605  22.140  0.00  0.00    +0.000 OA
ATOM     10  H   UNL     1       2.415   1.701  21.860  0.00  0.00    +0.000 HD
ENDBRANCH   8   9
ENDBRANCH   1   8
BRANCH   6  11
ATOM     11  C   UNL     1       3.540   5.070  18.434  0.00  0.00    +0.000 C 
BRANCH  11  12
ATOM     12  C   UNL     1       4.719   4.803  17.522  0.00  0.00    +0.000 A 
ATOM     13  C   UNL     1       4.516   4.326  16.212  0.00  0.00    +0.000 A 
ATOM     14  C   UNL     1       5.586   4.059  15.356  0.00  0.00    +0.000 A 
ATOM     15  C   UNL     1       6.889   4.237  15.800  0.00  0.00    +0.000 A 
ATOM     16  C   UNL     1       7.122   4.663  17.105  0.00  0.00    +0.000 A 
ATOM     17  C   UNL     1       6.048   4.937  17.962  0.00  0.00    +0.000 A 
ATOM     18 CL   UNL     1       6.434   5.432  19.573  0.00  0.00    +0.000 Cl
ENDBRANCH  11  12
ENDBRANCH   6  11
TORSDOF 4
ENDMDL
MODEL 6
REMARK VINA RESULT:      -6.8      1.682      2.842
REMARK  Name = 
REMARK  4 active torsions:
REMARK  status: ('A' for Active; 'I' for Inactive)
REMARK    1  A    between atoms: C_2  and  O_3
REMARK    2  A    between atoms: C_2  and  C_4
REMARK    3  A    between atoms: N_9  and  C_10
REMARK    4  A    between atoms: C_10  and  C_11
REMARK                            x       y       z     vdW  Elec       q    Type
REMARK                         _______ _______ _______ _____ _____    ______ ____
ROOT
ATOM      1  C   UNL     1       5.415   4.933  17.147  0.00  0.00    +0.000 C 
ATOM      2  C   UNL     1       6.841   4.558  16.738  0.00  0.00    +0.000 C 
ATOM      3  C   UNL     1       7.716   5.207  17.806  0.00  0.00    +0.000 C 
ATOM      4  C   UNL     1       6.827   5.187  19.020  0.00  0.00    +0.000 C 
ATOM      5  O   UNL     1       7.198   5.330  20.172  0.00  0.00    +0.000 OA
ATOM      6  N   UNL     1       5.517   5.041  18.590  0.00  0.00    +0.000 N 
ENDROOT
BRANCH   1   8
ATOM      7  O   UNL     1       4.229   7.062  16.945  0.00  0.00    +0.000 OA
ATOM      8  C   UNL     1       4.965   6.223  16.448  0.00  0.00    +0.000 C 
BRANCH   8   9
ATOM      9  O   UNL     1       5.434   6.335  15.180  0.00  0.00    +0.000 OA
ATOM     10  H   UNL     1       6.369   6.596  15.104  0.00  0.00    +0.000 HD
ENDBRANCH   8   9
ENDBRANCH   1   8
BRANCH   6  11
ATOM     11  C   UNL     1       4.362   5.153  19.471  0.00  0.00    +0.000 C 
BRANCH  11  12
ATOM     12  C   UNL     1       3.234   4.192  19.156  0.00  0.00    +0.000 A 
ATOM     13  C   UNL     1       2.054   4.654  18.540  0.00  0.00    +0.000 A 
ATOM     14  C   UNL     1       0.995   3.792  18.252  0.00  0.00    +0.000 A 
ATOM     15  C   UNL     1       1.078   2.450  18.598  0.00  0.00    +0.000 A 
ATOM     16  C   UNL     1       2.213   1.976  19.250  0.00  0.00    +0.000 A 
ATOM     17  C   UNL     1       3.279   2.839  19.535  0.00  0.00    +0.000 A 
ATOM     18 CL   UNL     1       4.634   2.166  20.373  0.00  0.00    +0.000 Cl
ENDBRANCH  11  12
ENDBRANCH   6  11
TORSDOF 4
ENDMDL
MODEL 7
REMARK VINA RESULT:      -6.8      2.628      5.140
REMARK  Name = 
REMARK  4 active torsions:
REMARK  status: ('A' for Active; 'I' for Inactive)
REMARK    1  A    between atoms: C_2  and  O_3
REMARK    2  A    between atoms: C_2  and  C_4
REMARK    3  A    between atoms: N_9  and  C_10
REMARK    4  A    between atoms: C_10  and  C_11
REMARK                            x       y       z     vdW  Elec       q    Type
REMARK                         _______ _______ _______ _____ _____    ______ ____
ROOT
ATOM      1  C   UNL     1       2.393   2.973  18.719  0.00  0.00    +0.000 C 
ATOM      2  C   UNL     1       1.304   2.823  19.783  0.00  0.00    +0.000 C 
ATOM      3  C   UNL     1       1.535   4.005  20.719  0.00  0.00    +0.000 C 
ATOM      4  C   UNL     1       2.105   5.051  19.799  0.00  0.00    +0.000 C 
ATOM      5  O   UNL     1       2.169   6.244  20.036  0.00  0.00    +0.000 OA
ATOM      6  N   UNL     1       2.596   4.408  18.672  0.00  0.00    +0.000 N 
ENDROOT
BRANCH   1   8
ATOM      7  O   UNL     1       4.265   2.303  20.143  0.00  0.00    +0.000 OA
ATOM      8  C   UNL     1       3.644   2.171  19.098  0.00  0.00    +0.000 C 
BRANCH   8   9
ATOM      9  O   UNL     1       4.040   1.308  18.128  0.00  0.00    +0.000 OA
ATOM     10  H   UNL     1       4.171   0.387  18.419  0.00  0.00    +0.000 HD
ENDBRANCH   8   9
ENDBRANCH   1   8
BRANCH   6  11
ATOM     11  C   UNL     1       3.375   5.077  17.638  0.00  0.00    +0.000 C 
BRANCH  11  12
ATOM     12  C   UNL     1       4.874   5.040  17.856  0.00  0.00    +0.000 A 
ATOM     13  C   UNL     1       5.427   5.460  19.081  0.00  0.00    +0.000 A 
ATOM     14  C   UNL     1       6.806   5.449  19.303  0.00  0.00    +0.000 A 
ATOM     15  C   UNL     1       7.667   5.043  18.293  0.00  0.00    +0.000 A 
ATOM     16  C   UNL     1       7.151   4.666  17.056  0.00  0.00    +0.000 A 
ATOM     17  C   UNL     1       5.767   4.672  16.835  0.00  0.00    +0.000 A 
ATOM     18 CL   UNL     1       5.221   4.217  15.259  0.00  0.00    +0.000 Cl
ENDBRANCH  11  12
ENDBRANCH   6  11
TORSDOF 4
ENDMDL
MODEL 8
REMARK VINA RESULT:      -6.8      2.662      5.611
REMARK  Name = 
REMARK  4 active torsions:
REMARK  status: ('A' for Active; 'I' for Inactive)
REMARK    1  A    between atoms: C_2  and  O_3
REMARK    2  A    between atoms: C_2  and  C_4
REMARK    3  A    between atoms: N_9  and  C_10
REMARK    4  A    between atoms: C_10  and  C_11
REMARK                            x       y       z     vdW  Elec       q    Type
REMARK                         _______ _______ _______ _____ _____    ______ ____
ROOT
ATOM      1  C   UNL     1       2.407   4.101  19.575  0.00  0.00    +0.000 C 
ATOM      2  C   UNL     1       2.275   3.948  21.091  0.00  0.00    +0.000 C 
ATOM      3  C   UNL     1       2.943   2.609  21.388  0.00  0.00    +0.000 C 
ATOM      4  C   UNL     1       3.990   2.514  20.311  0.00  0.00    +0.000 C 
ATOM      5  O   UNL     1       4.951   1.764  20.321  0.00  0.00    +0.000 OA
ATOM      6  N   UNL     1       3.631   3.378  19.287  0.00  0.00    +0.000 N 
ENDROOT
BRANCH   1   8
ATOM      7  O   UNL     1       0.997   3.569  17.648  0.00  0.00    +0.000 OA
ATOM      8  C   UNL     1       1.166   3.551  18.858  0.00  0.00    +0.000 C 
BRANCH   8   9
ATOM      9  O   UNL     1       0.228   3.067  19.710  0.00  0.00    +0.000 OA
ATOM     10  H   UNL     1       0.468   3.097  20.654  0.00  0.00    +0.000 HD
ENDBRANCH   8   9
ENDBRANCH   1   8
BRANCH   6  11
ATOM     11  C   UNL     1       4.313   3.430  18.001  0.00  0.00    +0.000 C 
BRANCH  11  12
ATOM     12  C   UNL     1       5.465   4.411  17.938  0.00  0.00    +0.000 A 
ATOM     13  C   UNL     1       5.995   4.966  19.119  0.00  0.00    +0.000 A 
ATOM     14  C   UNL     1       7.048   5.883  19.087  0.00  0.00    +0.000 A 
ATOM     15  C   UNL     1       7.579   6.287  17.870  0.00  0.00    +0.000 A 
ATOM     16  C   UNL     1       7.044   5.790  16.685  0.00  0.00    +0.000 A 
ATOM     17  C   UNL     1       5.991   4.866  16.716  0.00  0.00    +0.000 A 
ATOM     18 CL   UNL     1       5.373   4.327  15.194  0.00  0.00    +0.000 Cl
ENDBRANCH  11  12
ENDBRANCH   6  11
TORSDOF 4
ENDMDL
MODEL 9
REMARK VINA RESULT:      -6.7      2.974      5.172
REMARK  Name = 
REMARK  4 active torsions:
REMARK  status: ('A' for Active; 'I' for Inactive)
REMARK    1  A    between atoms: C_2  and  O_3
REMARK    2  A    between atoms: C_2  and  C_4
REMARK    3  A    between atoms: N_9  and  C_10
REMARK    4  A    between atoms: C_10  and  C_11
REMARK                            x       y       z     vdW  Elec       q    Type
REMARK                         _______ _______ _______ _____ _____    ______ ____
ROOT
ATOM      1  C   UNL     1       4.240   2.636  19.335  0.00  0.00    +0.000 C 
ATOM      2  C   UNL     1       3.553   1.639  18.400  0.00  0.00    +0.000 C 
ATOM      3  C   UNL     1       2.133   2.180  18.261  0.00  0.00    +0.000 C 
ATOM      4  C   UNL     1       2.326   3.664  18.414  0.00  0.00    +0.000 C 
ATOM      5  O   UNL     1       1.523   4.521  18.087  0.00  0.00    +0.000 OA
ATOM      6  N   UNL     1       3.542   3.875  19.047  0.00  0.00    +0.000 N 
ENDROOT
BRANCH   1   8
ATOM      7  O   UNL     1       3.187   2.408  21.531  0.00  0.00    +0.000 OA
ATOM      8  C   UNL     1       4.137   2.179  20.796  0.00  0.00    +0.000 C 
BRANCH   8   9
ATOM      9  O   UNL     1       5.239   1.517  21.229  0.00  0.00    +0.000 OA
ATOM     10  H   UNL     1       6.072   2.021  21.180  0.00  0.00    +0.000 HD
ENDBRANCH   8   9
ENDBRANCH   1   8
BRANCH   6  11
ATOM     11  C   UNL     1       3.990   5.179  19.519  0.00  0.00    +0.000 C 
BRANCH  11  12
ATOM     12  C   UNL     1       5.230   5.707  18.829  0.00  0.00    +0.000 A 
ATOM     13  C   UNL     1       6.511   5.383  19.317  0.00  0.00    +0.000 A 
ATOM     14  C   UNL     1       7.670   5.869  18.708  0.00  0.00    +0.000 A 
ATOM     15  C   UNL     1       7.574   6.713  17.610  0.00  0.00    +0.000 A 
ATOM     16  C   UNL     1       6.321   7.087  17.134  0.00  0.00    +0.000 A 
ATOM     17  C   UNL     1       5.158   6.596  17.742  0.00  0.00    +0.000 A 
ATOM     18 CL   UNL     1       3.646   7.139  17.101  0.00  0.00    +0.000 Cl
ENDBRANCH  11  12
ENDBRANCH   6  11
TORSDOF 4
ENDMDL
