MODEL 1
REMARK VINA RESULT:      -8.9      0.000      0.000
REMARK  Name = 
REMARK  8 active torsions:
REMARK  status: ('A' for Active; 'I' for Inactive)
REMARK    1  A    between atoms: C_1  and  C_2
REMARK    2  A    between atoms: C_11  and  N_12
REMARK    3  A    between atoms: N_12  and  C_13
REMARK    4  A    between atoms: C_15  and  C_16
REMARK    5  A    between atoms: C_20  and  C_21
REMARK    6  A    between atoms: N_23  and  C_24
REMARK    7  A    between atoms: C_24  and  C_25
REMARK    8  A    between atoms: C_25  and  O_26
REMARK                            x       y       z     vdW  Elec       q    Type
REMARK                         _______ _______ _______ _____ _____    ______ ____
ROOT
ATOM      1  C   UNL     1      -0.417  10.953  19.588  0.00  0.00    +0.000 A 
ATOM      2  C   UNL     1       0.402  10.037  19.051  0.00  0.00    +0.000 A 
ATOM      3  C   UNL     1       1.045   9.020  19.929  0.00  0.00    +0.000 A 
ATOM      4  N   UNL     1       0.856   8.927  21.212  0.00  0.00    +0.000 NA
ATOM      5  N   UNL     1       0.030   9.896  21.697  0.00  0.00    +0.000 N 
ATOM      6  C   UNL     1      -0.330  10.032  23.010  0.00  0.00    +0.000 A 
ATOM      7  C   UNL     1      -1.147  11.137  23.056  0.00  0.00    +0.000 A 
ATOM      8  N   UNL     1      -1.302  11.691  21.809  0.00  0.00    +0.000 NA
ATOM      9  C   UNL     1      -0.594  10.917  21.002  0.00  0.00    +0.000 A 
ENDROOT
BRANCH   3  10
ATOM     10  C   UNL     1       1.934   8.036  19.243  0.00  0.00    +0.000 A 
ATOM     11  C   UNL     1       2.693   8.409  18.125  0.00  0.00    +0.000 A 
ATOM     12  C   UNL     1       3.464   7.462  17.455  0.00  0.00    +0.000 A 
ATOM     13  C   UNL     1       3.496   6.147  17.912  0.00  0.00    +0.000 A 
ATOM     14  C   UNL     1       2.778   5.771  19.057  0.00  0.00    +0.000 A 
ATOM     15  C   UNL     1       1.992   6.719  19.726  0.00  0.00    +0.000 A 
BRANCH  14  16
ATOM     16  C   UNL     1       2.852   4.344  19.477  0.00  0.00    +0.000 C 
ATOM     17  O   UNL     1       3.121   4.067  20.644  0.00  0.00    +0.000 OA
ATOM     18  N   UNL     1       2.578   3.385  18.530  0.00  0.00    +0.000 N 
ATOM     19  H   UNL     1       2.252   3.645  17.608  0.00  0.00    +0.000 HD
BRANCH  18  20
ATOM     20  C   UNL     1       2.620   1.967  18.863  0.00  0.00    +0.000 C 
BRANCH  20  21
ATOM     21  C   UNL     1       3.992   1.345  18.596  0.00  0.00    +0.000 C 
BRANCH  21  22
ATOM     22  O   UNL     1       4.884   1.645  19.670  0.00  0.00    +0.000 OA
ATOM     23  H   UNL     1       4.332   2.018  20.379  0.00  0.00    +0.000 HD
ENDBRANCH  21  22
ENDBRANCH  20  21
ENDBRANCH  18  20
ENDBRANCH  14  16
ENDBRANCH   3  10
BRANCH   1  24
ATOM     24  N   UNL     1      -1.073  11.916  18.821  0.00  0.00    +0.000 N 
ATOM     25  H   UNL     1      -1.053  12.815  19.304  0.00  0.00    +0.000 HD
BRANCH  24  36
ATOM     26  C   UNL     1      -5.247  13.842  20.697  0.00  0.00    +0.000 C 
ATOM     27  C   UNL     1      -5.781  12.417  20.724  0.00  0.00    +0.000 C 
ATOM     28  C   UNL     1      -7.271  12.415  21.110  0.00  0.00    +0.000 C 
ATOM     29  C   UNL     1      -7.754  11.075  20.579  0.00  0.00    +0.000 C 
ATOM     30  C   UNL     1      -6.982  10.907  19.271  0.00  0.00    +0.000 C 
ATOM     31  N   UNL     1      -5.824  11.791  19.402  0.00  0.00    +0.000 N 
ATOM     32  C   UNL     1      -4.711  11.603  18.611  0.00  0.00    +0.000 A 
ATOM     33  C   UNL     1      -4.872  11.275  17.265  0.00  0.00    +0.000 A 
ATOM     34  C   UNL     1      -3.763  11.145  16.436  0.00  0.00    +0.000 A 
ATOM     35  C   UNL     1      -2.503  11.353  16.970  0.00  0.00    +0.000 A 
ATOM     36  C   UNL     1      -2.386  11.697  18.313  0.00  0.00    +0.000 A 
ATOM     37  N   UNL     1      -3.475  11.799  19.118  0.00  0.00    +0.000 NA
ENDBRANCH  24  36
ENDBRANCH   1  24
TORSDOF 7
ENDMDL
MODEL 2
REMARK VINA RESULT:      -8.9      4.125      9.769
REMARK  Name = 
REMARK  8 active torsions:
REMARK  status: ('A' for Active; 'I' for Inactive)
REMARK    1  A    between atoms: C_1  and  C_2
REMARK    2  A    between atoms: C_11  and  N_12
REMARK    3  A    between atoms: N_12  and  C_13
REMARK    4  A    between atoms: C_15  and  C_16
REMARK    5  A    between atoms: C_20  and  C_21
REMARK    6  A    between atoms: N_23  and  C_24
REMARK    7  A    between atoms: C_24  and  C_25
REMARK    8  A    between atoms: C_25  and  O_26
REMARK                            x       y       z     vdW  Elec       q    Type
REMARK                         _______ _______ _______ _____ _____    ______ ____
ROOT
ATOM      1  C   UNL     1       1.211   9.196  18.776  0.00  0.00    +0.000 A 
ATOM      2  C   UNL     1       0.176   9.596  18.022  0.00  0.00    +0.000 A 
ATOM      3  C   UNL     1      -1.069  10.084  18.680  0.00  0.00    +0.000 A 
ATOM      4  N   UNL     1      -1.235  10.178  19.967  0.00  0.00    +0.000 NA
ATOM      5  N   UNL     1      -0.156   9.739  20.674  0.00  0.00    +0.000 N 
ATOM      6  C   UNL     1      -0.069   9.724  22.040  0.00  0.00    +0.000 A 
ATOM      7  C   UNL     1       1.166   9.192  22.325  0.00  0.00    +0.000 A 
ATOM      8  N   UNL     1       1.847   8.875  21.174  0.00  0.00    +0.000 NA
ATOM      9  C   UNL     1       1.035   9.228  20.191  0.00  0.00    +0.000 A 
ENDROOT
BRANCH   3  10
ATOM     10  C   UNL     1      -2.164  10.516  17.764  0.00  0.00    +0.000 A 
ATOM     11  C   UNL     1      -3.232  11.293  18.236  0.00  0.00    +0.000 A 
ATOM     12  C   UNL     1      -4.281  11.630  17.385  0.00  0.00    +0.000 A 
ATOM     13  C   UNL     1      -4.257  11.211  16.056  0.00  0.00    +0.000 A 
ATOM     14  C   UNL     1      -3.173  10.473  15.560  0.00  0.00    +0.000 A 
ATOM     15  C   UNL     1      -2.121  10.123  16.417  0.00  0.00    +0.000 A 
BRANCH  14  16
ATOM     16  C   UNL     1      -3.225  10.051  14.133  0.00  0.00    +0.000 C 
ATOM     17  O   UNL     1      -2.206   9.636  13.584  0.00  0.00    +0.000 OA
ATOM     18  N   UNL     1      -4.441  10.113  13.493  0.00  0.00    +0.000 N 
ATOM     19  H   UNL     1      -5.282  10.352  14.001  0.00  0.00    +0.000 HD
BRANCH  18  20
ATOM     20  C   UNL     1      -4.577   9.710  12.099  0.00  0.00    +0.000 C 
BRANCH  20  21
ATOM     21  C   UNL     1      -6.017   9.345  11.735  0.00  0.00    +0.000 C 
BRANCH  21  22
ATOM     22  O   UNL     1      -6.486  10.187  10.683  0.00  0.00    +0.000 OA
ATOM     23  H   UNL     1      -6.244  11.094  10.939  0.00  0.00    +0.000 HD
ENDBRANCH  21  22
ENDBRANCH  20  21
ENDBRANCH  18  20
ENDBRANCH  14  16
ENDBRANCH   3  10
BRANCH   1  24
ATOM     24  N   UNL     1       2.414   8.755  18.225  0.00  0.00    +0.000 N 
ATOM     25  H   UNL     1       2.569   9.209  17.325  0.00  0.00    +0.000 HD
BRANCH  24  36
ATOM     26  C   UNL     1       6.924   6.831  17.443  0.00  0.00    +0.000 C 
ATOM     27  C   UNL     1       6.300   6.085  16.273  0.00  0.00    +0.000 C 
ATOM     28  C   UNL     1       7.309   5.087  15.679  0.00  0.00    +0.000 C 
ATOM     29  C   UNL     1       6.416   4.100  14.945  0.00  0.00    +0.000 C 
ATOM     30  C   UNL     1       5.191   3.981  15.852  0.00  0.00    +0.000 C 
ATOM     31  N   UNL     1       5.210   5.193  16.671  0.00  0.00    +0.000 N 
ATOM     32  C   UNL     1       4.065   5.623  17.305  0.00  0.00    +0.000 A 
ATOM     33  C   UNL     1       3.220   4.691  17.907  0.00  0.00    +0.000 A 
ATOM     34  C   UNL     1       2.094   5.112  18.606  0.00  0.00    +0.000 A 
ATOM     35  C   UNL     1       1.834   6.468  18.696  0.00  0.00    +0.000 A 
ATOM     36  C   UNL     1       2.710   7.367  18.097  0.00  0.00    +0.000 A 
ATOM     37  N   UNL     1       3.794   6.943  17.398  0.00  0.00    +0.000 NA
ENDBRANCH  24  36
ENDBRANCH   1  24
TORSDOF 7
ENDMDL
MODEL 3
REMARK VINA RESULT:      -8.7      3.692      9.034
REMARK  Name = 
REMARK  8 active torsions:
REMARK  status: ('A' for Active; 'I' for Inactive)
REMARK    1  A    between atoms: C_1  and  C_2
REMARK    2  A    between atoms: C_11  and  N_12
REMARK    3  A    between atoms: N_12  and  C_13
REMARK    4  A    between atoms: C_15  and  C_16
REMARK    5  A    between atoms: C_20  and  C_21
REMARK    6  A    between atoms: N_23  and  C_24
REMARK    7  A    between atoms: C_24  and  C_25
REMARK    8  A    between atoms: C_25  and  O_26
REMARK                            x       y       z     vdW  Elec       q    Type
REMARK                         _______ _______ _______ _____ _____    ______ ____
ROOT
ATOM      1  C   UNL     1       0.408  10.219  19.913  0.00  0.00    +0.000 A 
ATOM      2  C   UNL     1      -0.684  10.166  19.137  0.00  0.00    +0.000 A 
ATOM      3  C   UNL     1      -1.288  11.429  18.627  0.00  0.00    +0.000 A 
ATOM      4  N   UNL     1      -0.816  12.619  18.860  0.00  0.00    +0.000 NA
ATOM      5  N   UNL     1       0.280  12.605  19.669  0.00  0.00    +0.000 N 
ATOM      6  C   UNL     1       0.967  13.717  20.074  0.00  0.00    +0.000 A 
ATOM      7  C   UNL     1       1.977  13.252  20.884  0.00  0.00    +0.000 A 
ATOM      8  N   UNL     1       1.934  11.883  20.992  0.00  0.00    +0.000 NA
ATOM      9  C   UNL     1       0.911  11.514  20.239  0.00  0.00    +0.000 A 
ENDROOT
BRANCH   3  10
ATOM     10  C   UNL     1      -2.495  11.273  17.764  0.00  0.00    +0.000 A 
ATOM     11  C   UNL     1      -3.778  11.530  18.268  0.00  0.00    +0.000 A 
ATOM     12  C   UNL     1      -4.899  11.313  17.472  0.00  0.00    +0.000 A 
ATOM     13  C   UNL     1      -4.742  10.860  16.163  0.00  0.00    +0.000 A 
ATOM     14  C   UNL     1      -3.463  10.643  15.632  0.00  0.00    +0.000 A 
ATOM     15  C   UNL     1      -2.333  10.850  16.435  0.00  0.00    +0.000 A 
BRANCH  14  16
ATOM     16  C   UNL     1      -3.376  10.147  14.230  0.00  0.00    +0.000 C 
ATOM     17  O   UNL     1      -2.301   9.739  13.795  0.00  0.00    +0.000 OA
ATOM     18  N   UNL     1      -4.532  10.136  13.485  0.00  0.00    +0.000 N 
ATOM     19  H   UNL     1      -5.421  10.372  13.905  0.00  0.00    +0.000 HD
BRANCH  18  20
ATOM     20  C   UNL     1      -4.533   9.658  12.108  0.00  0.00    +0.000 C 
BRANCH  20  21
ATOM     21  C   UNL     1      -5.942   9.586  11.516  0.00  0.00    +0.000 C 
BRANCH  21  22
ATOM     22  O   UNL     1      -6.755   8.706  12.290  0.00  0.00    +0.000 OA
ATOM     23  H   UNL     1      -7.245   8.162  11.648  0.00  0.00    +0.000 HD
ENDBRANCH  21  22
ENDBRANCH  20  21
ENDBRANCH  18  20
ENDBRANCH  14  16
ENDBRANCH   3  10
BRANCH   1  24
ATOM     24  N   UNL     1       1.039   9.076  20.402  0.00  0.00    +0.000 N 
ATOM     25  H   UNL     1       1.594   9.312  21.225  0.00  0.00    +0.000 HD
BRANCH  24  36
ATOM     26  C   UNL     1       0.854   4.115  20.330  0.00  0.00    +0.000 C 
ATOM     27  C   UNL     1       2.367   4.149  20.495  0.00  0.00    +0.000 C 
ATOM     28  C   UNL     1       2.949   2.731  20.362  0.00  0.00    +0.000 C 
ATOM     29  C   UNL     1       4.404   2.996  20.011  0.00  0.00    +0.000 C 
ATOM     30  C   UNL     1       4.338   4.222  19.101  0.00  0.00    +0.000 C 
ATOM     31  N   UNL     1       3.051   4.847  19.405  0.00  0.00    +0.000 N 
ATOM     32  C   UNL     1       2.825   6.168  19.085  0.00  0.00    +0.000 A 
ATOM     33  C   UNL     1       3.289   6.669  17.868  0.00  0.00    +0.000 A 
ATOM     34  C   UNL     1       3.014   7.982  17.500  0.00  0.00    +0.000 A 
ATOM     35  C   UNL     1       2.271   8.774  18.358  0.00  0.00    +0.000 A 
ATOM     36  C   UNL     1       1.813   8.232  19.553  0.00  0.00    +0.000 A 
ATOM     37  N   UNL     1       2.106   6.955  19.913  0.00  0.00    +0.000 NA
ENDBRANCH  24  36
ENDBRANCH   1  24
TORSDOF 7
ENDMDL
MODEL 4
REMARK VINA RESULT:      -8.7      1.893      2.351
REMARK  Name = 
REMARK  8 active torsions:
REMARK  status: ('A' for Active; 'I' for Inactive)
REMARK    1  A    between atoms: C_1  and  C_2
REMARK    2  A    between atoms: C_11  and  N_12
REMARK    3  A    between atoms: N_12  and  C_13
REMARK    4  A    between atoms: C_15  and  C_16
REMARK    5  A    between atoms: C_20  and  C_21
REMARK    6  A    between atoms: N_23  and  C_24
REMARK    7  A    between atoms: C_24  and  C_25
REMARK    8  A    between atoms: C_25  and  O_26
REMARK                            x       y       z     vdW  Elec       q    Type
REMARK                         _______ _______ _______ _____ _____    ______ ____
ROOT
ATOM      1  C   UNL     1      -0.057  10.430  19.556  0.00  0.00    +0.000 A 
ATOM      2  C   UNL     1       0.662   9.331  19.285  0.00  0.00    +0.000 A 
ATOM      3  C   UNL     1       1.054   8.415  20.394  0.00  0.00    +0.000 A 
ATOM      4  N   UNL     1       0.729   8.586  21.642  0.00  0.00    +0.000 NA
ATOM      5  N   UNL     1       0.017   9.729  21.852  0.00  0.00    +0.000 N 
ATOM      6  C   UNL     1      -0.445  10.150  23.069  0.00  0.00    +0.000 A 
ATOM      7  C   UNL     1      -1.085  11.343  22.828  0.00  0.00    +0.000 A 
ATOM      8  N   UNL     1      -1.031  11.673  21.496  0.00  0.00    +0.000 NA
ATOM      9  C   UNL     1      -0.374  10.678  20.924  0.00  0.00    +0.000 A 
ENDROOT
BRANCH   3  10
ATOM     10  C   UNL     1       1.845   7.214  19.998  0.00  0.00    +0.000 A 
ATOM     11  C   UNL     1       1.794   6.036  20.757  0.00  0.00    +0.000 A 
ATOM     12  C   UNL     1       2.590   4.947  20.415  0.00  0.00    +0.000 A 
ATOM     13  C   UNL     1       3.424   5.022  19.301  0.00  0.00    +0.000 A 
ATOM     14  C   UNL     1       3.452   6.177  18.507  0.00  0.00    +0.000 A 
ATOM     15  C   UNL     1       2.659   7.279  18.856  0.00  0.00    +0.000 A 
BRANCH  14  16
ATOM     16  C   UNL     1       4.377   6.187  17.340  0.00  0.00    +0.000 C 
ATOM     17  O   UNL     1       4.992   7.215  17.060  0.00  0.00    +0.000 OA
ATOM     18  N   UNL     1       4.531   5.014  16.638  0.00  0.00    +0.000 N 
ATOM     19  H   UNL     1       4.099   4.158  16.959  0.00  0.00    +0.000 HD
BRANCH  18  20
ATOM     20  C   UNL     1       5.425   4.939  15.489  0.00  0.00    +0.000 C 
BRANCH  20  21
ATOM     21  C   UNL     1       6.881   4.710  15.897  0.00  0.00    +0.000 C 
BRANCH  21  22
ATOM     22  O   UNL     1       7.592   5.947  15.895  0.00  0.00    +0.000 OA
ATOM     23  H   UNL     1       7.649   6.221  14.963  0.00  0.00    +0.000 HD
ENDBRANCH  21  22
ENDBRANCH  20  21
ENDBRANCH  18  20
ENDBRANCH  14  16
ENDBRANCH   3  10
BRANCH   1  24
ATOM     24  N   UNL     1      -0.481  11.314  18.564  0.00  0.00    +0.000 N 
ATOM     25  H   UNL     1      -0.304  12.275  18.859  0.00  0.00    +0.000 HD
BRANCH  24  36
ATOM     26  C   UNL     1      -4.507  13.605  20.347  0.00  0.00    +0.000 C 
ATOM     27  C   UNL     1      -5.181  12.241  20.321  0.00  0.00    +0.000 C 
ATOM     28  C   UNL     1      -6.676  12.379  20.657  0.00  0.00    +0.000 C 
ATOM     29  C   UNL     1      -7.270  11.106  20.078  0.00  0.00    +0.000 C 
ATOM     30  C   UNL     1      -6.472  10.889  18.792  0.00  0.00    +0.000 C 
ATOM     31  N   UNL     1      -5.238  11.650  18.983  0.00  0.00    +0.000 N 
ATOM     32  C   UNL     1      -4.122  11.369  18.225  0.00  0.00    +0.000 A 
ATOM     33  C   UNL     1      -4.267  11.087  16.867  0.00  0.00    +0.000 A 
ATOM     34  C   UNL     1      -3.146  10.866  16.072  0.00  0.00    +0.000 A 
ATOM     35  C   UNL     1      -1.892  10.936  16.653  0.00  0.00    +0.000 A 
ATOM     36  C   UNL     1      -1.790  11.237  18.007  0.00  0.00    +0.000 A 
ATOM     37  N   UNL     1      -2.891  11.430  18.778  0.00  0.00    +0.000 NA
ENDBRANCH  24  36
ENDBRANCH   1  24
TORSDOF 7
ENDMDL
MODEL 5
REMARK VINA RESULT:      -8.7      0.865      1.112
REMARK  Name = 
REMARK  8 active torsions:
REMARK  status: ('A' for Active; 'I' for Inactive)
REMARK    1  A    between atoms: C_1  and  C_2
REMARK    2  A    between atoms: C_11  and  N_12
REMARK    3  A    between atoms: N_12  and  C_13
REMARK    4  A    between atoms: C_15  and  C_16
REMARK    5  A    between atoms: C_20  and  C_21
REMARK    6  A    between atoms: N_23  and  C_24
REMARK    7  A    between atoms: C_24  and  C_25
REMARK    8  A    between atoms: C_25  and  O_26
REMARK                            x       y       z     vdW  Elec       q    Type
REMARK                         _______ _______ _______ _____ _____    ______ ____
ROOT
ATOM      1  C   UNL     1      -0.203  10.873  19.164  0.00  0.00    +0.000 A 
ATOM      2  C   UNL     1       0.650   9.979  18.643  0.00  0.00    +0.000 A 
ATOM      3  C   UNL     1       1.312   8.985  19.534  0.00  0.00    +0.000 A 
ATOM      4  N   UNL     1       1.109   8.894  20.816  0.00  0.00    +0.000 NA
ATOM      5  N   UNL     1       0.248   9.840  21.285  0.00  0.00    +0.000 N 
ATOM      6  C   UNL     1      -0.132   9.972  22.593  0.00  0.00    +0.000 A 
ATOM      7  C   UNL     1      -0.982  11.052  22.623  0.00  0.00    +0.000 A 
ATOM      8  N   UNL     1      -1.138  11.595  21.370  0.00  0.00    +0.000 NA
ATOM      9  C   UNL     1      -0.397  10.838  20.577  0.00  0.00    +0.000 A 
ENDROOT
BRANCH   3  10
ATOM     10  C   UNL     1       2.238   8.025  18.866  0.00  0.00    +0.000 A 
ATOM     11  C   UNL     1       2.914   8.378  17.689  0.00  0.00    +0.000 A 
ATOM     12  C   UNL     1       3.720   7.447  17.040  0.00  0.00    +0.000 A 
ATOM     13  C   UNL     1       3.872   6.170  17.574  0.00  0.00    +0.000 A 
ATOM     14  C   UNL     1       3.238   5.818  18.775  0.00  0.00    +0.000 A 
ATOM     15  C   UNL     1       2.417   6.750  19.424  0.00  0.00    +0.000 A 
BRANCH  14  16
ATOM     16  C   UNL     1       3.438   4.431  19.277  0.00  0.00    +0.000 C 
ATOM     17  O   UNL     1       4.578   4.012  19.467  0.00  0.00    +0.000 OA
ATOM     18  N   UNL     1       2.316   3.681  19.543  0.00  0.00    +0.000 N 
ATOM     19  H   UNL     1       1.393   4.091  19.484  0.00  0.00    +0.000 HD
BRANCH  18  20
ATOM     20  C   UNL     1       2.427   2.318  20.046  0.00  0.00    +0.000 C 
BRANCH  20  21
ATOM     21  C   UNL     1       2.755   2.271  21.540  0.00  0.00    +0.000 C 
BRANCH  21  22
ATOM     22  O   UNL     1       1.818   3.059  22.273  0.00  0.00    +0.000 OA
ATOM     23  H   UNL     1       1.816   3.935  21.850  0.00  0.00    +0.000 HD
ENDBRANCH  21  22
ENDBRANCH  20  21
ENDBRANCH  18  20
ENDBRANCH  14  16
ENDBRANCH   3  10
BRANCH   1  24
ATOM     24  N   UNL     1      -0.877  11.812  18.384  0.00  0.00    +0.000 N 
ATOM     25  H   UNL     1      -0.855  12.723  18.844  0.00  0.00    +0.000 HD
BRANCH  24  36
ATOM     26  C   UNL     1      -5.037  13.718  20.310  0.00  0.00    +0.000 C 
ATOM     27  C   UNL     1      -5.556  12.288  20.366  0.00  0.00    +0.000 C 
ATOM     28  C   UNL     1      -7.038  12.275  20.779  0.00  0.00    +0.000 C 
ATOM     29  C   UNL     1      -7.516  10.924  20.274  0.00  0.00    +0.000 C 
ATOM     30  C   UNL     1      -6.765  10.746  18.955  0.00  0.00    +0.000 C 
ATOM     31  N   UNL     1      -5.615  11.644  19.053  0.00  0.00    +0.000 N 
ATOM     32  C   UNL     1      -4.515  11.458  18.244  0.00  0.00    +0.000 A 
ATOM     33  C   UNL     1      -4.697  11.109  16.905  0.00  0.00    +0.000 A 
ATOM     34  C   UNL     1      -3.600  10.981  16.059  0.00  0.00    +0.000 A 
ATOM     35  C   UNL     1      -2.334  11.209  16.567  0.00  0.00    +0.000 A 
ATOM     36  C   UNL     1      -2.197  11.572  17.903  0.00  0.00    +0.000 A 
ATOM     37  N   UNL     1      -3.272  11.673  18.726  0.00  0.00    +0.000 NA
ENDBRANCH  24  36
ENDBRANCH   1  24
TORSDOF 7
ENDMDL
MODEL 6
REMARK VINA RESULT:      -8.4      3.566      6.384
REMARK  Name = 
REMARK  8 active torsions:
REMARK  status: ('A' for Active; 'I' for Inactive)
REMARK    1  A    between atoms: C_1  and  C_2
REMARK    2  A    between atoms: C_11  and  N_12
REMARK    3  A    between atoms: N_12  and  C_13
REMARK    4  A    between atoms: C_15  and  C_16
REMARK    5  A    between atoms: C_20  and  C_21
REMARK    6  A    between atoms: N_23  and  C_24
REMARK    7  A    between atoms: C_24  and  C_25
REMARK    8  A    between atoms: C_25  and  O_26
REMARK                            x       y       z     vdW  Elec       q    Type
REMARK                         _______ _______ _______ _____ _____    ______ ____
ROOT
ATOM      1  C   UNL     1       2.545   5.761  19.663  0.00  0.00    +0.000 A 
ATOM      2  C   UNL     1       3.640   5.753  18.888  0.00  0.00    +0.000 A 
ATOM      3  C   UNL     1       4.052   4.493  18.209  0.00  0.00    +0.000 A 
ATOM      4  N   UNL     1       3.406   3.367  18.287  0.00  0.00    +0.000 NA
ATOM      5  N   UNL     1       2.316   3.437  19.102  0.00  0.00    +0.000 N 
ATOM      6  C   UNL     1       1.467   2.396  19.365  0.00  0.00    +0.000 A 
ATOM      7  C   UNL     1       0.532   2.895  20.240  0.00  0.00    +0.000 A 
ATOM      8  N   UNL     1       0.778   4.215  20.529  0.00  0.00    +0.000 NA
ATOM      9  C   UNL     1       1.852   4.524  19.820  0.00  0.00    +0.000 A 
ENDROOT
BRANCH   3  10
ATOM     10  C   UNL     1       5.277   4.580  17.361  0.00  0.00    +0.000 A 
ATOM     11  C   UNL     1       6.507   4.966  17.912  0.00  0.00    +0.000 A 
ATOM     12  C   UNL     1       7.625   5.110  17.095  0.00  0.00    +0.000 A 
ATOM     13  C   UNL     1       7.525   4.847  15.730  0.00  0.00    +0.000 A 
ATOM     14  C   UNL     1       6.311   4.417  15.174  0.00  0.00    +0.000 A 
ATOM     15  C   UNL     1       5.181   4.282  15.992  0.00  0.00    +0.000 A 
BRANCH  14  16
ATOM     16  C   UNL     1       6.278   4.168  13.706  0.00  0.00    +0.000 C 
ATOM     17  O   UNL     1       7.222   4.530  13.007  0.00  0.00    +0.000 OA
ATOM     18  N   UNL     1       5.188   3.501  13.197  0.00  0.00    +0.000 N 
ATOM     19  H   UNL     1       4.481   3.118  13.811  0.00  0.00    +0.000 HD
BRANCH  18  20
ATOM     20  C   UNL     1       5.084   3.211  11.772  0.00  0.00    +0.000 C 
BRANCH  20  21
ATOM     21  C   UNL     1       5.655   1.838  11.413  0.00  0.00    +0.000 C 
BRANCH  21  22
ATOM     22  O   UNL     1       7.080   1.896  11.366  0.00  0.00    +0.000 OA
ATOM     23  H   UNL     1       7.303   2.821  11.161  0.00  0.00    +0.000 HD
ENDBRANCH  21  22
ENDBRANCH  20  21
ENDBRANCH  18  20
ENDBRANCH  14  16
ENDBRANCH   3  10
BRANCH   1  24
ATOM     24  N   UNL     1       2.088   6.911  20.306  0.00  0.00    +0.000 N 
ATOM     25  H   UNL     1       1.314   6.674  20.929  0.00  0.00    +0.000 HD
BRANCH  24  36
ATOM     26  C   UNL     1       0.128  11.038  22.248  0.00  0.00    +0.000 C 
ATOM     27  C   UNL     1      -0.951  10.916  21.181  0.00  0.00    +0.000 C 
ATOM     28  C   UNL     1      -1.857  12.160  21.195  0.00  0.00    +0.000 C 
ATOM     29  C   UNL     1      -2.478  12.140  19.808  0.00  0.00    +0.000 C 
ATOM     30  C   UNL     1      -1.342  11.646  18.912  0.00  0.00    +0.000 C 
ATOM     31  N   UNL     1      -0.421  10.959  19.817  0.00  0.00    +0.000 N 
ATOM     32  C   UNL     1       0.492  10.052  19.324  0.00  0.00    +0.000 A 
ATOM     33  C   UNL     1       1.161  10.329  18.132  0.00  0.00    +0.000 A 
ATOM     34  C   UNL     1       2.133   9.456  17.654  0.00  0.00    +0.000 A 
ATOM     35  C   UNL     1       2.425   8.317  18.384  0.00  0.00    +0.000 A 
ATOM     36  C   UNL     1       1.748   8.087  19.577  0.00  0.00    +0.000 A 
ATOM     37  N   UNL     1       0.785   8.934  20.023  0.00  0.00    +0.000 NA
ENDBRANCH  24  36
ENDBRANCH   1  24
TORSDOF 7
ENDMDL
MODEL 7
REMARK VINA RESULT:      -8.2      3.719      4.976
REMARK  Name = 
REMARK  8 active torsions:
REMARK  status: ('A' for Active; 'I' for Inactive)
REMARK    1  A    between atoms: C_1  and  C_2
REMARK    2  A    between atoms: C_11  and  N_12
REMARK    3  A    between atoms: N_12  and  C_13
REMARK    4  A    between atoms: C_15  and  C_16
REMARK    5  A    between atoms: C_20  and  C_21
REMARK    6  A    between atoms: N_23  and  C_24
REMARK    7  A    between atoms: C_24  and  C_25
REMARK    8  A    between atoms: C_25  and  O_26
REMARK                            x       y       z     vdW  Elec       q    Type
REMARK                         _______ _______ _______ _____ _____    ______ ____
ROOT
ATOM      1  C   UNL     1       0.455  10.515  19.543  0.00  0.00    +0.000 A 
ATOM      2  C   UNL     1       1.092   9.371  19.254  0.00  0.00    +0.000 A 
ATOM      3  C   UNL     1       1.268   8.338  20.314  0.00  0.00    +0.000 A 
ATOM      4  N   UNL     1       0.822   8.447  21.531  0.00  0.00    +0.000 NA
ATOM      5  N   UNL     1       0.202   9.638  21.764  0.00  0.00    +0.000 N 
ATOM      6  C   UNL     1      -0.351  10.011  22.959  0.00  0.00    +0.000 A 
ATOM      7  C   UNL     1      -0.843  11.279  22.757  0.00  0.00    +0.000 A 
ATOM      8  N   UNL     1      -0.608  11.703  21.471  0.00  0.00    +0.000 NA
ATOM      9  C   UNL     1       0.011  10.690  20.887  0.00  0.00    +0.000 A 
ENDROOT
BRANCH   3  10
ATOM     10  C   UNL     1       1.980   7.094  19.901  0.00  0.00    +0.000 A 
ATOM     11  C   UNL     1       1.924   5.937  20.690  0.00  0.00    +0.000 A 
ATOM     12  C   UNL     1       2.650   4.806  20.326  0.00  0.00    +0.000 A 
ATOM     13  C   UNL     1       3.416   4.819  19.163  0.00  0.00    +0.000 A 
ATOM     14  C   UNL     1       3.445   5.955  18.340  0.00  0.00    +0.000 A 
ATOM     15  C   UNL     1       2.724   7.098  18.710  0.00  0.00    +0.000 A 
BRANCH  14  16
ATOM     16  C   UNL     1       4.296   5.898  17.120  0.00  0.00    +0.000 C 
ATOM     17  O   UNL     1       4.657   6.942  16.581  0.00  0.00    +0.000 OA
ATOM     18  N   UNL     1       4.675   4.657  16.664  0.00  0.00    +0.000 N 
ATOM     19  H   UNL     1       4.456   3.822  17.191  0.00  0.00    +0.000 HD
BRANCH  18  20
ATOM     20  C   UNL     1       5.516   4.516  15.481  0.00  0.00    +0.000 C 
BRANCH  20  21
ATOM     21  C   UNL     1       7.007   4.590  15.812  0.00  0.00    +0.000 C 
BRANCH  21  22
ATOM     22  O   UNL     1       7.684   5.400  14.853  0.00  0.00    +0.000 OA
ATOM     23  H   UNL     1       7.144   6.203  14.753  0.00  0.00    +0.000 HD
ENDBRANCH  21  22
ENDBRANCH  20  21
ENDBRANCH  18  20
ENDBRANCH  14  16
ENDBRANCH   3  10
BRANCH   1  24
ATOM     24  N   UNL     1       0.233  11.511  18.592  0.00  0.00    +0.000 N 
ATOM     25  H   UNL     1       0.252  11.105  17.656  0.00  0.00    +0.000 HD
BRANCH  24  36
ATOM     26  C   UNL     1      -1.087  15.748  20.818  0.00  0.00    +0.000 C 
ATOM     27  C   UNL     1      -0.846  16.420  19.474  0.00  0.00    +0.000 C 
ATOM     28  C   UNL     1      -0.957  17.949  19.615  0.00  0.00    +0.000 C 
ATOM     29  C   UNL     1      -0.190  18.456  18.405  0.00  0.00    +0.000 C 
ATOM     30  C   UNL     1       0.970  17.468  18.274  0.00  0.00    +0.000 C 
ATOM     31  N   UNL     1       0.529  16.273  18.992  0.00  0.00    +0.000 N 
ATOM     32  C   UNL     1       1.125  15.055  18.750  0.00  0.00    +0.000 A 
ATOM     33  C   UNL     1       2.508  14.988  18.579  0.00  0.00    +0.000 A 
ATOM     34  C   UNL     1       3.135  13.759  18.398  0.00  0.00    +0.000 A 
ATOM     35  C   UNL     1       2.363  12.611  18.396  0.00  0.00    +0.000 A 
ATOM     36  C   UNL     1       0.990  12.718  18.587  0.00  0.00    +0.000 A 
ATOM     37  N   UNL     1       0.385  13.925  18.741  0.00  0.00    +0.000 NA
ENDBRANCH  24  36
ENDBRANCH   1  24
TORSDOF 7
ENDMDL
MODEL 8
REMARK VINA RESULT:      -8.1      4.185     10.325
REMARK  Name = 
REMARK  8 active torsions:
REMARK  status: ('A' for Active; 'I' for Inactive)
REMARK    1  A    between atoms: C_1  and  C_2
REMARK    2  A    between atoms: C_11  and  N_12
REMARK    3  A    between atoms: N_12  and  C_13
REMARK    4  A    between atoms: C_15  and  C_16
REMARK    5  A    between atoms: C_20  and  C_21
REMARK    6  A    between atoms: N_23  and  C_24
REMARK    7  A    between atoms: C_24  and  C_25
REMARK    8  A    between atoms: C_25  and  O_26
REMARK                            x       y       z     vdW  Elec       q    Type
REMARK                         _______ _______ _______ _____ _____    ______ ____
ROOT
ATOM      1  C   UNL     1       1.249   9.201  18.850  0.00  0.00    +0.000 A 
ATOM      2  C   UNL     1       0.206   9.559  18.088  0.00  0.00    +0.000 A 
ATOM      3  C   UNL     1      -1.045  10.048  18.734  0.00  0.00    +0.000 A 
ATOM      4  N   UNL     1      -1.209  10.182  20.017  0.00  0.00    +0.000 NA
ATOM      5  N   UNL     1      -0.121   9.785  20.734  0.00  0.00    +0.000 N 
ATOM      6  C   UNL     1      -0.030   9.816  22.099  0.00  0.00    +0.000 A 
ATOM      7  C   UNL     1       1.215   9.314  22.398  0.00  0.00    +0.000 A 
ATOM      8  N   UNL     1       1.897   8.971  21.256  0.00  0.00    +0.000 NA
ATOM      9  C   UNL     1       1.077   9.277  20.264  0.00  0.00    +0.000 A 
ENDROOT
BRANCH   3  10
ATOM     10  C   UNL     1      -2.150  10.432  17.807  0.00  0.00    +0.000 A 
ATOM     11  C   UNL     1      -2.089  10.113  16.443  0.00  0.00    +0.000 A 
ATOM     12  C   UNL     1      -3.095  10.539  15.580  0.00  0.00    +0.000 A 
ATOM     13  C   UNL     1      -4.175  11.263  16.078  0.00  0.00    +0.000 A 
ATOM     14  C   UNL     1      -4.272  11.549  17.448  0.00  0.00    +0.000 A 
ATOM     15  C   UNL     1      -3.255  11.132  18.317  0.00  0.00    +0.000 A 
BRANCH  14  16
ATOM     16  C   UNL     1      -5.449  12.338  17.903  0.00  0.00    +0.000 C 
ATOM     17  O   UNL     1      -5.750  12.348  19.096  0.00  0.00    +0.000 OA
ATOM     18  N   UNL     1      -6.137  13.062  16.957  0.00  0.00    +0.000 N 
ATOM     19  H   UNL     1      -5.799  13.124  16.006  0.00  0.00    +0.000 HD
BRANCH  18  20
ATOM     20  C   UNL     1      -7.295  13.868  17.324  0.00  0.00    +0.000 C 
BRANCH  20  21
ATOM     21  C   UNL     1      -7.072  15.360  17.071  0.00  0.00    +0.000 C 
BRANCH  21  22
ATOM     22  O   UNL     1      -6.953  15.608  15.671  0.00  0.00    +0.000 OA
ATOM     23  H   UNL     1      -7.693  16.197  15.440  0.00  0.00    +0.000 HD
ENDBRANCH  21  22
ENDBRANCH  20  21
ENDBRANCH  18  20
ENDBRANCH  14  16
ENDBRANCH   3  10
BRANCH   1  24
ATOM     24  N   UNL     1       2.458   8.762  18.311  0.00  0.00    +0.000 N 
ATOM     25  H   UNL     1       2.634   9.237  17.424  0.00  0.00    +0.000 HD
BRANCH  24  36
ATOM     26  C   UNL     1       6.950   6.821  17.471  0.00  0.00    +0.000 C 
ATOM     27  C   UNL     1       6.316   6.103  16.288  0.00  0.00    +0.000 C 
ATOM     28  C   UNL     1       7.315   5.110  15.671  0.00  0.00    +0.000 C 
ATOM     29  C   UNL     1       6.412   4.145  14.921  0.00  0.00    +0.000 C 
ATOM     30  C   UNL     1       5.190   4.016  15.830  0.00  0.00    +0.000 C 
ATOM     31  N   UNL     1       5.221   5.211  16.673  0.00  0.00    +0.000 N 
ATOM     32  C   UNL     1       4.082   5.637  17.321  0.00  0.00    +0.000 A 
ATOM     33  C   UNL     1       3.233   4.699  17.908  0.00  0.00    +0.000 A 
ATOM     34  C   UNL     1       2.113   5.115  18.620  0.00  0.00    +0.000 A 
ATOM     35  C   UNL     1       1.863   6.471  18.739  0.00  0.00    +0.000 A 
ATOM     36  C   UNL     1       2.743   7.375  18.154  0.00  0.00    +0.000 A 
ATOM     37  N   UNL     1       3.821   6.957  17.441  0.00  0.00    +0.000 NA
ENDBRANCH  24  36
ENDBRANCH   1  24
TORSDOF 7
ENDMDL
MODEL 9
REMARK VINA RESULT:      -8.0      2.367      2.932
REMARK  Name = 
REMARK  8 active torsions:
REMARK  status: ('A' for Active; 'I' for Inactive)
REMARK    1  A    between atoms: C_1  and  C_2
REMARK    2  A    between atoms: C_11  and  N_12
REMARK    3  A    between atoms: N_12  and  C_13
REMARK    4  A    between atoms: C_15  and  C_16
REMARK    5  A    between atoms: C_20  and  C_21
REMARK    6  A    between atoms: N_23  and  C_24
REMARK    7  A    between atoms: C_24  and  C_25
REMARK    8  A    between atoms: C_25  and  O_26
REMARK                            x       y       z     vdW  Elec       q    Type
REMARK                         _______ _______ _______ _____ _____    ______ ____
ROOT
ATOM      1  C   UNL     1       0.579  10.011  19.094  0.00  0.00    +0.000 A 
ATOM      2  C   UNL     1       1.202   8.943  18.574  0.00  0.00    +0.000 A 
ATOM      3  C   UNL     1       1.716   7.876  19.479  0.00  0.00    +0.000 A 
ATOM      4  N   UNL     1       1.588   7.882  20.773  0.00  0.00    +0.000 NA
ATOM      5  N   UNL     1       0.965   9.001  21.239  0.00  0.00    +0.000 N 
ATOM      6  C   UNL     1       0.709   9.262  22.558  0.00  0.00    +0.000 A 
ATOM      7  C   UNL     1       0.092  10.491  22.577  0.00  0.00    +0.000 A 
ATOM      8  N   UNL     1      -0.040  10.999  21.308  0.00  0.00    +0.000 NA
ATOM      9  C   UNL     1       0.481  10.077  20.516  0.00  0.00    +0.000 A 
ENDROOT
BRANCH   3  10
ATOM     10  C   UNL     1       2.387   6.723  18.812  0.00  0.00    +0.000 A 
ATOM     11  C   UNL     1       2.011   5.404  19.106  0.00  0.00    +0.000 A 
ATOM     12  C   UNL     1       2.693   4.337  18.527  0.00  0.00    +0.000 A 
ATOM     13  C   UNL     1       3.737   4.583  17.637  0.00  0.00    +0.000 A 
ATOM     14  C   UNL     1       4.092   5.897  17.299  0.00  0.00    +0.000 A 
ATOM     15  C   UNL     1       3.415   6.972  17.889  0.00  0.00    +0.000 A 
BRANCH  14  16
ATOM     16  C   UNL     1       5.225   6.080  16.351  0.00  0.00    +0.000 C 
ATOM     17  O   UNL     1       5.428   7.185  15.851  0.00  0.00    +0.000 OA
ATOM     18  N   UNL     1       6.030   4.992  16.101  0.00  0.00    +0.000 N 
ATOM     19  H   UNL     1       5.906   4.128  16.611  0.00  0.00    +0.000 HD
BRANCH  18  20
ATOM     20  C   UNL     1       7.165   5.091  15.192  0.00  0.00    +0.000 C 
BRANCH  20  21
ATOM     21  C   UNL     1       6.871   4.478  13.822  0.00  0.00    +0.000 C 
BRANCH  21  22
ATOM     22  O   UNL     1       6.257   3.199  13.978  0.00  0.00    +0.000 OA
ATOM     23  H   UNL     1       6.587   2.652  13.244  0.00  0.00    +0.000 HD
ENDBRANCH  21  22
ENDBRANCH  20  21
ENDBRANCH  18  20
ENDBRANCH  14  16
ENDBRANCH   3  10
BRANCH   1  24
ATOM     24  N   UNL     1       0.051  11.031  18.304  0.00  0.00    +0.000 N 
ATOM     25  H   UNL     1       0.437  11.930  18.597  0.00  0.00    +0.000 HD
BRANCH  24  36
ATOM     26  C   UNL     1      -2.859  14.293  20.659  0.00  0.00    +0.000 C 
ATOM     27  C   UNL     1      -3.740  13.106  21.018  0.00  0.00    +0.000 C 
ATOM     28  C   UNL     1      -5.036  13.589  21.693  0.00  0.00    +0.000 C 
ATOM     29  C   UNL     1      -5.981  12.417  21.488  0.00  0.00    +0.000 C 
ATOM     30  C   UNL     1      -5.621  11.903  20.094  0.00  0.00    +0.000 C 
ATOM     31  N   UNL     1      -4.269  12.403  19.847  0.00  0.00    +0.000 N 
ATOM     32  C   UNL     1      -3.474  11.816  18.887  0.00  0.00    +0.000 A 
ATOM     33  C   UNL     1      -4.037  11.431  17.670  0.00  0.00    +0.000 A 
ATOM     34  C   UNL     1      -3.237  10.896  16.665  0.00  0.00    +0.000 A 
ATOM     35  C   UNL     1      -1.879  10.761  16.894  0.00  0.00    +0.000 A 
ATOM     36  C   UNL     1      -1.354  11.174  18.114  0.00  0.00    +0.000 A 
ATOM     37  N   UNL     1      -2.147  11.674  19.096  0.00  0.00    +0.000 NA
ENDBRANCH  24  36
ENDBRANCH   1  24
TORSDOF 7
ENDMDL
