MODEL 1
REMARK VINA RESULT:      -6.6      0.000      0.000
REMARK  Name = 
REMARK  10 active torsions:
REMARK  status: ('A' for Active; 'I' for Inactive)
REMARK    1  A    between atoms: C_1  and  O_2
REMARK    2  A    between atoms: O_2  and  C_3
REMARK    3  A    between atoms: C_3  and  C_4
REMARK    4  A    between atoms: C_4  and  N_5
REMARK    5  A    between atoms: N_5  and  C_6
REMARK    6  A    between atoms: C_6  and  C_7
REMARK    7  A    between atoms: C_7  and  C_8
REMARK    8  A    between atoms: C_7  and  C_9
REMARK    9  A    between atoms: N_12  and  C_13
REMARK   10  A    between atoms: C_19  and  C_20
REMARK                            x       y       z     vdW  Elec       q    Type
REMARK                         _______ _______ _______ _____ _____    ______ ____
ROOT
ATOM      1  N   UNL     1       5.503   5.712  16.428  0.00  0.00    +0.000 N 
ATOM      2  C   UNL     1       4.607   4.933  17.169  0.00  0.00    +0.000 C 
ATOM      3  O   UNL     1       4.121   3.913  16.680  0.00  0.00    +0.000 OA
ATOM      4  N   UNL     1       4.289   5.382  18.436  0.00  0.00    +0.000 N 
ATOM      5  H   UNL     1       4.425   6.363  18.614  0.00  0.00    +0.000 HD
ENDROOT
BRANCH   4   6
ATOM      6  C   UNL     1       3.536   4.648  19.394  0.00  0.00    +0.000 A 
ATOM      7  C   UNL     1       3.853   3.314  19.701  0.00  0.00    +0.000 A 
ATOM      8  C   UNL     1       3.097   2.562  20.605  0.00  0.00    +0.000 A 
ATOM      9  C   UNL     1       2.029   3.155  21.251  0.00  0.00    +0.000 A 
ATOM     10 CL   UNL     1       1.089   2.239  22.364  0.00  0.00    +0.000 Cl
ATOM     11  C   UNL     1       1.716   4.491  21.004  0.00  0.00    +0.000 A 
ATOM     12  C   UNL     1       2.455   5.252  20.072  0.00  0.00    +0.000 A 
ATOM     13  C   UNL     1       2.047   6.683  19.859  0.00  0.00    +0.000 C 
ENDBRANCH   4   6
BRANCH   1  14
ATOM     14  C   UNL     1       5.635   5.331  15.004  0.00  0.00    +0.000 C 
BRANCH  14  15
ATOM     15  C   UNL     1       7.053   5.060  14.481  0.00  0.00    +0.000 C 
BRANCH  15  17
ATOM     16  C   UNL     1       5.996   3.589  12.913  0.00  0.00    +0.000 C 
ATOM     17  O   UNL     1       7.136   4.375  13.232  0.00  0.00    +0.000 OA
ENDBRANCH  15  17
ENDBRANCH  14  15
ENDBRANCH   1  14
BRANCH   1  18
ATOM     18  C   UNL     1       6.043   7.022  16.828  0.00  0.00    +0.000 C 
BRANCH  18  19
ATOM     19  C   UNL     1       7.483   7.014  17.386  0.00  0.00    +0.000 C 
ATOM     20  C   UNL     1       7.976   8.415  17.742  0.00  0.00    +0.000 C 
ATOM     21  C   UNL     1       7.575   6.117  18.626  0.00  0.00    +0.000 C 
ENDBRANCH  18  19
ENDBRANCH   1  18
TORSDOF 6
ENDMDL
MODEL 2
REMARK VINA RESULT:      -6.5      3.469      5.424
REMARK  Name = 
REMARK  10 active torsions:
REMARK  status: ('A' for Active; 'I' for Inactive)
REMARK    1  A    between atoms: C_1  and  O_2
REMARK    2  A    between atoms: O_2  and  C_3
REMARK    3  A    between atoms: C_3  and  C_4
REMARK    4  A    between atoms: C_4  and  N_5
REMARK    5  A    between atoms: N_5  and  C_6
REMARK    6  A    between atoms: C_6  and  C_7
REMARK    7  A    between atoms: C_7  and  C_8
REMARK    8  A    between atoms: C_7  and  C_9
REMARK    9  A    between atoms: N_12  and  C_13
REMARK   10  A    between atoms: C_19  and  C_20
REMARK                            x       y       z     vdW  Elec       q    Type
REMARK                         _______ _______ _______ _____ _____    ______ ____
ROOT
ATOM      1  N   UNL     1       3.412   4.849  19.867  0.00  0.00    +0.000 N 
ATOM      2  C   UNL     1       2.376   5.744  20.158  0.00  0.00    +0.000 C 
ATOM      3  O   UNL     1       1.340   5.341  20.687  0.00  0.00    +0.000 OA
ATOM      4  N   UNL     1       2.570   7.063  19.798  0.00  0.00    +0.000 N 
ATOM      5  H   UNL     1       3.245   7.238  19.073  0.00  0.00    +0.000 HD
ENDROOT
BRANCH   4   6
ATOM      6  C   UNL     1       1.712   8.139  20.158  0.00  0.00    +0.000 A 
ATOM      7  C   UNL     1       1.257   8.296  21.479  0.00  0.00    +0.000 A 
ATOM      8  C   UNL     1       0.376   9.319  21.842  0.00  0.00    +0.000 A 
ATOM      9  C   UNL     1      -0.030  10.232  20.887  0.00  0.00    +0.000 A 
ATOM     10 CL   UNL     1      -1.115  11.495  21.322  0.00  0.00    +0.000 Cl
ATOM     11  C   UNL     1       0.441  10.133  19.579  0.00  0.00    +0.000 A 
ATOM     12  C   UNL     1       1.307   9.087  19.194  0.00  0.00    +0.000 A 
ATOM     13  C   UNL     1       1.761   9.048  17.761  0.00  0.00    +0.000 C 
ENDBRANCH   4   6
BRANCH   1  14
ATOM     14  C   UNL     1       3.075   3.420  20.049  0.00  0.00    +0.000 C 
BRANCH  14  15
ATOM     15  C   UNL     1       4.131   2.392  19.614  0.00  0.00    +0.000 C 
BRANCH  15  17
ATOM     16  C   UNL     1       2.621   2.009  17.793  0.00  0.00    +0.000 C 
ATOM     17  O   UNL     1       3.789   1.587  18.485  0.00  0.00    +0.000 OA
ENDBRANCH  15  17
ENDBRANCH  14  15
ENDBRANCH   1  14
BRANCH   1  18
ATOM     18  C   UNL     1       4.636   5.163  19.110  0.00  0.00    +0.000 C 
BRANCH  18  19
ATOM     19  C   UNL     1       4.469   5.284  17.580  0.00  0.00    +0.000 C 
ATOM     20  C   UNL     1       4.719   6.705  17.079  0.00  0.00    +0.000 C 
ATOM     21  C   UNL     1       5.419   4.321  16.858  0.00  0.00    +0.000 C 
ENDBRANCH  18  19
ENDBRANCH   1  18
TORSDOF 6
ENDMDL
MODEL 3
REMARK VINA RESULT:      -6.5      2.062      3.651
REMARK  Name = 
REMARK  10 active torsions:
REMARK  status: ('A' for Active; 'I' for Inactive)
REMARK    1  A    between atoms: C_1  and  O_2
REMARK    2  A    between atoms: O_2  and  C_3
REMARK    3  A    between atoms: C_3  and  C_4
REMARK    4  A    between atoms: C_4  and  N_5
REMARK    5  A    between atoms: N_5  and  C_6
REMARK    6  A    between atoms: C_6  and  C_7
REMARK    7  A    between atoms: C_7  and  C_8
REMARK    8  A    between atoms: C_7  and  C_9
REMARK    9  A    between atoms: N_12  and  C_13
REMARK   10  A    between atoms: C_19  and  C_20
REMARK                            x       y       z     vdW  Elec       q    Type
REMARK                         _______ _______ _______ _____ _____    ______ ____
ROOT
ATOM      1  N   UNL     1       6.438   6.180  17.388  0.00  0.00    +0.000 N 
ATOM      2  C   UNL     1       5.821   5.582  18.493  0.00  0.00    +0.000 C 
ATOM      3  O   UNL     1       6.279   5.746  19.623  0.00  0.00    +0.000 OA
ATOM      4  N   UNL     1       4.715   4.794  18.239  0.00  0.00    +0.000 N 
ATOM      5  H   UNL     1       4.630   4.423  17.308  0.00  0.00    +0.000 HD
ENDROOT
BRANCH   4   6
ATOM      6  C   UNL     1       3.863   4.244  19.236  0.00  0.00    +0.000 A 
ATOM      7  C   UNL     1       4.070   2.947  19.736  0.00  0.00    +0.000 A 
ATOM      8  C   UNL     1       3.216   2.372  20.682  0.00  0.00    +0.000 A 
ATOM      9  C   UNL     1       2.158   3.112  21.175  0.00  0.00    +0.000 A 
ATOM     10 CL   UNL     1       1.099   2.414  22.338  0.00  0.00    +0.000 Cl
ATOM     11  C   UNL     1       1.952   4.419  20.736  0.00  0.00    +0.000 A 
ATOM     12  C   UNL     1       2.791   4.999  19.760  0.00  0.00    +0.000 A 
ATOM     13  C   UNL     1       2.495   6.411  19.334  0.00  0.00    +0.000 C 
ENDBRANCH   4   6
BRANCH   1  14
ATOM     14  C   UNL     1       7.744   6.817  17.669  0.00  0.00    +0.000 C 
BRANCH  14  15
ATOM     15  C   UNL     1       7.781   8.352  17.703  0.00  0.00    +0.000 C 
BRANCH  15  17
ATOM     16  C   UNL     1       9.012  10.281  18.413  0.00  0.00    +0.000 C 
ATOM     17  O   UNL     1       8.649   8.933  18.677  0.00  0.00    +0.000 OA
ENDBRANCH  15  17
ENDBRANCH  14  15
ENDBRANCH   1  14
BRANCH   1  18
ATOM     18  C   UNL     1       6.089   5.953  15.976  0.00  0.00    +0.000 C 
BRANCH  18  19
ATOM     19  C   UNL     1       6.791   4.760  15.292  0.00  0.00    +0.000 C 
ATOM     20  C   UNL     1       5.857   3.566  15.106  0.00  0.00    +0.000 C 
ATOM     21  C   UNL     1       7.353   5.177  13.928  0.00  0.00    +0.000 C 
ENDBRANCH  18  19
ENDBRANCH   1  18
TORSDOF 6
ENDMDL
MODEL 4
REMARK VINA RESULT:      -6.3      0.628      1.602
REMARK  Name = 
REMARK  10 active torsions:
REMARK  status: ('A' for Active; 'I' for Inactive)
REMARK    1  A    between atoms: C_1  and  O_2
REMARK    2  A    between atoms: O_2  and  C_3
REMARK    3  A    between atoms: C_3  and  C_4
REMARK    4  A    between atoms: C_4  and  N_5
REMARK    5  A    between atoms: N_5  and  C_6
REMARK    6  A    between atoms: C_6  and  C_7
REMARK    7  A    between atoms: C_7  and  C_8
REMARK    8  A    between atoms: C_7  and  C_9
REMARK    9  A    between atoms: N_12  and  C_13
REMARK   10  A    between atoms: C_19  and  C_20
REMARK                            x       y       z     vdW  Elec       q    Type
REMARK                         _______ _______ _______ _____ _____    ______ ____
ROOT
ATOM      1  N   UNL     1       5.336   5.733  16.468  0.00  0.00    +0.000 N 
ATOM      2  C   UNL     1       4.405   4.944  17.155  0.00  0.00    +0.000 C 
ATOM      3  O   UNL     1       3.895   3.968  16.606  0.00  0.00    +0.000 OA
ATOM      4  N   UNL     1       4.084   5.335  18.440  0.00  0.00    +0.000 N 
ATOM      5  H   UNL     1       4.247   6.300  18.673  0.00  0.00    +0.000 HD
ENDROOT
BRANCH   4   6
ATOM      6  C   UNL     1       3.294   4.575  19.348  0.00  0.00    +0.000 A 
ATOM      7  C   UNL     1       1.987   4.968  19.680  0.00  0.00    +0.000 A 
ATOM      8  C   UNL     1       1.212   4.261  20.604  0.00  0.00    +0.000 A 
ATOM      9  C   UNL     1       1.727   3.115  21.181  0.00  0.00    +0.000 A 
ATOM     10 CL   UNL     1       0.785   2.236  22.321  0.00  0.00    +0.000 Cl
ATOM     11  C   UNL     1       3.003   2.670  20.837  0.00  0.00    +0.000 A 
ATOM     12  C   UNL     1       3.805   3.394  19.927  0.00  0.00    +0.000 A 
ATOM     13  C   UNL     1       5.173   2.851  19.617  0.00  0.00    +0.000 C 
ENDBRANCH   4   6
BRANCH   1  14
ATOM     14  C   UNL     1       5.476   5.425  15.028  0.00  0.00    +0.000 C 
BRANCH  14  15
ATOM     15  C   UNL     1       6.580   4.433  14.629  0.00  0.00    +0.000 C 
BRANCH  15  17
ATOM     16  C   UNL     1       6.619   3.683  12.354  0.00  0.00    +0.000 C 
ATOM     17  O   UNL     1       6.204   3.427  13.689  0.00  0.00    +0.000 OA
ENDBRANCH  15  17
ENDBRANCH  14  15
ENDBRANCH   1  14
BRANCH   1  18
ATOM     18  C   UNL     1       5.911   7.002  16.946  0.00  0.00    +0.000 C 
BRANCH  18  19
ATOM     19  C   UNL     1       7.397   6.952  17.363  0.00  0.00    +0.000 C 
ATOM     20  C   UNL     1       7.949   8.332  17.714  0.00  0.00    +0.000 C 
ATOM     21  C   UNL     1       7.589   6.013  18.560  0.00  0.00    +0.000 C 
ENDBRANCH  18  19
ENDBRANCH   1  18
TORSDOF 6
ENDMDL
MODEL 5
REMARK VINA RESULT:      -6.3      3.511      5.382
REMARK  Name = 
REMARK  10 active torsions:
REMARK  status: ('A' for Active; 'I' for Inactive)
REMARK    1  A    between atoms: C_1  and  O_2
REMARK    2  A    between atoms: O_2  and  C_3
REMARK    3  A    between atoms: C_3  and  C_4
REMARK    4  A    between atoms: C_4  and  N_5
REMARK    5  A    between atoms: N_5  and  C_6
REMARK    6  A    between atoms: C_6  and  C_7
REMARK    7  A    between atoms: C_7  and  C_8
REMARK    8  A    between atoms: C_7  and  C_9
REMARK    9  A    between atoms: N_12  and  C_13
REMARK   10  A    between atoms: C_19  and  C_20
REMARK                            x       y       z     vdW  Elec       q    Type
REMARK                         _______ _______ _______ _____ _____    ______ ____
ROOT
ATOM      1  N   UNL     1       3.748   4.749  19.139  0.00  0.00    +0.000 N 
ATOM      2  C   UNL     1       2.672   5.642  19.213  0.00  0.00    +0.000 C 
ATOM      3  O   UNL     1       1.545   5.284  18.874  0.00  0.00    +0.000 OA
ATOM      4  N   UNL     1       2.953   6.922  19.649  0.00  0.00    +0.000 N 
ATOM      5  H   UNL     1       3.905   7.232  19.555  0.00  0.00    +0.000 HD
ENDROOT
BRANCH   4   6
ATOM      6  C   UNL     1       1.976   7.912  19.947  0.00  0.00    +0.000 A 
ATOM      7  C   UNL     1       1.352   7.962  21.206  0.00  0.00    +0.000 A 
ATOM      8  C   UNL     1       0.357   8.898  21.503  0.00  0.00    +0.000 A 
ATOM      9  C   UNL     1      -0.000   9.831  20.547  0.00  0.00    +0.000 A 
ATOM     10 CL   UNL     1      -1.226  10.986  20.899  0.00  0.00    +0.000 Cl
ATOM     11  C   UNL     1       0.632   9.838  19.305  0.00  0.00    +0.000 A 
ATOM     12  C   UNL     1       1.618   8.880  18.985  0.00  0.00    +0.000 A 
ATOM     13  C   UNL     1       2.245   8.952  17.620  0.00  0.00    +0.000 C 
ENDBRANCH   4   6
BRANCH   1  14
ATOM     14  C   UNL     1       3.456   3.472  18.450  0.00  0.00    +0.000 C 
BRANCH  14  15
ATOM     15  C   UNL     1       3.213   2.240  19.334  0.00  0.00    +0.000 C 
BRANCH  15  17
ATOM     16  C   UNL     1       1.679   2.604  21.139  0.00  0.00    +0.000 C 
ATOM     17  O   UNL     1       1.884   2.083  19.832  0.00  0.00    +0.000 OA
ENDBRANCH  15  17
ENDBRANCH  14  15
ENDBRANCH   1  14
BRANCH   1  18
ATOM     18  C   UNL     1       5.164   5.081  19.371  0.00  0.00    +0.000 C 
BRANCH  18  19
ATOM     19  C   UNL     1       6.040   5.218  18.107  0.00  0.00    +0.000 C 
ATOM     20  C   UNL     1       5.580   6.359  17.202  0.00  0.00    +0.000 C 
ATOM     21  C   UNL     1       7.508   5.439  18.491  0.00  0.00    +0.000 C 
ENDBRANCH  18  19
ENDBRANCH   1  18
TORSDOF 6
ENDMDL
MODEL 6
REMARK VINA RESULT:      -6.3      3.476      5.080
REMARK  Name = 
REMARK  10 active torsions:
REMARK  status: ('A' for Active; 'I' for Inactive)
REMARK    1  A    between atoms: C_1  and  O_2
REMARK    2  A    between atoms: O_2  and  C_3
REMARK    3  A    between atoms: C_3  and  C_4
REMARK    4  A    between atoms: C_4  and  N_5
REMARK    5  A    between atoms: N_5  and  C_6
REMARK    6  A    between atoms: C_6  and  C_7
REMARK    7  A    between atoms: C_7  and  C_8
REMARK    8  A    between atoms: C_7  and  C_9
REMARK    9  A    between atoms: N_12  and  C_13
REMARK   10  A    between atoms: C_19  and  C_20
REMARK                            x       y       z     vdW  Elec       q    Type
REMARK                         _______ _______ _______ _____ _____    ______ ____
ROOT
ATOM      1  N   UNL     1       3.936   4.600  18.161  0.00  0.00    +0.000 N 
ATOM      2  C   UNL     1       2.934   5.577  18.125  0.00  0.00    +0.000 C 
ATOM      3  O   UNL     1       1.825   5.311  17.664  0.00  0.00    +0.000 OA
ATOM      4  N   UNL     1       3.269   6.831  18.598  0.00  0.00    +0.000 N 
ATOM      5  H   UNL     1       4.248   7.063  18.609  0.00  0.00    +0.000 HD
ENDROOT
BRANCH   4   6
ATOM      6  C   UNL     1       2.349   7.898  18.796  0.00  0.00    +0.000 A 
ATOM      7  C   UNL     1       2.145   8.876  17.807  0.00  0.00    +0.000 A 
ATOM      8  C   UNL     1       1.280   9.957  18.001  0.00  0.00    +0.000 A 
ATOM      9  C   UNL     1       0.569  10.049  19.183  0.00  0.00    +0.000 A 
ATOM     10 CL   UNL     1      -0.498  11.376  19.435  0.00  0.00    +0.000 Cl
ATOM     11  C   UNL     1       0.712   9.070  20.165  0.00  0.00    +0.000 A 
ATOM     12  C   UNL     1       1.605   7.990  19.991  0.00  0.00    +0.000 A 
ATOM     13  C   UNL     1       1.706   6.982  21.103  0.00  0.00    +0.000 C 
ENDBRANCH   4   6
BRANCH   1  14
ATOM     14  C   UNL     1       3.617   3.350  17.436  0.00  0.00    +0.000 C 
BRANCH  14  15
ATOM     15  C   UNL     1       3.401   2.086  18.282  0.00  0.00    +0.000 C 
BRANCH  15  17
ATOM     16  C   UNL     1       1.087   2.243  18.881  0.00  0.00    +0.000 C 
ATOM     17  O   UNL     1       2.435   2.193  19.327  0.00  0.00    +0.000 OA
ENDBRANCH  15  17
ENDBRANCH  14  15
ENDBRANCH   1  14
BRANCH   1  18
ATOM     18  C   UNL     1       5.340   4.816  18.546  0.00  0.00    +0.000 C 
BRANCH  18  19
ATOM     19  C   UNL     1       6.307   5.175  17.396  0.00  0.00    +0.000 C 
ATOM     20  C   UNL     1       6.490   6.683  17.240  0.00  0.00    +0.000 C 
ATOM     21  C   UNL     1       7.676   4.521  17.621  0.00  0.00    +0.000 C 
ENDBRANCH  18  19
ENDBRANCH   1  18
TORSDOF 6
ENDMDL
MODEL 7
REMARK VINA RESULT:      -6.2      0.881      1.276
REMARK  Name = 
REMARK  10 active torsions:
REMARK  status: ('A' for Active; 'I' for Inactive)
REMARK    1  A    between atoms: C_1  and  O_2
REMARK    2  A    between atoms: O_2  and  C_3
REMARK    3  A    between atoms: C_3  and  C_4
REMARK    4  A    between atoms: C_4  and  N_5
REMARK    5  A    between atoms: N_5  and  C_6
REMARK    6  A    between atoms: C_6  and  C_7
REMARK    7  A    between atoms: C_7  and  C_8
REMARK    8  A    between atoms: C_7  and  C_9
REMARK    9  A    between atoms: N_12  and  C_13
REMARK   10  A    between atoms: C_19  and  C_20
REMARK                            x       y       z     vdW  Elec       q    Type
REMARK                         _______ _______ _______ _____ _____    ______ ____
ROOT
ATOM      1  N   UNL     1       6.043   4.856  16.248  0.00  0.00    +0.000 N 
ATOM      2  C   UNL     1       4.940   4.490  17.028  0.00  0.00    +0.000 C 
ATOM      3  O   UNL     1       3.886   4.152  16.491  0.00  0.00    +0.000 OA
ATOM      4  N   UNL     1       5.095   4.559  18.399  0.00  0.00    +0.000 N 
ATOM      5  H   UNL     1       5.818   5.167  18.742  0.00  0.00    +0.000 HD
ENDROOT
BRANCH   4   6
ATOM      6  C   UNL     1       4.153   4.073  19.349  0.00  0.00    +0.000 A 
ATOM      7  C   UNL     1       4.234   2.762  19.848  0.00  0.00    +0.000 A 
ATOM      8  C   UNL     1       3.293   2.251  20.746  0.00  0.00    +0.000 A 
ATOM      9  C   UNL     1       2.272   3.069  21.192  0.00  0.00    +0.000 A 
ATOM     10 CL   UNL     1       1.105   2.452  22.297  0.00  0.00    +0.000 Cl
ATOM     11  C   UNL     1       2.190   4.390  20.754  0.00  0.00    +0.000 A 
ATOM     12  C   UNL     1       3.119   4.907  19.825  0.00  0.00    +0.000 A 
ATOM     13  C   UNL     1       2.955   6.339  19.396  0.00  0.00    +0.000 C 
ENDBRANCH   4   6
BRANCH   1  14
ATOM     14  C   UNL     1       5.768   4.996  14.801  0.00  0.00    +0.000 C 
BRANCH  14  15
ATOM     15  C   UNL     1       6.205   3.839  13.890  0.00  0.00    +0.000 C 
BRANCH  15  17
ATOM     16  C   UNL     1       7.894   5.239  12.928  0.00  0.00    +0.000 C 
ATOM     17  O   UNL     1       6.938   4.208  12.723  0.00  0.00    +0.000 OA
ENDBRANCH  15  17
ENDBRANCH  14  15
ENDBRANCH   1  14
BRANCH   1  18
ATOM     18  C   UNL     1       7.309   5.416  16.751  0.00  0.00    +0.000 C 
BRANCH  18  19
ATOM     19  C   UNL     1       7.181   6.453  17.889  0.00  0.00    +0.000 C 
ATOM     20  C   UNL     1       7.970   6.050  19.133  0.00  0.00    +0.000 C 
ATOM     21  C   UNL     1       7.656   7.832  17.415  0.00  0.00    +0.000 C 
ENDBRANCH  18  19
ENDBRANCH   1  18
TORSDOF 6
ENDMDL
MODEL 8
REMARK VINA RESULT:      -6.2      0.912      1.116
REMARK  Name = 
REMARK  10 active torsions:
REMARK  status: ('A' for Active; 'I' for Inactive)
REMARK    1  A    between atoms: C_1  and  O_2
REMARK    2  A    between atoms: O_2  and  C_3
REMARK    3  A    between atoms: C_3  and  C_4
REMARK    4  A    between atoms: C_4  and  N_5
REMARK    5  A    between atoms: N_5  and  C_6
REMARK    6  A    between atoms: C_6  and  C_7
REMARK    7  A    between atoms: C_7  and  C_8
REMARK    8  A    between atoms: C_7  and  C_9
REMARK    9  A    between atoms: N_12  and  C_13
REMARK   10  A    between atoms: C_19  and  C_20
REMARK                            x       y       z     vdW  Elec       q    Type
REMARK                         _______ _______ _______ _____ _____    ______ ____
ROOT
ATOM      1  N   UNL     1       5.955   4.404  16.307  0.00  0.00    +0.000 N 
ATOM      2  C   UNL     1       4.846   4.128  17.116  0.00  0.00    +0.000 C 
ATOM      3  O   UNL     1       3.766   3.829  16.606  0.00  0.00    +0.000 OA
ATOM      4  N   UNL     1       5.026   4.238  18.481  0.00  0.00    +0.000 N 
ATOM      5  H   UNL     1       5.787   4.818  18.791  0.00  0.00    +0.000 HD
ENDROOT
BRANCH   4   6
ATOM      6  C   UNL     1       4.075   3.840  19.461  0.00  0.00    +0.000 A 
ATOM      7  C   UNL     1       4.093   2.545  20.008  0.00  0.00    +0.000 A 
ATOM      8  C   UNL     1       3.139   2.120  20.938  0.00  0.00    +0.000 A 
ATOM      9  C   UNL     1       2.171   3.009  21.367  0.00  0.00    +0.000 A 
ATOM     10 CL   UNL     1       0.991   2.498  22.510  0.00  0.00    +0.000 Cl
ATOM     11  C   UNL     1       2.155   4.316  20.881  0.00  0.00    +0.000 A 
ATOM     12  C   UNL     1       3.096   4.746  19.920  0.00  0.00    +0.000 A 
ATOM     13  C   UNL     1       3.003   6.168  19.440  0.00  0.00    +0.000 C 
ENDBRANCH   4   6
BRANCH   1  14
ATOM     14  C   UNL     1       5.664   4.506  14.860  0.00  0.00    +0.000 C 
BRANCH  14  15
ATOM     15  C   UNL     1       6.868   4.561  13.907  0.00  0.00    +0.000 C 
BRANCH  15  17
ATOM     16  C   UNL     1       5.448   3.362  12.395  0.00  0.00    +0.000 C 
ATOM     17  O   UNL     1       6.772   3.753  12.735  0.00  0.00    +0.000 OA
ENDBRANCH  15  17
ENDBRANCH  14  15
ENDBRANCH   1  14
BRANCH   1  18
ATOM     18  C   UNL     1       7.257   4.911  16.771  0.00  0.00    +0.000 C 
BRANCH  18  19
ATOM     19  C   UNL     1       7.302   6.410  17.142  0.00  0.00    +0.000 C 
ATOM     20  C   UNL     1       5.935   7.080  17.021  0.00  0.00    +0.000 C 
ATOM     21  C   UNL     1       7.829   6.594  18.571  0.00  0.00    +0.000 C 
ENDBRANCH  18  19
ENDBRANCH   1  18
TORSDOF 6
ENDMDL
MODEL 9
REMARK VINA RESULT:      -6.2      3.524      5.393
REMARK  Name = 
REMARK  10 active torsions:
REMARK  status: ('A' for Active; 'I' for Inactive)
REMARK    1  A    between atoms: C_1  and  O_2
REMARK    2  A    between atoms: O_2  and  C_3
REMARK    3  A    between atoms: C_3  and  C_4
REMARK    4  A    between atoms: C_4  and  N_5
REMARK    5  A    between atoms: N_5  and  C_6
REMARK    6  A    between atoms: C_6  and  C_7
REMARK    7  A    between atoms: C_7  and  C_8
REMARK    8  A    between atoms: C_7  and  C_9
REMARK    9  A    between atoms: N_12  and  C_13
REMARK   10  A    between atoms: C_19  and  C_20
REMARK                            x       y       z     vdW  Elec       q    Type
REMARK                         _______ _______ _______ _____ _____    ______ ____
ROOT
ATOM      1  N   UNL     1       3.189   5.814  18.945  0.00  0.00    +0.000 N 
ATOM      2  C   UNL     1       2.222   6.447  19.735  0.00  0.00    +0.000 C 
ATOM      3  O   UNL     1       1.514   5.787  20.494  0.00  0.00    +0.000 OA
ATOM      4  N   UNL     1       2.097   7.815  19.590  0.00  0.00    +0.000 N 
ATOM      5  H   UNL     1       2.431   8.211  18.728  0.00  0.00    +0.000 HD
ENDROOT
BRANCH   4   6
ATOM      6  C   UNL     1       1.295   8.649  20.418  0.00  0.00    +0.000 A 
ATOM      7  C   UNL     1       1.345   8.548  21.819  0.00  0.00    +0.000 A 
ATOM      8  C   UNL     1       0.531   9.326  22.648  0.00  0.00    +0.000 A 
ATOM      9  C   UNL     1      -0.321  10.255  22.080  0.00  0.00    +0.000 A 
ATOM     10 CL   UNL     1      -1.328  11.217  23.089  0.00  0.00    +0.000 Cl
ATOM     11  C   UNL     1      -0.360  10.414  20.695  0.00  0.00    +0.000 A 
ATOM     12  C   UNL     1       0.436   9.613  19.848  0.00  0.00    +0.000 A 
ATOM     13  C   UNL     1       0.327   9.843  18.365  0.00  0.00    +0.000 C 
ENDBRANCH   4   6
BRANCH   1  14
ATOM     14  C   UNL     1       3.134   4.336  18.952  0.00  0.00    +0.000 C 
BRANCH  14  15
ATOM     15  C   UNL     1       2.190   3.666  17.942  0.00  0.00    +0.000 C 
BRANCH  15  17
ATOM     16  C   UNL     1       3.509   1.723  18.417  0.00  0.00    +0.000 C 
ATOM     17  O   UNL     1       2.379   2.265  17.746  0.00  0.00    +0.000 OA
ENDBRANCH  15  17
ENDBRANCH  14  15
ENDBRANCH   1  14
BRANCH   1  18
ATOM     18  C   UNL     1       4.000   6.454  17.895  0.00  0.00    +0.000 C 
BRANCH  18  19
ATOM     19  C   UNL     1       5.177   5.616  17.349  0.00  0.00    +0.000 C 
ATOM     20  C   UNL     1       5.314   5.725  15.832  0.00  0.00    +0.000 C 
ATOM     21  C   UNL     1       6.494   6.048  18.006  0.00  0.00    +0.000 C 
ENDBRANCH  18  19
ENDBRANCH   1  18
TORSDOF 6
ENDMDL
