MODEL 1
REMARK VINA RESULT:      -6.9      0.000      0.000
REMARK  Name = 
REMARK  7 active torsions:
REMARK  status: ('A' for Active; 'I' for Inactive)
REMARK    1  A    between atoms: C_1  and  C_2
REMARK    2  A    between atoms: C_2  and  C_3
REMARK    3  A    between atoms: C_3  and  C_4
REMARK    4  A    between atoms: N_14  and  C_15
REMARK    5  A    between atoms: C_15  and  C_16
REMARK    6  A    between atoms: N_18  and  C_19
REMARK    7  A    between atoms: N_18  and  C_20
REMARK                            x       y       z     vdW  Elec       q    Type
REMARK                         _______ _______ _______ _____ _____    ______ ____
ROOT
ATOM      1  C   UNL     1       0.485   9.597  20.640  0.00  0.00    +0.000 C 
ATOM      2  N   UNL     1       1.321  10.613  21.254  0.00  0.00    +0.000 N 
ATOM      3  C   UNL     1       1.047  11.874  20.777  0.00  0.00    +0.000 C 
ATOM      4  O   UNL     1       1.766  12.840  20.966  0.00  0.00    +0.000 OA
ATOM      5  N   UNL     1      -0.067  11.817  20.011  0.00  0.00    +0.000 N 
ATOM      6  C   UNL     1      -0.441  10.519  19.808  0.00  0.00    +0.000 C 
ATOM      7  O   UNL     1      -1.349  10.158  19.068  0.00  0.00    +0.000 OA
ATOM      8  H   UNL     1       2.221  10.440  21.679  0.00  0.00    +0.000 HD
ENDROOT
BRANCH   1   9
ATOM      9  C   UNL     1       1.369   8.661  19.804  0.00  0.00    +0.000 A 
ATOM     10  C   UNL     1       1.831   7.420  20.282  0.00  0.00    +0.000 A 
ATOM     11  C   UNL     1       2.627   6.590  19.485  0.00  0.00    +0.000 A 
ATOM     12  C   UNL     1       2.970   6.990  18.202  0.00  0.00    +0.000 A 
ATOM     13  F   UNL     1       3.733   6.194  17.443  0.00  0.00    +0.000 F 
ATOM     14  C   UNL     1       2.531   8.204  17.697  0.00  0.00    +0.000 A 
ATOM     15  C   UNL     1       1.735   9.034  18.491  0.00  0.00    +0.000 A 
ENDBRANCH   1   9
BRANCH   1  17
ATOM     16  C   UNL     1      -0.434   9.466  23.062  0.00  0.00    +0.000 C 
ATOM     17  C   UNL     1      -0.353   8.819  21.680  0.00  0.00    +0.000 C 
ENDBRANCH   1  17
BRANCH   5  18
ATOM     18  C   UNL     1      -0.624  12.922  19.269  0.00  0.00    +0.000 C 
BRANCH  18  19
ATOM     19  C   UNL     1      -1.256  13.946  20.220  0.00  0.00    +0.000 C 
ATOM     20  O   UNL     1      -0.608  14.888  20.687  0.00  0.00    +0.000 OA
ATOM     21  N   UNL     1      -2.605  13.731  20.569  0.00  0.00    +0.000 N 
ATOM     22  C   UNL     1      -3.410  12.698  19.914  0.00  0.00    +0.000 C 
BRANCH  21  23
ATOM     23  C   UNL     1      -3.075  14.381  21.818  0.00  0.00    +0.000 C 
ATOM     24  C   UNL     1      -2.542  13.642  23.067  0.00  0.00    +0.000 C 
ATOM     25  C   UNL     1      -3.422  12.415  23.250  0.00  0.00    +0.000 C 
ATOM     26  S   UNL     1      -5.068  13.002  22.901  0.00  0.00    +0.000 S 
ATOM     27  O   UNL     1      -5.697  13.381  24.150  0.00  0.00    +0.000 OA
ATOM     28  O   UNL     1      -5.703  12.097  21.966  0.00  0.00    +0.000 OA
ATOM     29  C   UNL     1      -4.590  14.491  22.034  0.00  0.00    +0.000 C 
ENDBRANCH  21  23
ENDBRANCH  18  19
ENDBRANCH   5  18
TORSDOF 5
ENDMDL
MODEL 2
REMARK VINA RESULT:      -6.7      0.961      1.354
REMARK  Name = 
REMARK  7 active torsions:
REMARK  status: ('A' for Active; 'I' for Inactive)
REMARK    1  A    between atoms: C_1  and  C_2
REMARK    2  A    between atoms: C_2  and  C_3
REMARK    3  A    between atoms: C_3  and  C_4
REMARK    4  A    between atoms: N_14  and  C_15
REMARK    5  A    between atoms: C_15  and  C_16
REMARK    6  A    between atoms: N_18  and  C_19
REMARK    7  A    between atoms: N_18  and  C_20
REMARK                            x       y       z     vdW  Elec       q    Type
REMARK                         _______ _______ _______ _____ _____    ______ ____
ROOT
ATOM      1  C   UNL     1       0.474   9.683  20.493  0.00  0.00    +0.000 C 
ATOM      2  N   UNL     1       1.310  10.747  21.018  0.00  0.00    +0.000 N 
ATOM      3  C   UNL     1       1.015  11.968  20.458  0.00  0.00    +0.000 C 
ATOM      4  O   UNL     1       1.727  12.952  20.564  0.00  0.00    +0.000 OA
ATOM      5  N   UNL     1      -0.112  11.847  19.718  0.00  0.00    +0.000 N 
ATOM      6  C   UNL     1      -0.476  10.534  19.615  0.00  0.00    +0.000 C 
ATOM      7  O   UNL     1      -1.393  10.113  18.919  0.00  0.00    +0.000 OA
ATOM      8  H   UNL     1       2.219  10.613  21.438  0.00  0.00    +0.000 HD
ENDROOT
BRANCH   1   9
ATOM      9  C   UNL     1       1.353   8.698  19.709  0.00  0.00    +0.000 A 
ATOM     10  C   UNL     1       1.806   8.955  18.401  0.00  0.00    +0.000 A 
ATOM     11  C   UNL     1       2.616   8.037  17.723  0.00  0.00    +0.000 A 
ATOM     12  C   UNL     1       2.982   6.852  18.344  0.00  0.00    +0.000 A 
ATOM     13  F   UNL     1       3.755   5.975  17.691  0.00  0.00    +0.000 F 
ATOM     14  C   UNL     1       2.557   6.567  19.632  0.00  0.00    +0.000 A 
ATOM     15  C   UNL     1       1.749   7.483  20.311  0.00  0.00    +0.000 A 
ENDBRANCH   1   9
BRANCH   1  17
ATOM     16  C   UNL     1      -0.203   9.583  22.995  0.00  0.00    +0.000 C 
ATOM     17  C   UNL     1      -0.337   8.973  21.601  0.00  0.00    +0.000 C 
ENDBRANCH   1  17
BRANCH   5  18
ATOM     18  C   UNL     1      -0.693  12.891  18.910  0.00  0.00    +0.000 C 
BRANCH  18  19
ATOM     19  C   UNL     1      -1.106  14.083  19.783  0.00  0.00    +0.000 C 
ATOM     20  O   UNL     1      -0.400  15.090  19.886  0.00  0.00    +0.000 OA
ATOM     21  N   UNL     1      -2.313  13.949  20.500  0.00  0.00    +0.000 N 
ATOM     22  C   UNL     1      -3.214  12.817  20.275  0.00  0.00    +0.000 C 
BRANCH  21  23
ATOM     23  C   UNL     1      -2.478  14.828  21.683  0.00  0.00    +0.000 C 
ATOM     24  C   UNL     1      -1.277  14.700  22.647  0.00  0.00    +0.000 C 
ATOM     25  C   UNL     1      -1.494  13.419  23.437  0.00  0.00    +0.000 C 
ATOM     26  S   UNL     1      -3.239  13.419  23.800  0.00  0.00    +0.000 S 
ATOM     27  O   UNL     1      -3.436  14.012  25.108  0.00  0.00    +0.000 OA
ATOM     28  O   UNL     1      -3.793  12.128  23.450  0.00  0.00    +0.000 OA
ATOM     29  C   UNL     1      -3.720  14.613  22.559  0.00  0.00    +0.000 C 
ENDBRANCH  21  23
ENDBRANCH  18  19
ENDBRANCH   5  18
TORSDOF 5
ENDMDL
MODEL 3
REMARK VINA RESULT:      -6.7      2.833      4.798
REMARK  Name = 
REMARK  7 active torsions:
REMARK  status: ('A' for Active; 'I' for Inactive)
REMARK    1  A    between atoms: C_1  and  C_2
REMARK    2  A    between atoms: C_2  and  C_3
REMARK    3  A    between atoms: C_3  and  C_4
REMARK    4  A    between atoms: N_14  and  C_15
REMARK    5  A    between atoms: C_15  and  C_16
REMARK    6  A    between atoms: N_18  and  C_19
REMARK    7  A    between atoms: N_18  and  C_20
REMARK                            x       y       z     vdW  Elec       q    Type
REMARK                         _______ _______ _______ _____ _____    ______ ____
ROOT
ATOM      1  C   UNL     1       2.634   6.091  18.380  0.00  0.00    +0.000 C 
ATOM      2  N   UNL     1       2.255   6.162  19.779  0.00  0.00    +0.000 N 
ATOM      3  C   UNL     1       1.990   7.449  20.185  0.00  0.00    +0.000 C 
ATOM      4  O   UNL     1       1.884   7.783  21.353  0.00  0.00    +0.000 OA
ATOM      5  N   UNL     1       1.972   8.254  19.097  0.00  0.00    +0.000 N 
ATOM      6  C   UNL     1       2.404   7.573  17.994  0.00  0.00    +0.000 C 
ATOM      7  O   UNL     1       2.594   8.073  16.891  0.00  0.00    +0.000 OA
ATOM      8  H   UNL     1       2.496   5.473  20.478  0.00  0.00    +0.000 HD
ENDROOT
BRANCH   1   9
ATOM      9  C   UNL     1       4.095   5.628  18.281  0.00  0.00    +0.000 A 
ATOM     10  C   UNL     1       4.954   5.573  19.396  0.00  0.00    +0.000 A 
ATOM     11  C   UNL     1       6.277   5.134  19.268  0.00  0.00    +0.000 A 
ATOM     12  C   UNL     1       6.756   4.746  18.025  0.00  0.00    +0.000 A 
ATOM     13  F   UNL     1       8.023   4.328  17.906  0.00  0.00    +0.000 F 
ATOM     14  C   UNL     1       5.938   4.784  16.907  0.00  0.00    +0.000 A 
ATOM     15  C   UNL     1       4.616   5.221  17.033  0.00  0.00    +0.000 A 
ENDBRANCH   1   9
BRANCH   1  17
ATOM     16  C   UNL     1       1.374   3.832  18.195  0.00  0.00    +0.000 C 
ATOM     17  C   UNL     1       1.688   5.186  17.561  0.00  0.00    +0.000 C 
ENDBRANCH   1  17
BRANCH   5  18
ATOM     18  C   UNL     1       1.809   9.687  19.124  0.00  0.00    +0.000 C 
BRANCH  18  19
ATOM     19  C   UNL     1       0.332  10.064  18.951  0.00  0.00    +0.000 C 
ATOM     20  O   UNL     1      -0.289   9.803  17.917  0.00  0.00    +0.000 OA
ATOM     21  N   UNL     1      -0.266  10.767  20.018  0.00  0.00    +0.000 N 
ATOM     22  C   UNL     1       0.428  10.958  21.293  0.00  0.00    +0.000 C 
BRANCH  21  23
ATOM     23  C   UNL     1      -1.483  11.550  19.690  0.00  0.00    +0.000 C 
ATOM     24  C   UNL     1      -1.208  12.565  18.557  0.00  0.00    +0.000 C 
ATOM     25  C   UNL     1      -0.494  13.744  19.200  0.00  0.00    +0.000 C 
ATOM     26  S   UNL     1      -1.347  13.982  20.747  0.00  0.00    +0.000 S 
ATOM     27  O   UNL     1      -2.380  14.980  20.554  0.00  0.00    +0.000 OA
ATOM     28  O   UNL     1      -0.372  14.081  21.812  0.00  0.00    +0.000 OA
ATOM     29  C   UNL     1      -2.122  12.372  20.818  0.00  0.00    +0.000 C 
ENDBRANCH  21  23
ENDBRANCH  18  19
ENDBRANCH   5  18
TORSDOF 5
ENDMDL
MODEL 4
REMARK VINA RESULT:      -6.7      5.074      8.830
REMARK  Name = 
REMARK  7 active torsions:
REMARK  status: ('A' for Active; 'I' for Inactive)
REMARK    1  A    between atoms: C_1  and  C_2
REMARK    2  A    between atoms: C_2  and  C_3
REMARK    3  A    between atoms: C_3  and  C_4
REMARK    4  A    between atoms: N_14  and  C_15
REMARK    5  A    between atoms: C_15  and  C_16
REMARK    6  A    between atoms: N_18  and  C_19
REMARK    7  A    between atoms: N_18  and  C_20
REMARK                            x       y       z     vdW  Elec       q    Type
REMARK                         _______ _______ _______ _____ _____    ______ ____
ROOT
ATOM      1  C   UNL     1       0.235  10.462  19.143  0.00  0.00    +0.000 C 
ATOM      2  N   UNL     1       0.824  10.055  17.881  0.00  0.00    +0.000 N 
ATOM      3  C   UNL     1       1.746   9.045  18.036  0.00  0.00    +0.000 C 
ATOM      4  O   UNL     1       2.530   8.705  17.166  0.00  0.00    +0.000 OA
ATOM      5  N   UNL     1       1.686   8.593  19.309  0.00  0.00    +0.000 N 
ATOM      6  C   UNL     1       0.881   9.398  20.064  0.00  0.00    +0.000 C 
ATOM      7  O   UNL     1       0.724   9.296  21.276  0.00  0.00    +0.000 OA
ATOM      8  H   UNL     1       0.872  10.631  17.052  0.00  0.00    +0.000 HD
ENDROOT
BRANCH   1   9
ATOM      9  C   UNL     1       0.656  11.908  19.447  0.00  0.00    +0.000 A 
ATOM     10  C   UNL     1       1.512  12.644  18.606  0.00  0.00    +0.000 A 
ATOM     11  C   UNL     1       1.864  13.964  18.911  0.00  0.00    +0.000 A 
ATOM     12  C   UNL     1       1.366  14.561  20.060  0.00  0.00    +0.000 A 
ATOM     13  F   UNL     1       1.707  15.823  20.350  0.00  0.00    +0.000 F 
ATOM     14  C   UNL     1       0.519  13.867  20.909  0.00  0.00    +0.000 A 
ATOM     15  C   UNL     1       0.165  12.550  20.605  0.00  0.00    +0.000 A 
ENDBRANCH   1   9
BRANCH   1  17
ATOM     16  C   UNL     1      -1.959  10.251  17.776  0.00  0.00    +0.000 C 
ATOM     17  C   UNL     1      -1.301  10.297  19.154  0.00  0.00    +0.000 C 
ENDBRANCH   1  17
BRANCH   5  18
ATOM     18  C   UNL     1       2.556   7.593  19.879  0.00  0.00    +0.000 C 
BRANCH  18  19
ATOM     19  C   UNL     1       1.838   6.240  19.966  0.00  0.00    +0.000 C 
ATOM     20  O   UNL     1       1.030   5.988  20.864  0.00  0.00    +0.000 OA
ATOM     21  N   UNL     1       2.185   5.281  18.992  0.00  0.00    +0.000 N 
ATOM     22  C   UNL     1       3.038   5.622  17.852  0.00  0.00    +0.000 C 
BRANCH  21  23
ATOM     23  C   UNL     1       1.900   3.864  19.331  0.00  0.00    +0.000 C 
ATOM     24  C   UNL     1       2.837   3.358  20.451  0.00  0.00    +0.000 C 
ATOM     25  C   UNL     1       4.169   3.043  19.788  0.00  0.00    +0.000 C 
ATOM     26  S   UNL     1       3.718   2.258  18.252  0.00  0.00    +0.000 S 
ATOM     27  O   UNL     1       3.714   0.823  18.452  0.00  0.00    +0.000 OA
ATOM     28  O   UNL     1       4.452   2.881  17.171  0.00  0.00    +0.000 OA
ATOM     29  C   UNL     1       2.024   2.827  18.206  0.00  0.00    +0.000 C 
ENDBRANCH  21  23
ENDBRANCH  18  19
ENDBRANCH   5  18
TORSDOF 5
ENDMDL
MODEL 5
REMARK VINA RESULT:      -6.7      4.965      8.709
REMARK  Name = 
REMARK  7 active torsions:
REMARK  status: ('A' for Active; 'I' for Inactive)
REMARK    1  A    between atoms: C_1  and  C_2
REMARK    2  A    between atoms: C_2  and  C_3
REMARK    3  A    between atoms: C_3  and  C_4
REMARK    4  A    between atoms: N_14  and  C_15
REMARK    5  A    between atoms: C_15  and  C_16
REMARK    6  A    between atoms: N_18  and  C_19
REMARK    7  A    between atoms: N_18  and  C_20
REMARK                            x       y       z     vdW  Elec       q    Type
REMARK                         _______ _______ _______ _____ _____    ______ ____
ROOT
ATOM      1  C   UNL     1      -0.607  10.477  18.993  0.00  0.00    +0.000 C 
ATOM      2  N   UNL     1       0.397  10.612  17.953  0.00  0.00    +0.000 N 
ATOM      3  C   UNL     1       1.510   9.841  18.198  0.00  0.00    +0.000 C 
ATOM      4  O   UNL     1       2.565   9.966  17.600  0.00  0.00    +0.000 OA
ATOM      5  N   UNL     1       1.254   9.027  19.248  0.00  0.00    +0.000 N 
ATOM      6  C   UNL     1       0.065   9.363  19.833  0.00  0.00    +0.000 C 
ATOM      7  O   UNL     1      -0.372   8.869  20.866  0.00  0.00    +0.000 OA
ATOM      8  H   UNL     1       0.484  11.405  17.334  0.00  0.00    +0.000 HD
ENDROOT
BRANCH   1   9
ATOM      9  C   UNL     1      -0.757  11.821  19.721  0.00  0.00    +0.000 A 
ATOM     10  C   UNL     1      -1.989  12.491  19.837  0.00  0.00    +0.000 A 
ATOM     11  C   UNL     1      -2.087  13.710  20.518  0.00  0.00    +0.000 A 
ATOM     12  C   UNL     1      -0.955  14.272  21.090  0.00  0.00    +0.000 A 
ATOM     13  F   UNL     1      -1.052  15.439  21.739  0.00  0.00    +0.000 F 
ATOM     14  C   UNL     1       0.274  13.638  20.998  0.00  0.00    +0.000 A 
ATOM     15  C   UNL     1       0.374  12.420  20.319  0.00  0.00    +0.000 A 
ENDBRANCH   1   9
BRANCH   1  17
ATOM     16  C   UNL     1      -2.122  10.078  16.926  0.00  0.00    +0.000 C 
ATOM     17  C   UNL     1      -1.958   9.969  18.441  0.00  0.00    +0.000 C 
ENDBRANCH   1  17
BRANCH   5  18
ATOM     18  C   UNL     1       2.205   8.130  19.857  0.00  0.00    +0.000 C 
BRANCH  18  19
ATOM     19  C   UNL     1       2.463   6.921  18.948  0.00  0.00    +0.000 C 
ATOM     20  O   UNL     1       2.881   7.052  17.794  0.00  0.00    +0.000 OA
ATOM     21  N   UNL     1       2.156   5.654  19.485  0.00  0.00    +0.000 N 
ATOM     22  C   UNL     1       1.791   5.487  20.893  0.00  0.00    +0.000 C 
BRANCH  21  23
ATOM     23  C   UNL     1       1.927   4.561  18.507  0.00  0.00    +0.000 C 
ATOM     24  C   UNL     1       1.163   3.383  19.153  0.00  0.00    +0.000 C 
ATOM     25  C   UNL     1       2.186   2.595  19.955  0.00  0.00    +0.000 C 
ATOM     26  S   UNL     1       3.632   2.567  18.913  0.00  0.00    +0.000 S 
ATOM     27  O   UNL     1       3.613   1.347  18.131  0.00  0.00    +0.000 OA
ATOM     28  O   UNL     1       4.784   2.960  19.696  0.00  0.00    +0.000 OA
ATOM     29  C   UNL     1       3.162   3.927  17.852  0.00  0.00    +0.000 C 
ENDBRANCH  21  23
ENDBRANCH  18  19
ENDBRANCH   5  18
TORSDOF 5
ENDMDL
MODEL 6
REMARK VINA RESULT:      -6.6      4.578      8.274
REMARK  Name = 
REMARK  7 active torsions:
REMARK  status: ('A' for Active; 'I' for Inactive)
REMARK    1  A    between atoms: C_1  and  C_2
REMARK    2  A    between atoms: C_2  and  C_3
REMARK    3  A    between atoms: C_3  and  C_4
REMARK    4  A    between atoms: N_14  and  C_15
REMARK    5  A    between atoms: C_15  and  C_16
REMARK    6  A    between atoms: N_18  and  C_19
REMARK    7  A    between atoms: N_18  and  C_20
REMARK                            x       y       z     vdW  Elec       q    Type
REMARK                         _______ _______ _______ _____ _____    ______ ____
ROOT
ATOM      1  C   UNL     1      -0.177  11.059  18.853  0.00  0.00    +0.000 C 
ATOM      2  N   UNL     1       0.442  10.360  17.742  0.00  0.00    +0.000 N 
ATOM      3  C   UNL     1       1.356   9.421  18.159  0.00  0.00    +0.000 C 
ATOM      4  O   UNL     1       2.161   8.883  17.417  0.00  0.00    +0.000 OA
ATOM      5  N   UNL     1       1.264   9.290  19.502  0.00  0.00    +0.000 N 
ATOM      6  C   UNL     1       0.443  10.251  20.020  0.00  0.00    +0.000 C 
ATOM      7  O   UNL     1       0.255  10.444  21.216  0.00  0.00    +0.000 OA
ATOM      8  H   UNL     1       0.512  10.720  16.800  0.00  0.00    +0.000 HD
ENDROOT
BRANCH   1   9
ATOM      9  C   UNL     1       0.241  12.536  18.809  0.00  0.00    +0.000 A 
ATOM     10  C   UNL     1      -0.683  13.593  18.919  0.00  0.00    +0.000 A 
ATOM     11  C   UNL     1      -0.262  14.927  18.886  0.00  0.00    +0.000 A 
ATOM     12  C   UNL     1       1.086  15.220  18.742  0.00  0.00    +0.000 A 
ATOM     13  F   UNL     1       1.485  16.498  18.709  0.00  0.00    +0.000 F 
ATOM     14  C   UNL     1       2.024  14.205  18.635  0.00  0.00    +0.000 A 
ATOM     15  C   UNL     1       1.605  12.872  18.669  0.00  0.00    +0.000 A 
ENDBRANCH   1   9
BRANCH   1  17
ATOM     16  C   UNL     1      -2.300  10.174  17.654  0.00  0.00    +0.000 C 
ATOM     17  C   UNL     1      -1.714  10.897  18.865  0.00  0.00    +0.000 C 
ENDBRANCH   1  17
BRANCH   5  18
ATOM     18  C   UNL     1       2.116   8.459  20.318  0.00  0.00    +0.000 C 
BRANCH  18  19
ATOM     19  C   UNL     1       1.475   7.084  20.543  0.00  0.00    +0.000 C 
ATOM     20  O   UNL     1       0.441   6.949  21.204  0.00  0.00    +0.000 OA
ATOM     21  N   UNL     1       2.153   5.977  19.994  0.00  0.00    +0.000 N 
ATOM     22  C   UNL     1       3.299   6.148  19.100  0.00  0.00    +0.000 C 
BRANCH  21  23
ATOM     23  C   UNL     1       1.847   4.654  20.593  0.00  0.00    +0.000 C 
ATOM     24  C   UNL     1       3.124   3.793  20.727  0.00  0.00    +0.000 C 
ATOM     25  C   UNL     1       3.404   3.221  19.346  0.00  0.00    +0.000 C 
ATOM     26  S   UNL     1       1.796   2.768  18.725  0.00  0.00    +0.000 S 
ATOM     27  O   UNL     1       1.563   1.370  19.028  0.00  0.00    +0.000 OA
ATOM     28  O   UNL     1       1.640   3.301  17.388  0.00  0.00    +0.000 OA
ATOM     29  C   UNL     1       0.836   3.760  19.861  0.00  0.00    +0.000 C 
ENDBRANCH  21  23
ENDBRANCH  18  19
ENDBRANCH   5  18
TORSDOF 5
ENDMDL
MODEL 7
REMARK VINA RESULT:      -6.6      4.233      8.165
REMARK  Name = 
REMARK  7 active torsions:
REMARK  status: ('A' for Active; 'I' for Inactive)
REMARK    1  A    between atoms: C_1  and  C_2
REMARK    2  A    between atoms: C_2  and  C_3
REMARK    3  A    between atoms: C_3  and  C_4
REMARK    4  A    between atoms: N_14  and  C_15
REMARK    5  A    between atoms: C_15  and  C_16
REMARK    6  A    between atoms: N_18  and  C_19
REMARK    7  A    between atoms: N_18  and  C_20
REMARK                            x       y       z     vdW  Elec       q    Type
REMARK                         _______ _______ _______ _____ _____    ______ ____
ROOT
ATOM      1  C   UNL     1      -0.903  12.249  20.745  0.00  0.00    +0.000 C 
ATOM      2  N   UNL     1      -1.647  11.447  19.791  0.00  0.00    +0.000 N 
ATOM      3  C   UNL     1      -0.840  10.570  19.104  0.00  0.00    +0.000 C 
ATOM      4  O   UNL     1      -1.191   9.969  18.103  0.00  0.00    +0.000 OA
ATOM      5  N   UNL     1       0.390  10.578  19.666  0.00  0.00    +0.000 N 
ATOM      6  C   UNL     1       0.484  11.577  20.594  0.00  0.00    +0.000 C 
ATOM      7  O   UNL     1       1.510  11.891  21.186  0.00  0.00    +0.000 OA
ATOM      8  H   UNL     1      -2.535  11.707  19.386  0.00  0.00    +0.000 HD
ENDROOT
BRANCH   1   9
ATOM      9  C   UNL     1      -0.949  13.720  20.303  0.00  0.00    +0.000 A 
ATOM     10  C   UNL     1      -1.737  14.687  20.955  0.00  0.00    +0.000 A 
ATOM     11  C   UNL     1      -1.743  16.020  20.530  0.00  0.00    +0.000 A 
ATOM     12  C   UNL     1      -0.963  16.401  19.449  0.00  0.00    +0.000 A 
ATOM     13  F   UNL     1      -0.973  17.678  19.043  0.00  0.00    +0.000 F 
ATOM     14  C   UNL     1      -0.172  15.477  18.785  0.00  0.00    +0.000 A 
ATOM     15  C   UNL     1      -0.164  14.145  19.209  0.00  0.00    +0.000 A 
ENDBRANCH   1   9
BRANCH   1  17
ATOM     16  C   UNL     1      -1.021  10.752  22.859  0.00  0.00    +0.000 C 
ATOM     17  C   UNL     1      -1.416  12.067  22.191  0.00  0.00    +0.000 C 
ENDBRANCH   1  17
BRANCH   5  18
ATOM     18  C   UNL     1       1.535   9.850  19.175  0.00  0.00    +0.000 C 
BRANCH  18  19
ATOM     19  C   UNL     1       1.565   8.433  19.761  0.00  0.00    +0.000 C 
ATOM     20  O   UNL     1       1.023   8.162  20.837  0.00  0.00    +0.000 OA
ATOM     21  N   UNL     1       2.282   7.465  19.029  0.00  0.00    +0.000 N 
ATOM     22  C   UNL     1       2.808   7.751  17.692  0.00  0.00    +0.000 C 
BRANCH  21  23
ATOM     23  C   UNL     1       2.734   6.269  19.783  0.00  0.00    +0.000 C 
ATOM     24  C   UNL     1       4.048   5.703  19.199  0.00  0.00    +0.000 C 
ATOM     25  C   UNL     1       3.661   4.908  17.962  0.00  0.00    +0.000 C 
ATOM     26  S   UNL     1       2.175   4.048  18.441  0.00  0.00    +0.000 S 
ATOM     27  O   UNL     1       2.540   2.729  18.920  0.00  0.00    +0.000 OA
ATOM     28  O   UNL     1       1.168   4.243  17.420  0.00  0.00    +0.000 OA
ATOM     29  C   UNL     1       1.777   5.071  19.852  0.00  0.00    +0.000 C 
ENDBRANCH  21  23
ENDBRANCH  18  19
ENDBRANCH   5  18
TORSDOF 5
ENDMDL
MODEL 8
REMARK VINA RESULT:      -6.6      4.916      8.656
REMARK  Name = 
REMARK  7 active torsions:
REMARK  status: ('A' for Active; 'I' for Inactive)
REMARK    1  A    between atoms: C_1  and  C_2
REMARK    2  A    between atoms: C_2  and  C_3
REMARK    3  A    between atoms: C_3  and  C_4
REMARK    4  A    between atoms: N_14  and  C_15
REMARK    5  A    between atoms: C_15  and  C_16
REMARK    6  A    between atoms: N_18  and  C_19
REMARK    7  A    between atoms: N_18  and  C_20
REMARK                            x       y       z     vdW  Elec       q    Type
REMARK                         _______ _______ _______ _____ _____    ______ ____
ROOT
ATOM      1  C   UNL     1      -0.842  10.612  19.271  0.00  0.00    +0.000 C 
ATOM      2  N   UNL     1       0.191  10.959  18.312  0.00  0.00    +0.000 N 
ATOM      3  C   UNL     1       1.346  10.236  18.504  0.00  0.00    +0.000 C 
ATOM      4  O   UNL     1       2.413  10.513  17.983  0.00  0.00    +0.000 OA
ATOM      5  N   UNL     1       1.106   9.267  19.417  0.00  0.00    +0.000 N 
ATOM      6  C   UNL     1      -0.126   9.437  19.982  0.00  0.00    +0.000 C 
ATOM      7  O   UNL     1      -0.569   8.775  20.914  0.00  0.00    +0.000 OA
ATOM      8  H   UNL     1       0.245  11.835  17.813  0.00  0.00    +0.000 HD
ENDROOT
BRANCH   1   9
ATOM      9  C   UNL     1      -1.118  11.827  20.169  0.00  0.00    +0.000 A 
ATOM     10  C   UNL     1      -0.402  12.075  21.355  0.00  0.00    +0.000 A 
ATOM     11  C   UNL     1      -0.674  13.200  22.142  0.00  0.00    +0.000 A 
ATOM     12  C   UNL     1      -1.665  14.089  21.752  0.00  0.00    +0.000 A 
ATOM     13  F   UNL     1      -1.925  15.163  22.508  0.00  0.00    +0.000 F 
ATOM     14  C   UNL     1      -2.388  13.878  20.588  0.00  0.00    +0.000 A 
ATOM     15  C   UNL     1      -2.116  12.756  19.801  0.00  0.00    +0.000 A 
ENDBRANCH   1   9
BRANCH   1  17
ATOM     16  C   UNL     1      -2.084  10.068  17.060  0.00  0.00    +0.000 C 
ATOM     17  C   UNL     1      -2.129  10.100  18.586  0.00  0.00    +0.000 C 
ENDBRANCH   1  17
BRANCH   5  18
ATOM     18  C   UNL     1       2.094   8.356  19.943  0.00  0.00    +0.000 C 
BRANCH  18  19
ATOM     19  C   UNL     1       2.403   7.249  18.927  0.00  0.00    +0.000 C 
ATOM     20  O   UNL     1       2.757   7.506  17.772  0.00  0.00    +0.000 OA
ATOM     21  N   UNL     1       2.217   5.922  19.366  0.00  0.00    +0.000 N 
ATOM     22  C   UNL     1       1.929   5.614  20.769  0.00  0.00    +0.000 C 
BRANCH  21  23
ATOM     23  C   UNL     1       2.029   4.898  18.309  0.00  0.00    +0.000 C 
ATOM     24  C   UNL     1       1.231   3.686  18.841  0.00  0.00    +0.000 C 
ATOM     25  C   UNL     1       2.213   2.839  19.635  0.00  0.00    +0.000 C 
ATOM     26  S   UNL     1       3.705   2.870  18.659  0.00  0.00    +0.000 S 
ATOM     27  O   UNL     1       3.716   1.704  17.799  0.00  0.00    +0.000 OA
ATOM     28  O   UNL     1       4.822   3.202  19.518  0.00  0.00    +0.000 OA
ATOM     29  C   UNL     1       3.289   4.299  17.670  0.00  0.00    +0.000 C 
ENDBRANCH  21  23
ENDBRANCH  18  19
ENDBRANCH   5  18
TORSDOF 5
ENDMDL
MODEL 9
REMARK VINA RESULT:      -6.5      4.748      7.439
REMARK  Name = 
REMARK  7 active torsions:
REMARK  status: ('A' for Active; 'I' for Inactive)
REMARK    1  A    between atoms: C_1  and  C_2
REMARK    2  A    between atoms: C_2  and  C_3
REMARK    3  A    between atoms: C_3  and  C_4
REMARK    4  A    between atoms: N_14  and  C_15
REMARK    5  A    between atoms: C_15  and  C_16
REMARK    6  A    between atoms: N_18  and  C_19
REMARK    7  A    between atoms: N_18  and  C_20
REMARK                            x       y       z     vdW  Elec       q    Type
REMARK                         _______ _______ _______ _____ _____    ______ ____
ROOT
ATOM      1  C   UNL     1       5.853   5.300  17.097  0.00  0.00    +0.000 C 
ATOM      2  N   UNL     1       5.750   6.748  17.139  0.00  0.00    +0.000 N 
ATOM      3  C   UNL     1       4.489   7.172  17.491  0.00  0.00    +0.000 C 
ATOM      4  O   UNL     1       4.102   8.321  17.366  0.00  0.00    +0.000 OA
ATOM      5  N   UNL     1       3.764   6.101  17.887  0.00  0.00    +0.000 N 
ATOM      6  C   UNL     1       4.445   4.943  17.633  0.00  0.00    +0.000 C 
ATOM      7  O   UNL     1       3.992   3.815  17.788  0.00  0.00    +0.000 OA
ATOM      8  H   UNL     1       6.354   7.385  16.639  0.00  0.00    +0.000 HD
ENDROOT
BRANCH   1   9
ATOM      9  C   UNL     1       6.114   4.861  15.649  0.00  0.00    +0.000 A 
ATOM     10  C   UNL     1       5.183   4.116  14.900  0.00  0.00    +0.000 A 
ATOM     11  C   UNL     1       5.452   3.744  13.578  0.00  0.00    +0.000 A 
ATOM     12  C   UNL     1       6.654   4.110  12.991  0.00  0.00    +0.000 A 
ATOM     13  F   UNL     1       6.909   3.750  11.726  0.00  0.00    +0.000 F 
ATOM     14  C   UNL     1       7.593   4.846  13.697  0.00  0.00    +0.000 A 
ATOM     15  C   UNL     1       7.325   5.220  15.017  0.00  0.00    +0.000 A 
ENDBRANCH   1   9
BRANCH   1  17
ATOM     16  C   UNL     1       7.682   5.827  18.859  0.00  0.00    +0.000 C 
ATOM     17  C   UNL     1       6.931   4.761  18.064  0.00  0.00    +0.000 C 
ENDBRANCH   1  17
BRANCH   5  18
ATOM     18  C   UNL     1       2.369   6.129  18.253  0.00  0.00    +0.000 C 
BRANCH  18  19
ATOM     19  C   UNL     1       2.208   6.465  19.741  0.00  0.00    +0.000 C 
ATOM     20  O   UNL     1       2.463   5.642  20.625  0.00  0.00    +0.000 OA
ATOM     21  N   UNL     1       1.710   7.749  20.045  0.00  0.00    +0.000 N 
ATOM     22  C   UNL     1       1.536   8.768  19.008  0.00  0.00    +0.000 C 
BRANCH  21  23
ATOM     23  C   UNL     1       1.096   7.917  21.385  0.00  0.00    +0.000 C 
ATOM     24  C   UNL     1      -0.434   8.112  21.279  0.00  0.00    +0.000 C 
ATOM     25  C   UNL     1      -0.655   9.563  20.879  0.00  0.00    +0.000 C 
ATOM     26  S   UNL     1       0.535  10.470  21.847  0.00  0.00    +0.000 S 
ATOM     27  O   UNL     1      -0.110  10.925  23.062  0.00  0.00    +0.000 OA
ATOM     28  O   UNL     1       1.259  11.374  20.977  0.00  0.00    +0.000 OA
ATOM     29  C   UNL     1       1.590   9.084  22.251  0.00  0.00    +0.000 C 
ENDBRANCH  21  23
ENDBRANCH  18  19
ENDBRANCH   5  18
TORSDOF 5
ENDMDL
