MODEL 1
REMARK VINA RESULT:      -8.4      0.000      0.000
REMARK  Name = 
REMARK  9 active torsions:
REMARK  status: ('A' for Active; 'I' for Inactive)
REMARK    1  A    between atoms: S_2  and  C_4
REMARK    2  A    between atoms: S_2  and  N_9
REMARK    3  A    between atoms: C_4  and  C_5
REMARK    4  A    between atoms: N_9  and  C_10
REMARK    5  A    between atoms: N_9  and  C_17
REMARK    6  A    between atoms: C_10  and  C_11
REMARK    7  A    between atoms: C_21  and  O_22
REMARK    8  A    between atoms: O_22  and  C_23
REMARK    9  A    between atoms: C_23  and  C_24
REMARK                            x       y       z     vdW  Elec       q    Type
REMARK                         _______ _______ _______ _____ _____    ______ ____
ROOT
ATOM      1  N   UNL     1       3.536   5.494  18.140  0.00  0.00    +0.000 N 
ENDROOT
BRANCH   1   2
ATOM      2  C   UNL     1       2.924   6.757  18.395  0.00  0.00    +0.000 A 
ATOM      3  C   UNL     1       2.795   7.744  17.416  0.00  0.00    +0.000 A 
ATOM      4  C   UNL     1       2.090   8.908  17.718  0.00  0.00    +0.000 A 
ATOM      5  C   UNL     1       1.489   9.064  18.968  0.00  0.00    +0.000 A 
ATOM      6  C   UNL     1       1.583   8.053  19.929  0.00  0.00    +0.000 A 
ATOM      7  C   UNL     1       2.344   6.924  19.652  0.00  0.00    +0.000 A 
BRANCH   6   8
ATOM      8  O   UNL     1       0.961   8.055  21.144  0.00  0.00    +0.000 OA
BRANCH   8   9
ATOM      9  C   UNL     1       1.406   9.063  22.049  0.00  0.00    +0.000 C 
BRANCH   9  10
ATOM     10  C   UNL     1       0.347  10.131  22.187  0.00  0.00    +0.000 A 
ATOM     11  C   UNL     1      -0.669  10.012  23.145  0.00  0.00    +0.000 A 
ATOM     12  C   UNL     1      -1.614  11.027  23.297  0.00  0.00    +0.000 A 
ATOM     13  C   UNL     1      -1.555  12.165  22.495  0.00  0.00    +0.000 A 
ATOM     14  C   UNL     1      -0.556  12.289  21.533  0.00  0.00    +0.000 A 
ATOM     15  C   UNL     1       0.390  11.276  21.379  0.00  0.00    +0.000 A 
ENDBRANCH   9  10
ENDBRANCH   8   9
ENDBRANCH   6   8
ENDBRANCH   1   2
BRANCH   1  17
ATOM     16  O   UNL     1       3.289   3.080  17.477  0.00  0.00    +0.000 OA
ATOM     17  S   UNL     1       2.551   4.105  18.187  0.00  0.00    +0.000 S 
ATOM     18  O   UNL     1       1.231   4.511  17.747  0.00  0.00    +0.000 OA
BRANCH  17  19
ATOM     19  C   UNL     1       2.462   3.699  19.897  0.00  0.00    +0.000 C 
BRANCH  19  20
ATOM     20  C   UNL     1       1.117   3.161  20.243  0.00  0.00    +0.000 C 
ATOM     21  F   UNL     1       0.568   2.313  19.360  0.00  0.00    +0.000 F 
ATOM     22  F   UNL     1       1.184   2.512  21.436  0.00  0.00    +0.000 F 
ATOM     23  F   UNL     1       0.237   4.181  20.423  0.00  0.00    +0.000 F 
ENDBRANCH  19  20
ENDBRANCH  17  19
ENDBRANCH   1  17
BRANCH   1  24
ATOM     24  C   UNL     1       4.639   5.475  17.152  0.00  0.00    +0.000 C 
BRANCH  24  25
ATOM     25  C   UNL     1       5.946   5.943  17.729  0.00  0.00    +0.000 A 
ATOM     26  C   UNL     1       6.599   7.074  17.232  0.00  0.00    +0.000 A 
ATOM     27  C   UNL     1       7.768   7.521  17.841  0.00  0.00    +0.000 A 
ATOM     28  C   UNL     1       8.261   6.805  18.921  0.00  0.00    +0.000 A 
ATOM     29  N   UNL     1       7.683   5.684  19.404  0.00  0.00    +0.000 NA
ATOM     30  C   UNL     1       6.546   5.276  18.793  0.00  0.00    +0.000 A 
ENDBRANCH  24  25
ENDBRANCH   1  24
TORSDOF 9
ENDMDL
MODEL 2
REMARK VINA RESULT:      -8.3      1.584      2.160
REMARK  Name = 
REMARK  9 active torsions:
REMARK  status: ('A' for Active; 'I' for Inactive)
REMARK    1  A    between atoms: S_2  and  C_4
REMARK    2  A    between atoms: S_2  and  N_9
REMARK    3  A    between atoms: C_4  and  C_5
REMARK    4  A    between atoms: N_9  and  C_10
REMARK    5  A    between atoms: N_9  and  C_17
REMARK    6  A    between atoms: C_10  and  C_11
REMARK    7  A    between atoms: C_21  and  O_22
REMARK    8  A    between atoms: O_22  and  C_23
REMARK    9  A    between atoms: C_23  and  C_24
REMARK                            x       y       z     vdW  Elec       q    Type
REMARK                         _______ _______ _______ _____ _____    ______ ____
ROOT
ATOM      1  N   UNL     1       3.247   5.630  18.202  0.00  0.00    +0.000 N 
ENDROOT
BRANCH   1   2
ATOM      2  C   UNL     1       2.491   6.629  18.885  0.00  0.00    +0.000 A 
ATOM      3  C   UNL     1       2.187   6.547  20.245  0.00  0.00    +0.000 A 
ATOM      4  C   UNL     1       1.536   7.617  20.858  0.00  0.00    +0.000 A 
ATOM      5  C   UNL     1       1.230   8.767  20.129  0.00  0.00    +0.000 A 
ATOM      6  C   UNL     1       1.576   8.861  18.778  0.00  0.00    +0.000 A 
ATOM      7  C   UNL     1       2.163   7.768  18.151  0.00  0.00    +0.000 A 
BRANCH   6   8
ATOM      8  O   UNL     1       1.412   9.966  17.994  0.00  0.00    +0.000 OA
BRANCH   8   9
ATOM      9  C   UNL     1       1.293  11.198  18.701  0.00  0.00    +0.000 C 
BRANCH   9  10
ATOM     10  C   UNL     1      -0.163  11.500  18.963  0.00  0.00    +0.000 A 
ATOM     11  C   UNL     1      -0.557  12.168  20.130  0.00  0.00    +0.000 A 
ATOM     12  C   UNL     1      -1.900  12.486  20.339  0.00  0.00    +0.000 A 
ATOM     13  C   UNL     1      -2.858  12.138  19.390  0.00  0.00    +0.000 A 
ATOM     14  C   UNL     1      -2.479  11.463  18.231  0.00  0.00    +0.000 A 
ATOM     15  C   UNL     1      -1.138  11.145  18.020  0.00  0.00    +0.000 A 
ENDBRANCH   9  10
ENDBRANCH   8   9
ENDBRANCH   6   8
ENDBRANCH   1   2
BRANCH   1  17
ATOM     16  O   UNL     1       3.328   3.511  16.849  0.00  0.00    +0.000 OA
ATOM     17  S   UNL     1       2.468   4.165  17.814  0.00  0.00    +0.000 S 
ATOM     18  O   UNL     1       1.095   4.493  17.486  0.00  0.00    +0.000 OA
BRANCH  17  19
ATOM     19  C   UNL     1       2.474   3.263  19.325  0.00  0.00    +0.000 C 
BRANCH  19  20
ATOM     20  C   UNL     1       1.085   2.931  19.747  0.00  0.00    +0.000 C 
ATOM     21  F   UNL     1       0.330   2.275  18.853  0.00  0.00    +0.000 F 
ATOM     22  F   UNL     1       1.126   2.172  20.875  0.00  0.00    +0.000 F 
ATOM     23  F   UNL     1       0.415   4.065  20.085  0.00  0.00    +0.000 F 
ENDBRANCH  19  20
ENDBRANCH  17  19
ENDBRANCH   1  17
BRANCH   1  24
ATOM     24  C   UNL     1       4.257   6.106  17.228  0.00  0.00    +0.000 C 
BRANCH  24  25
ATOM     25  C   UNL     1       5.642   6.167  17.809  0.00  0.00    +0.000 A 
ATOM     26  C   UNL     1       6.588   7.083  17.344  0.00  0.00    +0.000 A 
ATOM     27  C   UNL     1       7.835   7.161  17.957  0.00  0.00    +0.000 A 
ATOM     28  C   UNL     1       8.105   6.298  19.009  0.00  0.00    +0.000 A 
ATOM     29  N   UNL     1       7.233   5.371  19.460  0.00  0.00    +0.000 NA
ATOM     30  C   UNL     1       6.028   5.321  18.846  0.00  0.00    +0.000 A 
ENDBRANCH  24  25
ENDBRANCH   1  24
TORSDOF 9
ENDMDL
MODEL 3
REMARK VINA RESULT:      -8.2      0.936      1.372
REMARK  Name = 
REMARK  9 active torsions:
REMARK  status: ('A' for Active; 'I' for Inactive)
REMARK    1  A    between atoms: S_2  and  C_4
REMARK    2  A    between atoms: S_2  and  N_9
REMARK    3  A    between atoms: C_4  and  C_5
REMARK    4  A    between atoms: N_9  and  C_10
REMARK    5  A    between atoms: N_9  and  C_17
REMARK    6  A    between atoms: C_10  and  C_11
REMARK    7  A    between atoms: C_21  and  O_22
REMARK    8  A    between atoms: O_22  and  C_23
REMARK    9  A    between atoms: C_23  and  C_24
REMARK                            x       y       z     vdW  Elec       q    Type
REMARK                         _______ _______ _______ _____ _____    ______ ____
ROOT
ATOM      1  N   UNL     1       3.141   5.032  18.216  0.00  0.00    +0.000 N 
ENDROOT
BRANCH   1   2
ATOM      2  C   UNL     1       2.780   6.396  18.427  0.00  0.00    +0.000 A 
ATOM      3  C   UNL     1       2.703   7.325  17.388  0.00  0.00    +0.000 A 
ATOM      4  C   UNL     1       2.239   8.611  17.665  0.00  0.00    +0.000 A 
ATOM      5  C   UNL     1       1.821   8.948  18.952  0.00  0.00    +0.000 A 
ATOM      6  C   UNL     1       1.858   7.999  19.979  0.00  0.00    +0.000 A 
ATOM      7  C   UNL     1       2.385   6.740  19.719  0.00  0.00    +0.000 A 
BRANCH   6   8
ATOM      8  O   UNL     1       1.390   8.186  21.247  0.00  0.00    +0.000 OA
BRANCH   8   9
ATOM      9  C   UNL     1      -0.029   8.238  21.367  0.00  0.00    +0.000 C 
BRANCH   9  10
ATOM     10  C   UNL     1      -0.470   9.659  21.628  0.00  0.00    +0.000 A 
ATOM     11  C   UNL     1      -0.683  10.549  20.566  0.00  0.00    +0.000 A 
ATOM     12  C   UNL     1      -1.137  11.845  20.815  0.00  0.00    +0.000 A 
ATOM     13  C   UNL     1      -1.379  12.263  22.122  0.00  0.00    +0.000 A 
ATOM     14  C   UNL     1      -1.160  11.390  23.185  0.00  0.00    +0.000 A 
ATOM     15  C   UNL     1      -0.707  10.095  22.939  0.00  0.00    +0.000 A 
ENDBRANCH   9  10
ENDBRANCH   8   9
ENDBRANCH   6   8
ENDBRANCH   1   2
BRANCH   1  17
ATOM     16  O   UNL     1       2.551   2.603  17.934  0.00  0.00    +0.000 OA
ATOM     17  S   UNL     1       1.893   3.875  18.151  0.00  0.00    +0.000 S 
ATOM     18  O   UNL     1       0.907   4.373  17.213  0.00  0.00    +0.000 OA
BRANCH  17  19
ATOM     19  C   UNL     1       1.189   3.913  19.764  0.00  0.00    +0.000 C 
BRANCH  19  20
ATOM     20  C   UNL     1       1.935   3.012  20.686  0.00  0.00    +0.000 C 
ATOM     21  F   UNL     1       3.267   3.166  20.723  0.00  0.00    +0.000 F 
ATOM     22  F   UNL     1       1.474   3.185  21.954  0.00  0.00    +0.000 F 
ATOM     23  F   UNL     1       1.688   1.713  20.373  0.00  0.00    +0.000 F 
ENDBRANCH  19  20
ENDBRANCH  17  19
ENDBRANCH   1  17
BRANCH   1  24
ATOM     24  C   UNL     1       4.307   4.779  17.336  0.00  0.00    +0.000 C 
BRANCH  24  25
ATOM     25  C   UNL     1       5.597   5.285  17.920  0.00  0.00    +0.000 A 
ATOM     26  C   UNL     1       6.401   6.197  17.232  0.00  0.00    +0.000 A 
ATOM     27  C   UNL     1       7.549   6.699  17.836  0.00  0.00    +0.000 A 
ATOM     28  C   UNL     1       7.870   6.253  19.109  0.00  0.00    +0.000 A 
ATOM     29  N   UNL     1       7.143   5.342  19.789  0.00  0.00    +0.000 NA
ATOM     30  C   UNL     1       6.030   4.873  19.177  0.00  0.00    +0.000 A 
ENDBRANCH  24  25
ENDBRANCH   1  24
TORSDOF 9
ENDMDL
MODEL 4
REMARK VINA RESULT:      -8.2      2.786      7.729
REMARK  Name = 
REMARK  9 active torsions:
REMARK  status: ('A' for Active; 'I' for Inactive)
REMARK    1  A    between atoms: S_2  and  C_4
REMARK    2  A    between atoms: S_2  and  N_9
REMARK    3  A    between atoms: C_4  and  C_5
REMARK    4  A    between atoms: N_9  and  C_10
REMARK    5  A    between atoms: N_9  and  C_17
REMARK    6  A    between atoms: C_10  and  C_11
REMARK    7  A    between atoms: C_21  and  O_22
REMARK    8  A    between atoms: O_22  and  C_23
REMARK    9  A    between atoms: C_23  and  C_24
REMARK                            x       y       z     vdW  Elec       q    Type
REMARK                         _______ _______ _______ _____ _____    ______ ____
ROOT
ATOM      1  N   UNL     1       3.312   5.521  18.660  0.00  0.00    +0.000 N 
ENDROOT
BRANCH   1   2
ATOM      2  C   UNL     1       4.721   5.622  18.455  0.00  0.00    +0.000 A 
ATOM      3  C   UNL     1       5.651   5.325  19.453  0.00  0.00    +0.000 A 
ATOM      4  C   UNL     1       7.009   5.347  19.140  0.00  0.00    +0.000 A 
ATOM      5  C   UNL     1       7.428   5.623  17.838  0.00  0.00    +0.000 A 
ATOM      6  C   UNL     1       6.490   5.877  16.832  0.00  0.00    +0.000 A 
ATOM      7  C   UNL     1       5.140   5.923  17.160  0.00  0.00    +0.000 A 
BRANCH   6   8
ATOM      8  O   UNL     1       6.777   6.066  15.512  0.00  0.00    +0.000 OA
BRANCH   8   9
ATOM      9  C   UNL     1       7.559   5.039  14.909  0.00  0.00    +0.000 C 
BRANCH   9  10
ATOM     10  C   UNL     1       6.792   4.410  13.771  0.00  0.00    +0.000 A 
ATOM     11  C   UNL     1       7.405   4.192  12.529  0.00  0.00    +0.000 A 
ATOM     12  C   UNL     1       6.702   3.566  11.499  0.00  0.00    +0.000 A 
ATOM     13  C   UNL     1       5.385   3.157  11.697  0.00  0.00    +0.000 A 
ATOM     14  C   UNL     1       4.763   3.379  12.923  0.00  0.00    +0.000 A 
ATOM     15  C   UNL     1       5.463   4.003  13.954  0.00  0.00    +0.000 A 
ENDBRANCH   9  10
ENDBRANCH   8   9
ENDBRANCH   6   8
ENDBRANCH   1   2
BRANCH   1  17
ATOM     16  O   UNL     1       3.481   3.334  17.427  0.00  0.00    +0.000 OA
ATOM     17  S   UNL     1       2.556   4.040  18.292  0.00  0.00    +0.000 S 
ATOM     18  O   UNL     1       1.213   4.353  17.847  0.00  0.00    +0.000 OA
BRANCH  17  19
ATOM     19  C   UNL     1       2.446   3.217  19.843  0.00  0.00    +0.000 C 
BRANCH  19  20
ATOM     20  C   UNL     1       1.028   3.112  20.286  0.00  0.00    +0.000 C 
ATOM     21  F   UNL     1       0.819   2.566  21.494  0.00  0.00    +0.000 F 
ATOM     22  F   UNL     1       0.468   4.351  20.301  0.00  0.00    +0.000 F 
ATOM     23  F   UNL     1       0.309   2.389  19.388  0.00  0.00    +0.000 F 
ENDBRANCH  19  20
ENDBRANCH  17  19
ENDBRANCH   1  17
BRANCH   1  24
ATOM     24  C   UNL     1       2.749   6.270  19.807  0.00  0.00    +0.000 C 
BRANCH  24  25
ATOM     25  C   UNL     1       2.145   7.586  19.403  0.00  0.00    +0.000 A 
ATOM     26  C   UNL     1       2.230   8.055  18.090  0.00  0.00    +0.000 A 
ATOM     27  C   UNL     1       1.594   9.241  17.736  0.00  0.00    +0.000 A 
ATOM     28  C   UNL     1       0.908   9.937  18.720  0.00  0.00    +0.000 A 
ATOM     29  N   UNL     1       0.839   9.540  20.009  0.00  0.00    +0.000 NA
ATOM     30  C   UNL     1       1.465   8.381  20.322  0.00  0.00    +0.000 A 
ENDBRANCH  24  25
ENDBRANCH   1  24
TORSDOF 9
ENDMDL
MODEL 5
REMARK VINA RESULT:      -8.2      0.792      1.330
REMARK  Name = 
REMARK  9 active torsions:
REMARK  status: ('A' for Active; 'I' for Inactive)
REMARK    1  A    between atoms: S_2  and  C_4
REMARK    2  A    between atoms: S_2  and  N_9
REMARK    3  A    between atoms: C_4  and  C_5
REMARK    4  A    between atoms: N_9  and  C_10
REMARK    5  A    between atoms: N_9  and  C_17
REMARK    6  A    between atoms: C_10  and  C_11
REMARK    7  A    between atoms: C_21  and  O_22
REMARK    8  A    between atoms: O_22  and  C_23
REMARK    9  A    between atoms: C_23  and  C_24
REMARK                            x       y       z     vdW  Elec       q    Type
REMARK                         _______ _______ _______ _____ _____    ______ ____
ROOT
ATOM      1  N   UNL     1       3.560   5.214  18.121  0.00  0.00    +0.000 N 
ENDROOT
BRANCH   1   2
ATOM      2  C   UNL     1       2.993   6.504  18.348  0.00  0.00    +0.000 A 
ATOM      3  C   UNL     1       2.738   7.407  17.314  0.00  0.00    +0.000 A 
ATOM      4  C   UNL     1       2.084   8.603  17.608  0.00  0.00    +0.000 A 
ATOM      5  C   UNL     1       1.657   8.871  18.909  0.00  0.00    +0.000 A 
ATOM      6  C   UNL     1       1.876   7.943  19.931  0.00  0.00    +0.000 A 
ATOM      7  C   UNL     1       2.588   6.783  19.652  0.00  0.00    +0.000 A 
BRANCH   6   8
ATOM      8  O   UNL     1       1.424   8.056  21.214  0.00  0.00    +0.000 OA
BRANCH   8   9
ATOM      9  C   UNL     1       0.006   8.115  21.352  0.00  0.00    +0.000 C 
BRANCH   9  10
ATOM     10  C   UNL     1      -0.421   9.531  21.654  0.00  0.00    +0.000 A 
ATOM     11  C   UNL     1      -0.569  10.469  20.623  0.00  0.00    +0.000 A 
ATOM     12  C   UNL     1      -1.012  11.762  20.907  0.00  0.00    +0.000 A 
ATOM     13  C   UNL     1      -1.306  12.130  22.218  0.00  0.00    +0.000 A 
ATOM     14  C   UNL     1      -1.151  11.209  23.252  0.00  0.00    +0.000 A 
ATOM     15  C   UNL     1      -0.710   9.916  22.971  0.00  0.00    +0.000 A 
ENDBRANCH   9  10
ENDBRANCH   8   9
ENDBRANCH   6   8
ENDBRANCH   1   2
BRANCH   1  17
ATOM     16  O   UNL     1       3.221   2.817  17.435  0.00  0.00    +0.000 OA
ATOM     17  S   UNL     1       2.517   3.867  18.143  0.00  0.00    +0.000 S 
ATOM     18  O   UNL     1       1.222   4.331  17.690  0.00  0.00    +0.000 OA
BRANCH  17  19
ATOM     19  C   UNL     1       2.389   3.452  19.849  0.00  0.00    +0.000 C 
BRANCH  19  20
ATOM     20  C   UNL     1       0.965   3.255  20.239  0.00  0.00    +0.000 C 
ATOM     21  F   UNL     1       0.212   2.527  19.400  0.00  0.00    +0.000 F 
ATOM     22  F   UNL     1       0.910   2.651  21.456  0.00  0.00    +0.000 F 
ATOM     23  F   UNL     1       0.351   4.458  20.391  0.00  0.00    +0.000 F 
ENDBRANCH  19  20
ENDBRANCH  17  19
ENDBRANCH   1  17
BRANCH   1  24
ATOM     24  C   UNL     1       4.694   5.142  17.170  0.00  0.00    +0.000 C 
BRANCH  24  25
ATOM     25  C   UNL     1       5.920   5.851  17.671  0.00  0.00    +0.000 A 
ATOM     26  C   UNL     1       6.629   5.386  18.782  0.00  0.00    +0.000 A 
ATOM     27  C   UNL     1       7.802   6.026  19.171  0.00  0.00    +0.000 A 
ATOM     28  C   UNL     1       8.219   7.131  18.445  0.00  0.00    +0.000 A 
ATOM     29  N   UNL     1       7.540   7.637  17.393  0.00  0.00    +0.000 NA
ATOM     30  C   UNL     1       6.405   6.992  17.037  0.00  0.00    +0.000 A 
ENDBRANCH  24  25
ENDBRANCH   1  24
TORSDOF 9
ENDMDL
MODEL 6
REMARK VINA RESULT:      -8.2      2.166      2.931
REMARK  Name = 
REMARK  9 active torsions:
REMARK  status: ('A' for Active; 'I' for Inactive)
REMARK    1  A    between atoms: S_2  and  C_4
REMARK    2  A    between atoms: S_2  and  N_9
REMARK    3  A    between atoms: C_4  and  C_5
REMARK    4  A    between atoms: N_9  and  C_10
REMARK    5  A    between atoms: N_9  and  C_17
REMARK    6  A    between atoms: C_10  and  C_11
REMARK    7  A    between atoms: C_21  and  O_22
REMARK    8  A    between atoms: O_22  and  C_23
REMARK    9  A    between atoms: C_23  and  C_24
REMARK                            x       y       z     vdW  Elec       q    Type
REMARK                         _______ _______ _______ _____ _____    ______ ____
ROOT
ATOM      1  N   UNL     1       3.186   5.713  18.223  0.00  0.00    +0.000 N 
ENDROOT
BRANCH   1   2
ATOM      2  C   UNL     1       2.430   6.702  18.921  0.00  0.00    +0.000 A 
ATOM      3  C   UNL     1       2.202   6.644  20.297  0.00  0.00    +0.000 A 
ATOM      4  C   UNL     1       1.545   7.705  20.918  0.00  0.00    +0.000 A 
ATOM      5  C   UNL     1       1.158   8.824  20.180  0.00  0.00    +0.000 A 
ATOM      6  C   UNL     1       1.428   8.895  18.810  0.00  0.00    +0.000 A 
ATOM      7  C   UNL     1       2.022   7.809  18.179  0.00  0.00    +0.000 A 
BRANCH   6   8
ATOM      8  O   UNL     1       1.182   9.972  18.009  0.00  0.00    +0.000 OA
BRANCH   8   9
ATOM      9  C   UNL     1       0.449  11.029  18.625  0.00  0.00    +0.000 C 
BRANCH   9  10
ATOM     10  C   UNL     1      -1.020  10.890  18.302  0.00  0.00    +0.000 A 
ATOM     11  C   UNL     1      -1.970  11.712  18.923  0.00  0.00    +0.000 A 
ATOM     12  C   UNL     1      -3.319  11.610  18.581  0.00  0.00    +0.000 A 
ATOM     13  C   UNL     1      -3.731  10.686  17.624  0.00  0.00    +0.000 A 
ATOM     14  C   UNL     1      -2.796   9.855  17.009  0.00  0.00    +0.000 A 
ATOM     15  C   UNL     1      -1.448   9.957  17.348  0.00  0.00    +0.000 A 
ENDBRANCH   9  10
ENDBRANCH   8   9
ENDBRANCH   6   8
ENDBRANCH   1   2
BRANCH   1  17
ATOM     16  O   UNL     1       3.268   3.597  16.864  0.00  0.00    +0.000 OA
ATOM     17  S   UNL     1       2.419   4.239  17.847  0.00  0.00    +0.000 S 
ATOM     18  O   UNL     1       1.036   4.550  17.546  0.00  0.00    +0.000 OA
BRANCH  17  19
ATOM     19  C   UNL     1       2.466   3.333  19.356  0.00  0.00    +0.000 C 
BRANCH  19  20
ATOM     20  C   UNL     1       1.089   3.087  19.866  0.00  0.00    +0.000 C 
ATOM     21  F   UNL     1       0.358   4.174  20.161  0.00  0.00    +0.000 F 
ATOM     22  F   UNL     1       0.389   2.369  18.948  0.00  0.00    +0.000 F 
ATOM     23  F   UNL     1       1.135   2.318  20.986  0.00  0.00    +0.000 F 
ENDBRANCH  19  20
ENDBRANCH  17  19
ENDBRANCH   1  17
BRANCH   1  24
ATOM     24  C   UNL     1       4.172   6.203  17.232  0.00  0.00    +0.000 C 
BRANCH  24  25
ATOM     25  C   UNL     1       5.560   5.687  17.488  0.00  0.00    +0.000 A 
ATOM     26  C   UNL     1       6.128   5.724  18.764  0.00  0.00    +0.000 A 
ATOM     27  C   UNL     1       7.386   5.169  18.977  0.00  0.00    +0.000 A 
ATOM     28  C   UNL     1       8.050   4.611  17.895  0.00  0.00    +0.000 A 
ATOM     29  N   UNL     1       7.553   4.593  16.639  0.00  0.00    +0.000 NA
ATOM     30  C   UNL     1       6.327   5.138  16.464  0.00  0.00    +0.000 A 
ENDBRANCH  24  25
ENDBRANCH   1  24
TORSDOF 9
ENDMDL
MODEL 7
REMARK VINA RESULT:      -8.2      2.504      3.186
REMARK  Name = 
REMARK  9 active torsions:
REMARK  status: ('A' for Active; 'I' for Inactive)
REMARK    1  A    between atoms: S_2  and  C_4
REMARK    2  A    between atoms: S_2  and  N_9
REMARK    3  A    between atoms: C_4  and  C_5
REMARK    4  A    between atoms: N_9  and  C_10
REMARK    5  A    between atoms: N_9  and  C_17
REMARK    6  A    between atoms: C_10  and  C_11
REMARK    7  A    between atoms: C_21  and  O_22
REMARK    8  A    between atoms: O_22  and  C_23
REMARK    9  A    between atoms: C_23  and  C_24
REMARK                            x       y       z     vdW  Elec       q    Type
REMARK                         _______ _______ _______ _____ _____    ______ ____
ROOT
ATOM      1  N   UNL     1       2.759   5.666  18.802  0.00  0.00    +0.000 N 
ENDROOT
BRANCH   1   2
ATOM      2  C   UNL     1       2.141   6.798  19.412  0.00  0.00    +0.000 A 
ATOM      3  C   UNL     1       1.976   6.913  20.794  0.00  0.00    +0.000 A 
ATOM      4  C   UNL     1       1.459   8.098  21.316  0.00  0.00    +0.000 A 
ATOM      5  C   UNL     1       1.149   9.164  20.472  0.00  0.00    +0.000 A 
ATOM      6  C   UNL     1       1.358   9.059  19.094  0.00  0.00    +0.000 A 
ATOM      7  C   UNL     1       1.809   7.855  18.566  0.00  0.00    +0.000 A 
BRANCH   6   8
ATOM      8  O   UNL     1       1.181  10.064  18.187  0.00  0.00    +0.000 OA
BRANCH   8   9
ATOM      9  C   UNL     1       0.410  11.169  18.651  0.00  0.00    +0.000 C 
BRANCH   9  10
ATOM     10  C   UNL     1      -1.043  10.966  18.293  0.00  0.00    +0.000 A 
ATOM     11  C   UNL     1      -2.038  11.780  18.851  0.00  0.00    +0.000 A 
ATOM     12  C   UNL     1      -3.372  11.618  18.476  0.00  0.00    +0.000 A 
ATOM     13  C   UNL     1      -3.725  10.642  17.545  0.00  0.00    +0.000 A 
ATOM     14  C   UNL     1      -2.745   9.821  16.992  0.00  0.00    +0.000 A 
ATOM     15  C   UNL     1      -1.411   9.982  17.365  0.00  0.00    +0.000 A 
ENDBRANCH   9  10
ENDBRANCH   8   9
ENDBRANCH   6   8
ENDBRANCH   1   2
BRANCH   1  17
ATOM     16  O   UNL     1       1.495   4.053  17.344  0.00  0.00    +0.000 OA
ATOM     17  S   UNL     1       1.874   4.212  18.733  0.00  0.00    +0.000 S 
ATOM     18  O   UNL     1       0.870   4.282  19.776  0.00  0.00    +0.000 OA
BRANCH  17  19
ATOM     19  C   UNL     1       3.046   2.975  19.176  0.00  0.00    +0.000 C 
BRANCH  19  20
ATOM     20  C   UNL     1       3.429   2.162  17.988  0.00  0.00    +0.000 C 
ATOM     21  F   UNL     1       4.229   2.758  17.090  0.00  0.00    +0.000 F 
ATOM     22  F   UNL     1       4.061   1.031  18.401  0.00  0.00    +0.000 F 
ATOM     23  F   UNL     1       2.318   1.748  17.325  0.00  0.00    +0.000 F 
ENDBRANCH  19  20
ENDBRANCH  17  19
ENDBRANCH   1  17
BRANCH   1  24
ATOM     24  C   UNL     1       3.658   5.935  17.655  0.00  0.00    +0.000 C 
BRANCH  24  25
ATOM     25  C   UNL     1       5.109   5.957  18.045  0.00  0.00    +0.000 A 
ATOM     26  C   UNL     1       6.058   6.648  17.286  0.00  0.00    +0.000 A 
ATOM     27  C   UNL     1       7.378   6.709  17.720  0.00  0.00    +0.000 A 
ATOM     28  C   UNL     1       7.715   6.054  18.895  0.00  0.00    +0.000 A 
ATOM     29  N   UNL     1       6.837   5.342  19.633  0.00  0.00    +0.000 NA
ATOM     30  C   UNL     1       5.560   5.303  19.188  0.00  0.00    +0.000 A 
ENDBRANCH  24  25
ENDBRANCH   1  24
TORSDOF 9
ENDMDL
MODEL 8
REMARK VINA RESULT:      -8.1      3.113      8.101
REMARK  Name = 
REMARK  9 active torsions:
REMARK  status: ('A' for Active; 'I' for Inactive)
REMARK    1  A    between atoms: S_2  and  C_4
REMARK    2  A    between atoms: S_2  and  N_9
REMARK    3  A    between atoms: C_4  and  C_5
REMARK    4  A    between atoms: N_9  and  C_10
REMARK    5  A    between atoms: N_9  and  C_17
REMARK    6  A    between atoms: C_10  and  C_11
REMARK    7  A    between atoms: C_21  and  O_22
REMARK    8  A    between atoms: O_22  and  C_23
REMARK    9  A    between atoms: C_23  and  C_24
REMARK                            x       y       z     vdW  Elec       q    Type
REMARK                         _______ _______ _______ _____ _____    ______ ____
ROOT
ATOM      1  N   UNL     1       3.525   5.407  18.318  0.00  0.00    +0.000 N 
ENDROOT
BRANCH   1   2
ATOM      2  C   UNL     1       4.892   5.405  17.909  0.00  0.00    +0.000 A 
ATOM      3  C   UNL     1       5.945   5.201  18.803  0.00  0.00    +0.000 A 
ATOM      4  C   UNL     1       7.245   5.107  18.306  0.00  0.00    +0.000 A 
ATOM      5  C   UNL     1       7.481   5.177  16.932  0.00  0.00    +0.000 A 
ATOM      6  C   UNL     1       6.417   5.337  16.039  0.00  0.00    +0.000 A 
ATOM      7  C   UNL     1       5.131   5.499  16.539  0.00  0.00    +0.000 A 
BRANCH   6   8
ATOM      8  O   UNL     1       6.517   5.325  14.678  0.00  0.00    +0.000 OA
BRANCH   8   9
ATOM      9  C   UNL     1       5.351   4.880  13.990  0.00  0.00    +0.000 C 
BRANCH   9  10
ATOM     10  C   UNL     1       5.736   3.893  12.914  0.00  0.00    +0.000 A 
ATOM     11  C   UNL     1       7.080   3.703  12.565  0.00  0.00    +0.000 A 
ATOM     12  C   UNL     1       7.429   2.754  11.603  0.00  0.00    +0.000 A 
ATOM     13  C   UNL     1       6.443   1.991  10.981  0.00  0.00    +0.000 A 
ATOM     14  C   UNL     1       5.103   2.180  11.312  0.00  0.00    +0.000 A 
ATOM     15  C   UNL     1       4.752   3.127  12.273  0.00  0.00    +0.000 A 
ENDBRANCH   9  10
ENDBRANCH   8   9
ENDBRANCH   6   8
ENDBRANCH   1   2
BRANCH   1  17
ATOM     16  O   UNL     1       3.486   3.079  17.366  0.00  0.00    +0.000 OA
ATOM     17  S   UNL     1       2.631   3.970  18.123  0.00  0.00    +0.000 S 
ATOM     18  O   UNL     1       1.325   4.352  17.624  0.00  0.00    +0.000 OA
BRANCH  17  19
ATOM     19  C   UNL     1       2.438   3.359  19.763  0.00  0.00    +0.000 C 
BRANCH  19  20
ATOM     20  C   UNL     1       0.998   3.160  20.086  0.00  0.00    +0.000 C 
ATOM     21  F   UNL     1       0.261   2.524  19.162  0.00  0.00    +0.000 F 
ATOM     22  F   UNL     1       0.889   2.455  21.243  0.00  0.00    +0.000 F 
ATOM     23  F   UNL     1       0.401   4.358  20.322  0.00  0.00    +0.000 F 
ENDBRANCH  19  20
ENDBRANCH  17  19
ENDBRANCH   1  17
BRANCH   1  24
ATOM     24  C   UNL     1       3.184   6.229  19.503  0.00  0.00    +0.000 C 
BRANCH  24  25
ATOM     25  C   UNL     1       2.436   7.483  19.145  0.00  0.00    +0.000 A 
ATOM     26  C   UNL     1       1.624   8.137  20.074  0.00  0.00    +0.000 A 
ATOM     27  C   UNL     1       1.007   9.336  19.730  0.00  0.00    +0.000 A 
ATOM     28  C   UNL     1       1.206   9.834  18.451  0.00  0.00    +0.000 A 
ATOM     29  N   UNL     1       1.949   9.210  17.512  0.00  0.00    +0.000 NA
ATOM     30  C   UNL     1       2.539   8.048  17.877  0.00  0.00    +0.000 A 
ENDBRANCH  24  25
ENDBRANCH   1  24
TORSDOF 9
ENDMDL
MODEL 9
REMARK VINA RESULT:      -8.1      3.220      8.147
REMARK  Name = 
REMARK  9 active torsions:
REMARK  status: ('A' for Active; 'I' for Inactive)
REMARK    1  A    between atoms: S_2  and  C_4
REMARK    2  A    between atoms: S_2  and  N_9
REMARK    3  A    between atoms: C_4  and  C_5
REMARK    4  A    between atoms: N_9  and  C_10
REMARK    5  A    between atoms: N_9  and  C_17
REMARK    6  A    between atoms: C_10  and  C_11
REMARK    7  A    between atoms: C_21  and  O_22
REMARK    8  A    between atoms: O_22  and  C_23
REMARK    9  A    between atoms: C_23  and  C_24
REMARK                            x       y       z     vdW  Elec       q    Type
REMARK                         _______ _______ _______ _____ _____    ______ ____
ROOT
ATOM      1  N   UNL     1       3.634   5.360  18.243  0.00  0.00    +0.000 N 
ENDROOT
BRANCH   1   2
ATOM      2  C   UNL     1       4.953   5.279  17.704  0.00  0.00    +0.000 A 
ATOM      3  C   UNL     1       6.052   4.867  18.460  0.00  0.00    +0.000 A 
ATOM      4  C   UNL     1       7.287   4.714  17.830  0.00  0.00    +0.000 A 
ATOM      5  C   UNL     1       7.409   4.931  16.457  0.00  0.00    +0.000 A 
ATOM      6  C   UNL     1       6.295   5.301  15.697  0.00  0.00    +0.000 A 
ATOM      7  C   UNL     1       5.081   5.520  16.337  0.00  0.00    +0.000 A 
BRANCH   6   8
ATOM      8  O   UNL     1       6.275   5.449  14.341  0.00  0.00    +0.000 OA
BRANCH   8   9
ATOM      9  C   UNL     1       7.152   4.582  13.625  0.00  0.00    +0.000 C 
BRANCH   9  10
ATOM     10  C   UNL     1       6.353   3.694  12.702  0.00  0.00    +0.000 A 
ATOM     11  C   UNL     1       4.995   3.947  12.462  0.00  0.00    +0.000 A 
ATOM     12  C   UNL     1       4.278   3.150  11.569  0.00  0.00    +0.000 A 
ATOM     13  C   UNL     1       4.907   2.094  10.912  0.00  0.00    +0.000 A 
ATOM     14  C   UNL     1       6.253   1.827  11.151  0.00  0.00    +0.000 A 
ATOM     15  C   UNL     1       6.972   2.623  12.042  0.00  0.00    +0.000 A 
ENDBRANCH   9  10
ENDBRANCH   8   9
ENDBRANCH   6   8
ENDBRANCH   1   2
BRANCH   1  17
ATOM     16  O   UNL     1       3.606   2.854  18.027  0.00  0.00    +0.000 OA
ATOM     17  S   UNL     1       2.681   3.948  18.235  0.00  0.00    +0.000 S 
ATOM     18  O   UNL     1       1.588   4.185  17.314  0.00  0.00    +0.000 OA
BRANCH  17  19
ATOM     19  C   UNL     1       2.021   3.867  19.865  0.00  0.00    +0.000 C 
BRANCH  19  20
ATOM     20  C   UNL     1       1.296   2.584  20.078  0.00  0.00    +0.000 C 
ATOM     21  F   UNL     1       1.439   2.010  21.283  0.00  0.00    +0.000 F 
ATOM     22  F   UNL     1      -0.035   2.780  19.881  0.00  0.00    +0.000 F 
ATOM     23  F   UNL     1       1.680   1.670  19.149  0.00  0.00    +0.000 F 
ENDBRANCH  19  20
ENDBRANCH  17  19
ENDBRANCH   1  17
BRANCH   1  24
ATOM     24  C   UNL     1       3.439   6.269  19.396  0.00  0.00    +0.000 C 
BRANCH  24  25
ATOM     25  C   UNL     1       2.603   7.471  19.055  0.00  0.00    +0.000 A 
ATOM     26  C   UNL     1       1.746   8.053  19.993  0.00  0.00    +0.000 A 
ATOM     27  C   UNL     1       1.045   9.209  19.664  0.00  0.00    +0.000 A 
ATOM     28  C   UNL     1       1.206   9.736  18.391  0.00  0.00    +0.000 A 
ATOM     29  N   UNL     1       1.991   9.179  17.444  0.00  0.00    +0.000 NA
ATOM     30  C   UNL     1       2.663   8.058  17.794  0.00  0.00    +0.000 A 
ENDBRANCH  24  25
ENDBRANCH   1  24
TORSDOF 9
ENDMDL
