MODEL 1
REMARK VINA RESULT:      -9.6      0.000      0.000
REMARK  Name = 
REMARK  3 active torsions:
REMARK  status: ('A' for Active; 'I' for Inactive)
REMARK    1  A    between atoms: C_7  and  N_8
REMARK    2  A    between atoms: C_9  and  C_11
REMARK    3  A    between atoms: N_14  and  C_15
REMARK                            x       y       z     vdW  Elec       q    Type
REMARK                         _______ _______ _______ _____ _____    ______ ____
ROOT
ATOM      1  N   UNL     1       7.786   8.674  17.467  0.00  0.00    +0.000 N 
ATOM      2  C   UNL     1       7.860   7.368  17.939  0.00  0.00    +0.000 C 
ATOM      3  O   UNL     1       8.453   7.009  18.951  0.00  0.00    +0.000 OA
ATOM      4  H   UNL     1       7.198   8.853  16.664  0.00  0.00    +0.000 HD
ENDROOT
BRANCH   1  11
ATOM      5  O   UNL     1      10.739  15.300  19.909  0.00  0.00    +0.000 OA
ATOM      6  C   UNL     1      10.230  14.332  19.354  0.00  0.00    +0.000 C 
ATOM      7  C   UNL     1       9.583  14.402  17.969  0.00  0.00    +0.000 C 
ATOM      8  O   UNL     1       8.649  13.404  17.593  0.00  0.00    +0.000 OA
ATOM      9  C   UNL     1       8.883  12.180  18.156  0.00  0.00    +0.000 A 
ATOM     10  C   UNL     1       8.243  11.099  17.553  0.00  0.00    +0.000 A 
ATOM     11  C   UNL     1       8.382   9.809  18.066  0.00  0.00    +0.000 A 
ATOM     12  C   UNL     1       9.144   9.627  19.230  0.00  0.00    +0.000 A 
ATOM     13  C   UNL     1       9.784  10.713  19.844  0.00  0.00    +0.000 A 
ATOM     14  C   UNL     1       9.657  11.990  19.299  0.00  0.00    +0.000 A 
ATOM     15  N   UNL     1      10.274  13.080  19.910  0.00  0.00    +0.000 N 
ATOM     16  H   UNL     1      10.763  12.990  20.790  0.00  0.00    +0.000 HD
ENDBRANCH   1  11
BRANCH   2  17
ATOM     17  C   UNL     1       7.090   6.354  17.083  0.00  0.00    +0.000 C 
ATOM     18  C   UNL     1       5.643   6.804  16.836  0.00  0.00    +0.000 C 
ATOM     19  C   UNL     1       4.833   6.717  18.126  0.00  0.00    +0.000 C 
ATOM     20  N   UNL     1       4.839   5.330  18.584  0.00  0.00    +0.000 N 
ATOM     21  C   UNL     1       6.161   4.790  18.924  0.00  0.00    +0.000 C 
ATOM     22  C   UNL     1       7.107   4.946  17.719  0.00  0.00    +0.000 C 
BRANCH  20  23
ATOM     23  C   UNL     1       3.687   4.567  18.613  0.00  0.00    +0.000 A 
ATOM     24  C   UNL     1       2.636   4.859  19.499  0.00  0.00    +0.000 A 
ATOM     25  C   UNL     1       1.477   4.083  19.542  0.00  0.00    +0.000 A 
ATOM     26  F   UNL     1       0.504   4.415  20.403  0.00  0.00    +0.000 F 
ATOM     27  C   UNL     1       1.330   2.991  18.709  0.00  0.00    +0.000 A 
ATOM     28  F   UNL     1       0.216   2.246  18.755  0.00  0.00    +0.000 F 
ATOM     29  C   UNL     1       2.350   2.679  17.828  0.00  0.00    +0.000 A 
ATOM     30  F   UNL     1       2.236   1.616  17.019  0.00  0.00    +0.000 F 
ATOM     31  C   UNL     1       3.513   3.454  17.776  0.00  0.00    +0.000 A 
ENDBRANCH  20  23
ENDBRANCH   2  17
TORSDOF 3
ENDMDL
MODEL 2
REMARK VINA RESULT:      -9.5      0.153      1.531
REMARK  Name = 
REMARK  3 active torsions:
REMARK  status: ('A' for Active; 'I' for Inactive)
REMARK    1  A    between atoms: C_7  and  N_8
REMARK    2  A    between atoms: C_9  and  C_11
REMARK    3  A    between atoms: N_14  and  C_15
REMARK                            x       y       z     vdW  Elec       q    Type
REMARK                         _______ _______ _______ _____ _____    ______ ____
ROOT
ATOM      1  N   UNL     1       7.781   8.763  17.530  0.00  0.00    +0.000 N 
ATOM      2  C   UNL     1       7.859   7.443  17.958  0.00  0.00    +0.000 C 
ATOM      3  O   UNL     1       8.483   7.047  18.937  0.00  0.00    +0.000 OA
ATOM      4  H   UNL     1       7.168   8.973  16.754  0.00  0.00    +0.000 HD
ENDROOT
BRANCH   1  11
ATOM      5  O   UNL     1      10.980  15.254  20.027  0.00  0.00    +0.000 OA
ATOM      6  C   UNL     1      10.447  14.306  19.459  0.00  0.00    +0.000 C 
ATOM      7  C   UNL     1       9.895  14.383  18.034  0.00  0.00    +0.000 C 
ATOM      8  O   UNL     1       8.926  13.435  17.618  0.00  0.00    +0.000 OA
ATOM      9  C   UNL     1       9.047  12.212  18.219  0.00  0.00    +0.000 A 
ATOM     10  C   UNL     1       8.381  11.158  17.597  0.00  0.00    +0.000 A 
ATOM     11  C   UNL     1       8.408   9.874  18.143  0.00  0.00    +0.000 A 
ATOM     12  C   UNL     1       9.082   9.674  19.357  0.00  0.00    +0.000 A 
ATOM     13  C   UNL     1       9.748  10.734  19.990  0.00  0.00    +0.000 A 
ATOM     14  C   UNL     1       9.735  12.002  19.413  0.00  0.00    +0.000 A 
ATOM     15  N   UNL     1      10.378  13.067  20.041  0.00  0.00    +0.000 N 
ATOM     16  H   UNL     1      10.805  12.968  20.952  0.00  0.00    +0.000 HD
ENDBRANCH   1  11
BRANCH   2  17
ATOM     17  C   UNL     1       7.051   6.463  17.097  0.00  0.00    +0.000 C 
ATOM     18  C   UNL     1       5.592   6.915  16.941  0.00  0.00    +0.000 C 
ATOM     19  C   UNL     1       4.847   6.768  18.264  0.00  0.00    +0.000 C 
ATOM     20  N   UNL     1       4.881   5.362  18.660  0.00  0.00    +0.000 N 
ATOM     21  C   UNL     1       6.220   4.815  18.911  0.00  0.00    +0.000 C 
ATOM     22  C   UNL     1       7.104   5.029  17.669  0.00  0.00    +0.000 C 
BRANCH  20  23
ATOM     23  C   UNL     1       3.734   4.592  18.712  0.00  0.00    +0.000 A 
ATOM     24  C   UNL     1       3.574   3.459  17.897  0.00  0.00    +0.000 A 
ATOM     25  C   UNL     1       2.413   2.685  17.936  0.00  0.00    +0.000 A 
ATOM     26  F   UNL     1       2.319   1.611  17.140  0.00  0.00    +0.000 F 
ATOM     27  C   UNL     1       1.375   3.018  18.785  0.00  0.00    +0.000 A 
ATOM     28  F   UNL     1       0.259   2.275  18.818  0.00  0.00    +0.000 F 
ATOM     29  C   UNL     1       1.504   4.130  19.598  0.00  0.00    +0.000 A 
ATOM     30  F   UNL     1       0.505   4.481  20.420  0.00  0.00    +0.000 F 
ATOM     31  C   UNL     1       2.666   4.907  19.567  0.00  0.00    +0.000 A 
ENDBRANCH  20  23
ENDBRANCH   2  17
TORSDOF 3
ENDMDL
MODEL 3
REMARK VINA RESULT:      -9.4      0.911      1.158
REMARK  Name = 
REMARK  3 active torsions:
REMARK  status: ('A' for Active; 'I' for Inactive)
REMARK    1  A    between atoms: C_7  and  N_8
REMARK    2  A    between atoms: C_9  and  C_11
REMARK    3  A    between atoms: N_14  and  C_15
REMARK                            x       y       z     vdW  Elec       q    Type
REMARK                         _______ _______ _______ _____ _____    ______ ____
ROOT
ATOM      1  N   UNL     1       7.825   8.770  17.500  0.00  0.00    +0.000 N 
ATOM      2  C   UNL     1       7.917   7.472  17.989  0.00  0.00    +0.000 C 
ATOM      3  O   UNL     1       8.518   7.134  19.003  0.00  0.00    +0.000 OA
ATOM      4  H   UNL     1       7.232   8.931  16.697  0.00  0.00    +0.000 HD
ENDROOT
BRANCH   1  11
ATOM      5  O   UNL     1      10.667  15.474  19.860  0.00  0.00    +0.000 OA
ATOM      6  C   UNL     1      10.167  14.492  19.320  0.00  0.00    +0.000 C 
ATOM      7  C   UNL     1       9.476  14.546  17.956  0.00  0.00    +0.000 C 
ATOM      8  O   UNL     1       8.558  13.522  17.608  0.00  0.00    +0.000 OA
ATOM      9  C   UNL     1       8.844  12.305  18.160  0.00  0.00    +0.000 A 
ATOM     10  C   UNL     1       8.216  11.207  17.576  0.00  0.00    +0.000 A 
ATOM     11  C   UNL     1       8.408   9.920  18.081  0.00  0.00    +0.000 A 
ATOM     12  C   UNL     1       9.211   9.759  19.220  0.00  0.00    +0.000 A 
ATOM     13  C   UNL     1       9.840  10.862  19.816  0.00  0.00    +0.000 A 
ATOM     14  C   UNL     1       9.659  12.135  19.277  0.00  0.00    +0.000 A 
ATOM     15  N   UNL     1      10.264  13.241  19.871  0.00  0.00    +0.000 N 
ATOM     16  H   UNL     1      10.784  13.164  20.734  0.00  0.00    +0.000 HD
ENDBRANCH   1  11
BRANCH   2  17
ATOM     17  C   UNL     1       7.158   6.436  17.149  0.00  0.00    +0.000 C 
ATOM     18  C   UNL     1       5.718   6.885  16.862  0.00  0.00    +0.000 C 
ATOM     19  C   UNL     1       4.884   6.840  18.138  0.00  0.00    +0.000 C 
ATOM     20  N   UNL     1       4.875   5.468  18.637  0.00  0.00    +0.000 N 
ATOM     21  C   UNL     1       6.187   4.932  19.017  0.00  0.00    +0.000 C 
ATOM     22  C   UNL     1       7.156   5.048  17.827  0.00  0.00    +0.000 C 
BRANCH  20  23
ATOM     23  C   UNL     1       3.719   4.711  18.667  0.00  0.00    +0.000 A 
ATOM     24  C   UNL     1       2.676   4.928  17.751  0.00  0.00    +0.000 A 
ATOM     25  C   UNL     1       1.501   4.175  17.786  0.00  0.00    +0.000 A 
ATOM     26  F   UNL     1       0.542   4.422  16.882  0.00  0.00    +0.000 F 
ATOM     27  C   UNL     1       1.326   3.187  18.736  0.00  0.00    +0.000 A 
ATOM     28  F   UNL     1       0.195   2.468  18.769  0.00  0.00    +0.000 F 
ATOM     29  C   UNL     1       2.337   2.953  19.653  0.00  0.00    +0.000 A 
ATOM     30  F   UNL     1       2.185   2.009  20.592  0.00  0.00    +0.000 F 
ATOM     31  C   UNL     1       3.518   3.700  19.621  0.00  0.00    +0.000 A 
ENDBRANCH  20  23
ENDBRANCH   2  17
TORSDOF 3
ENDMDL
MODEL 4
REMARK VINA RESULT:      -9.3      0.913      1.006
REMARK  Name = 
REMARK  3 active torsions:
REMARK  status: ('A' for Active; 'I' for Inactive)
REMARK    1  A    between atoms: C_7  and  N_8
REMARK    2  A    between atoms: C_9  and  C_11
REMARK    3  A    between atoms: N_14  and  C_15
REMARK                            x       y       z     vdW  Elec       q    Type
REMARK                         _______ _______ _______ _____ _____    ______ ____
ROOT
ATOM      1  N   UNL     1       7.817   8.779  17.520  0.00  0.00    +0.000 N 
ATOM      2  C   UNL     1       7.923   7.476  17.991  0.00  0.00    +0.000 C 
ATOM      3  O   UNL     1       8.549   7.126  18.986  0.00  0.00    +0.000 OA
ATOM      4  H   UNL     1       7.205   8.950  16.734  0.00  0.00    +0.000 HD
ENDROOT
BRANCH   1  11
ATOM      5  O   UNL     1      10.751  15.447  19.872  0.00  0.00    +0.000 OA
ATOM      6  C   UNL     1      10.241  14.471  19.331  0.00  0.00    +0.000 C 
ATOM      7  C   UNL     1       9.575  14.526  17.954  0.00  0.00    +0.000 C 
ATOM      8  O   UNL     1       8.644  13.517  17.599  0.00  0.00    +0.000 OA
ATOM      9  C   UNL     1       8.895  12.300  18.167  0.00  0.00    +0.000 A 
ATOM     10  C   UNL     1       8.256  11.209  17.581  0.00  0.00    +0.000 A 
ATOM     11  C   UNL     1       8.412   9.924  18.102  0.00  0.00    +0.000 A 
ATOM     12  C   UNL     1       9.191   9.757  19.257  0.00  0.00    +0.000 A 
ATOM     13  C   UNL     1       9.831  10.853  19.854  0.00  0.00    +0.000 A 
ATOM     14  C   UNL     1       9.686  12.124  19.301  0.00  0.00    +0.000 A 
ATOM     15  N   UNL     1      10.303  13.224  19.895  0.00  0.00    +0.000 N 
ATOM     16  H   UNL     1      10.805  13.144  20.769  0.00  0.00    +0.000 HD
ENDBRANCH   1  11
BRANCH   2  17
ATOM     17  C   UNL     1       7.145   6.450  17.156  0.00  0.00    +0.000 C 
ATOM     18  C   UNL     1       5.708   6.915  16.882  0.00  0.00    +0.000 C 
ATOM     19  C   UNL     1       4.884   6.878  18.164  0.00  0.00    +0.000 C 
ATOM     20  N   UNL     1       4.864   5.505  18.662  0.00  0.00    +0.000 N 
ATOM     21  C   UNL     1       6.173   4.954  19.031  0.00  0.00    +0.000 C 
ATOM     22  C   UNL     1       7.133   5.060  17.832  0.00  0.00    +0.000 C 
BRANCH  20  23
ATOM     23  C   UNL     1       3.700   4.761  18.702  0.00  0.00    +0.000 A 
ATOM     24  C   UNL     1       3.500   3.763  19.671  0.00  0.00    +0.000 A 
ATOM     25  C   UNL     1       2.331   3.000  19.706  0.00  0.00    +0.000 A 
ATOM     26  F   UNL     1       2.193   2.066  20.658  0.00  0.00    +0.000 F 
ATOM     27  C   UNL     1       1.329   3.203  18.777  0.00  0.00    +0.000 A 
ATOM     28  F   UNL     1       0.210   2.467  18.813  0.00  0.00    +0.000 F 
ATOM     29  C   UNL     1       1.500   4.179  17.810  0.00  0.00    +0.000 A 
ATOM     30  F   UNL     1       0.548   4.385  16.890  0.00  0.00    +0.000 F 
ATOM     31  C   UNL     1       2.666   4.950  17.771  0.00  0.00    +0.000 A 
ENDBRANCH  20  23
ENDBRANCH   2  17
TORSDOF 3
ENDMDL
MODEL 5
REMARK VINA RESULT:      -9.3      0.982      2.107
REMARK  Name = 
REMARK  3 active torsions:
REMARK  status: ('A' for Active; 'I' for Inactive)
REMARK    1  A    between atoms: C_7  and  N_8
REMARK    2  A    between atoms: C_9  and  C_11
REMARK    3  A    between atoms: N_14  and  C_15
REMARK                            x       y       z     vdW  Elec       q    Type
REMARK                         _______ _______ _______ _____ _____    ______ ____
ROOT
ATOM      1  N   UNL     1       7.763   8.689  17.382  0.00  0.00    +0.000 N 
ATOM      2  C   UNL     1       7.902   7.442  17.981  0.00  0.00    +0.000 C 
ATOM      3  O   UNL     1       8.489   7.220  19.035  0.00  0.00    +0.000 OA
ATOM      4  H   UNL     1       7.187   8.753  16.553  0.00  0.00    +0.000 HD
ENDROOT
BRANCH   1  11
ATOM      5  O   UNL     1      10.799  14.796  20.857  0.00  0.00    +0.000 OA
ATOM      6  C   UNL     1      10.352  13.724  20.463  0.00  0.00    +0.000 C 
ATOM      7  C   UNL     1      10.444  12.428  21.272  0.00  0.00    +0.000 C 
ATOM      8  O   UNL     1      10.324  11.186  20.599  0.00  0.00    +0.000 OA
ATOM      9  C   UNL     1       9.517  11.224  19.495  0.00  0.00    +0.000 A 
ATOM     10  C   UNL     1       9.072   9.992  19.021  0.00  0.00    +0.000 A 
ATOM     11  C   UNL     1       8.272   9.911  17.880  0.00  0.00    +0.000 A 
ATOM     12  C   UNL     1       7.962  11.093  17.191  0.00  0.00    +0.000 A 
ATOM     13  C   UNL     1       8.415  12.336  17.661  0.00  0.00    +0.000 A 
ATOM     14  C   UNL     1       9.187  12.398  18.820  0.00  0.00    +0.000 A 
ATOM     15  N   UNL     1       9.657  13.624  19.287  0.00  0.00    +0.000 N 
ATOM     16  H   UNL     1       9.513  14.481  18.769  0.00  0.00    +0.000 HD
ENDBRANCH   1  11
BRANCH   2  17
ATOM     17  C   UNL     1       7.220   6.304  17.211  0.00  0.00    +0.000 C 
ATOM     18  C   UNL     1       5.791   6.680  16.792  0.00  0.00    +0.000 C 
ATOM     19  C   UNL     1       4.880   6.746  18.014  0.00  0.00    +0.000 C 
ATOM     20  N   UNL     1       4.869   5.433  18.653  0.00  0.00    +0.000 N 
ATOM     21  C   UNL     1       6.166   4.976  19.166  0.00  0.00    +0.000 C 
ATOM     22  C   UNL     1       7.205   4.994  18.031  0.00  0.00    +0.000 C 
BRANCH  20  23
ATOM     23  C   UNL     1       3.730   4.651  18.695  0.00  0.00    +0.000 A 
ATOM     24  C   UNL     1       3.567   3.546  17.842  0.00  0.00    +0.000 A 
ATOM     25  C   UNL     1       2.412   2.762  17.870  0.00  0.00    +0.000 A 
ATOM     26  F   UNL     1       2.315   1.716  17.038  0.00  0.00    +0.000 F 
ATOM     27  C   UNL     1       1.384   3.056  18.744  0.00  0.00    +0.000 A 
ATOM     28  F   UNL     1       0.275   2.303  18.767  0.00  0.00    +0.000 F 
ATOM     29  C   UNL     1       1.516   4.141  19.594  0.00  0.00    +0.000 A 
ATOM     30  F   UNL     1       0.526   4.453  20.442  0.00  0.00    +0.000 F 
ATOM     31  C   UNL     1       2.671   4.928  19.575  0.00  0.00    +0.000 A 
ENDBRANCH  20  23
ENDBRANCH   2  17
TORSDOF 3
ENDMDL
MODEL 6
REMARK VINA RESULT:      -9.2      0.985      1.459
REMARK  Name = 
REMARK  3 active torsions:
REMARK  status: ('A' for Active; 'I' for Inactive)
REMARK    1  A    between atoms: C_7  and  N_8
REMARK    2  A    between atoms: C_9  and  C_11
REMARK    3  A    between atoms: N_14  and  C_15
REMARK                            x       y       z     vdW  Elec       q    Type
REMARK                         _______ _______ _______ _____ _____    ______ ____
ROOT
ATOM      1  N   UNL     1       7.737   8.727  17.381  0.00  0.00    +0.000 N 
ATOM      2  C   UNL     1       7.891   7.473  17.963  0.00  0.00    +0.000 C 
ATOM      3  O   UNL     1       8.492   7.242  19.007  0.00  0.00    +0.000 OA
ATOM      4  H   UNL     1       7.151   8.797  16.560  0.00  0.00    +0.000 HD
ENDROOT
BRANCH   1  11
ATOM      5  O   UNL     1      10.769  14.813  20.897  0.00  0.00    +0.000 OA
ATOM      6  C   UNL     1      10.322  13.743  20.496  0.00  0.00    +0.000 C 
ATOM      7  C   UNL     1      10.410  12.443  21.299  0.00  0.00    +0.000 C 
ATOM      8  O   UNL     1      10.290  11.204  20.619  0.00  0.00    +0.000 OA
ATOM      9  C   UNL     1       9.487  11.249  19.513  0.00  0.00    +0.000 A 
ATOM     10  C   UNL     1       9.042  10.020  19.031  0.00  0.00    +0.000 A 
ATOM     11  C   UNL     1       8.247   9.946  17.887  0.00  0.00    +0.000 A 
ATOM     12  C   UNL     1       7.941  11.132  17.203  0.00  0.00    +0.000 A 
ATOM     13  C   UNL     1       8.393  12.371  17.681  0.00  0.00    +0.000 A 
ATOM     14  C   UNL     1       9.161  12.426  18.842  0.00  0.00    +0.000 A 
ATOM     15  N   UNL     1       9.630  13.650  19.317  0.00  0.00    +0.000 N 
ATOM     16  H   UNL     1       9.490  14.509  18.803  0.00  0.00    +0.000 HD
ENDBRANCH   1  11
BRANCH   2  17
ATOM     17  C   UNL     1       7.205   6.341  17.188  0.00  0.00    +0.000 C 
ATOM     18  C   UNL     1       5.776   6.721  16.776  0.00  0.00    +0.000 C 
ATOM     19  C   UNL     1       4.868   6.781  18.000  0.00  0.00    +0.000 C 
ATOM     20  N   UNL     1       4.858   5.465  18.633  0.00  0.00    +0.000 N 
ATOM     21  C   UNL     1       6.155   5.003  19.139  0.00  0.00    +0.000 C 
ATOM     22  C   UNL     1       7.191   5.026  18.000  0.00  0.00    +0.000 C 
BRANCH  20  23
ATOM     23  C   UNL     1       3.717   4.684  18.672  0.00  0.00    +0.000 A 
ATOM     24  C   UNL     1       2.673   4.957  19.573  0.00  0.00    +0.000 A 
ATOM     25  C   UNL     1       1.526   4.164  19.627  0.00  0.00    +0.000 A 
ATOM     26  F   UNL     1       0.559   4.476  20.502  0.00  0.00    +0.000 F 
ATOM     27  C   UNL     1       1.384   3.074  18.789  0.00  0.00    +0.000 A 
ATOM     28  F   UNL     1       0.281   2.313  18.845  0.00  0.00    +0.000 F 
ATOM     29  C   UNL     1       2.397   2.782  17.893  0.00  0.00    +0.000 A 
ATOM     30  F   UNL     1       2.287   1.722  17.080  0.00  0.00    +0.000 F 
ATOM     31  C   UNL     1       3.548   3.574  17.831  0.00  0.00    +0.000 A 
ENDBRANCH  20  23
ENDBRANCH   2  17
TORSDOF 3
ENDMDL
MODEL 7
REMARK VINA RESULT:      -9.1      1.146      1.843
REMARK  Name = 
REMARK  3 active torsions:
REMARK  status: ('A' for Active; 'I' for Inactive)
REMARK    1  A    between atoms: C_7  and  N_8
REMARK    2  A    between atoms: C_9  and  C_11
REMARK    3  A    between atoms: N_14  and  C_15
REMARK                            x       y       z     vdW  Elec       q    Type
REMARK                         _______ _______ _______ _____ _____    ______ ____
ROOT
ATOM      1  N   UNL     1       8.655   8.379  18.489  0.00  0.00    +0.000 N 
ATOM      2  C   UNL     1       7.628   8.029  17.620  0.00  0.00    +0.000 C 
ATOM      3  O   UNL     1       6.885   8.816  17.042  0.00  0.00    +0.000 OA
ATOM      4  H   UNL     1       9.249   7.640  18.840  0.00  0.00    +0.000 HD
ENDROOT
BRANCH   1  11
ATOM      5  O   UNL     1      10.846  15.634  19.562  0.00  0.00    +0.000 OA
ATOM      6  C   UNL     1      10.558  14.495  19.210  0.00  0.00    +0.000 C 
ATOM      7  C   UNL     1      10.707  13.998  17.770  0.00  0.00    +0.000 C 
ATOM      8  O   UNL     1       9.962  12.866  17.352  0.00  0.00    +0.000 OA
ATOM      9  C   UNL     1       9.717  11.959  18.346  0.00  0.00    +0.000 A 
ATOM     10  C   UNL     1       9.327  10.688  17.930  0.00  0.00    +0.000 A 
ATOM     11  C   UNL     1       9.017   9.695  18.860  0.00  0.00    +0.000 A 
ATOM     12  C   UNL     1       9.062  10.015  20.225  0.00  0.00    +0.000 A 
ATOM     13  C   UNL     1       9.448  11.296  20.648  0.00  0.00    +0.000 A 
ATOM     14  C   UNL     1       9.782  12.265  19.704  0.00  0.00    +0.000 A 
ATOM     15  N   UNL     1      10.150  13.546  20.111  0.00  0.00    +0.000 N 
ATOM     16  H   UNL     1      10.117  13.826  21.082  0.00  0.00    +0.000 HD
ENDBRANCH   1  11
BRANCH   2  17
ATOM     17  C   UNL     1       7.491   6.517  17.397  0.00  0.00    +0.000 C 
ATOM     18  C   UNL     1       6.258   6.179  16.546  0.00  0.00    +0.000 C 
ATOM     19  C   UNL     1       4.980   6.438  17.337  0.00  0.00    +0.000 C 
ATOM     20  N   UNL     1       4.995   5.594  18.529  0.00  0.00    +0.000 N 
ATOM     21  C   UNL     1       6.089   5.859  19.470  0.00  0.00    +0.000 C 
ATOM     22  C   UNL     1       7.438   5.749  18.736  0.00  0.00    +0.000 C 
BRANCH  20  23
ATOM     23  C   UNL     1       4.085   4.569  18.706  0.00  0.00    +0.000 A 
ATOM     24  C   UNL     1       4.401   3.241  18.369  0.00  0.00    +0.000 A 
ATOM     25  C   UNL     1       3.481   2.204  18.534  0.00  0.00    +0.000 A 
ATOM     26  F   UNL     1       3.841   0.956  18.202  0.00  0.00    +0.000 F 
ATOM     27  C   UNL     1       2.219   2.457  19.035  0.00  0.00    +0.000 A 
ATOM     28  F   UNL     1       1.337   1.459  19.189  0.00  0.00    +0.000 F 
ATOM     29  C   UNL     1       1.880   3.755  19.374  0.00  0.00    +0.000 A 
ATOM     30  F   UNL     1       0.656   4.027  19.849  0.00  0.00    +0.000 F 
ATOM     31  C   UNL     1       2.797   4.799  19.215  0.00  0.00    +0.000 A 
ENDBRANCH  20  23
ENDBRANCH   2  17
TORSDOF 3
ENDMDL
MODEL 8
REMARK VINA RESULT:      -9.1      1.138      1.148
REMARK  Name = 
REMARK  3 active torsions:
REMARK  status: ('A' for Active; 'I' for Inactive)
REMARK    1  A    between atoms: C_7  and  N_8
REMARK    2  A    between atoms: C_9  and  C_11
REMARK    3  A    between atoms: N_14  and  C_15
REMARK                            x       y       z     vdW  Elec       q    Type
REMARK                         _______ _______ _______ _____ _____    ______ ____
ROOT
ATOM      1  N   UNL     1       8.644   8.424  18.393  0.00  0.00    +0.000 N 
ATOM      2  C   UNL     1       7.568   8.093  17.578  0.00  0.00    +0.000 C 
ATOM      3  O   UNL     1       6.784   8.891  17.074  0.00  0.00    +0.000 OA
ATOM      4  H   UNL     1       9.265   7.680  18.682  0.00  0.00    +0.000 HD
ENDROOT
BRANCH   1  11
ATOM      5  O   UNL     1      10.890  15.646  19.575  0.00  0.00    +0.000 OA
ATOM      6  C   UNL     1      10.591  14.515  19.206  0.00  0.00    +0.000 C 
ATOM      7  C   UNL     1      10.722  14.044  17.756  0.00  0.00    +0.000 C 
ATOM      8  O   UNL     1       9.966  12.924  17.324  0.00  0.00    +0.000 OA
ATOM      9  C   UNL     1       9.726  12.001  18.304  0.00  0.00    +0.000 A 
ATOM     10  C   UNL     1       9.324  10.740  17.869  0.00  0.00    +0.000 A 
ATOM     11  C   UNL     1       9.018   9.732  18.785  0.00  0.00    +0.000 A 
ATOM     12  C   UNL     1       9.080  10.026  20.155  0.00  0.00    +0.000 A 
ATOM     13  C   UNL     1       9.478  11.297  20.597  0.00  0.00    +0.000 A 
ATOM     14  C   UNL     1       9.808  12.281  19.667  0.00  0.00    +0.000 A 
ATOM     15  N   UNL     1      10.188  13.552  20.094  0.00  0.00    +0.000 N 
ATOM     16  H   UNL     1      10.167  13.814  21.070  0.00  0.00    +0.000 HD
ENDBRANCH   1  11
BRANCH   2  17
ATOM     17  C   UNL     1       7.429   6.588  17.314  0.00  0.00    +0.000 C 
ATOM     18  C   UNL     1       6.159   6.268  16.514  0.00  0.00    +0.000 C 
ATOM     19  C   UNL     1       4.919   6.492  17.374  0.00  0.00    +0.000 C 
ATOM     20  N   UNL     1       4.997   5.611  18.536  0.00  0.00    +0.000 N 
ATOM     21  C   UNL     1       6.134   5.855  19.431  0.00  0.00    +0.000 C 
ATOM     22  C   UNL     1       7.446   5.778  18.630  0.00  0.00    +0.000 C 
BRANCH  20  23
ATOM     23  C   UNL     1       4.103   4.573  18.724  0.00  0.00    +0.000 A 
ATOM     24  C   UNL     1       2.870   4.775  19.368  0.00  0.00    +0.000 A 
ATOM     25  C   UNL     1       1.970   3.728  19.573  0.00  0.00    +0.000 A 
ATOM     26  F   UNL     1       0.805   3.982  20.186  0.00  0.00    +0.000 F 
ATOM     27  C   UNL     1       2.271   2.449  19.149  0.00  0.00    +0.000 A 
ATOM     28  F   UNL     1       1.406   1.444  19.350  0.00  0.00    +0.000 F 
ATOM     29  C   UNL     1       3.480   2.220  18.514  0.00  0.00    +0.000 A 
ATOM     30  F   UNL     1       3.800   0.984  18.105  0.00  0.00    +0.000 F 
ATOM     31  C   UNL     1       4.385   3.265  18.301  0.00  0.00    +0.000 A 
ENDBRANCH  20  23
ENDBRANCH   2  17
TORSDOF 3
ENDMDL
MODEL 9
REMARK VINA RESULT:      -9.0      1.332      1.772
REMARK  Name = 
REMARK  3 active torsions:
REMARK  status: ('A' for Active; 'I' for Inactive)
REMARK    1  A    between atoms: C_7  and  N_8
REMARK    2  A    between atoms: C_9  and  C_11
REMARK    3  A    between atoms: N_14  and  C_15
REMARK                            x       y       z     vdW  Elec       q    Type
REMARK                         _______ _______ _______ _____ _____    ______ ____
ROOT
ATOM      1  N   UNL     1       7.794   8.731  17.390  0.00  0.00    +0.000 N 
ATOM      2  C   UNL     1       7.942   7.488  17.994  0.00  0.00    +0.000 C 
ATOM      3  O   UNL     1       8.536   7.273  19.045  0.00  0.00    +0.000 OA
ATOM      4  H   UNL     1       7.212   8.790  16.565  0.00  0.00    +0.000 HD
ENDROOT
BRANCH   1  11
ATOM      5  O   UNL     1      10.833  14.867  20.813  0.00  0.00    +0.000 OA
ATOM      6  C   UNL     1      10.387  13.791  20.428  0.00  0.00    +0.000 C 
ATOM      7  C   UNL     1      10.488  12.500  21.243  0.00  0.00    +0.000 C 
ATOM      8  O   UNL     1      10.367  11.253  20.577  0.00  0.00    +0.000 OA
ATOM      9  C   UNL     1       9.554  11.283  19.479  0.00  0.00    +0.000 A 
ATOM     10  C   UNL     1       9.109  10.047  19.014  0.00  0.00    +0.000 A 
ATOM     11  C   UNL     1       8.303   9.958  17.878  0.00  0.00    +0.000 A 
ATOM     12  C   UNL     1       7.985  11.136  17.185  0.00  0.00    +0.000 A 
ATOM     13  C   UNL     1       8.436  12.382  17.646  0.00  0.00    +0.000 A 
ATOM     14  C   UNL     1       9.216  12.452  18.799  0.00  0.00    +0.000 A 
ATOM     15  N   UNL     1       9.685  13.683  19.256  0.00  0.00    +0.000 N 
ATOM     16  H   UNL     1       9.535  14.536  18.735  0.00  0.00    +0.000 HD
ENDBRANCH   1  11
BRANCH   2  17
ATOM     17  C   UNL     1       7.257   6.344  17.235  0.00  0.00    +0.000 C 
ATOM     18  C   UNL     1       5.844   6.733  16.778  0.00  0.00    +0.000 C 
ATOM     19  C   UNL     1       4.909   6.839  17.978  0.00  0.00    +0.000 C 
ATOM     20  N   UNL     1       4.864   5.541  18.646  0.00  0.00    +0.000 N 
ATOM     21  C   UNL     1       6.142   5.076  19.196  0.00  0.00    +0.000 C 
ATOM     22  C   UNL     1       7.204   5.053  18.082  0.00  0.00    +0.000 C 
BRANCH  20  23
ATOM     23  C   UNL     1       3.711   4.779  18.679  0.00  0.00    +0.000 A 
ATOM     24  C   UNL     1       3.544   3.744  19.615  0.00  0.00    +0.000 A 
ATOM     25  C   UNL     1       2.387   2.962  19.645  0.00  0.00    +0.000 A 
ATOM     26  F   UNL     1       2.280   1.993  20.565  0.00  0.00    +0.000 F 
ATOM     27  C   UNL     1       1.366   3.183  18.742  0.00  0.00    +0.000 A 
ATOM     28  F   UNL     1       0.258   2.429  18.771  0.00  0.00    +0.000 F 
ATOM     29  C   UNL     1       1.505   4.195  17.807  0.00  0.00    +0.000 A 
ATOM     30  F   UNL     1       0.532   4.419  16.912  0.00  0.00    +0.000 F 
ATOM     31  C   UNL     1       2.658   4.985  17.774  0.00  0.00    +0.000 A 
ENDBRANCH  20  23
ENDBRANCH   2  17
TORSDOF 3
ENDMDL
