MODEL 1
REMARK VINA RESULT:      -7.7      0.000      0.000
REMARK  Name = 
REMARK  10 active torsions:
REMARK  status: ('A' for Active; 'I' for Inactive)
REMARK    1  A    between atoms: C_1  and  C_2
REMARK    2  A    between atoms: C_6  and  N_7
REMARK    3  A    between atoms: N_7  and  C_8
REMARK    4  A    between atoms: N_11  and  S_12
REMARK    5  A    between atoms: S_12  and  C_15
REMARK    6  A    between atoms: C_15  and  C_16
REMARK    7  A    between atoms: C_16  and  N_17
REMARK    8  A    between atoms: N_22  and  C_23
REMARK    9  A    between atoms: N_22  and  C_24
REMARK   10  A    between atoms: C_24  and  C_25
REMARK                            x       y       z     vdW  Elec       q    Type
REMARK                         _______ _______ _______ _____ _____    ______ ____
ROOT
ATOM      1  C   UNL     1       1.963   1.870  18.322  0.00  0.00    +0.000 C 
ATOM      2  C   UNL     1       1.898   3.159  19.045  0.00  0.00    +0.000 A 
ATOM      3  N   UNL     1       1.190   3.420  20.127  0.00  0.00    +0.000 NA
ATOM      4  N   UNL     1       1.341   4.754  20.423  0.00  0.00    +0.000 NA
ATOM      5  C   UNL     1       2.139   5.276  19.513  0.00  0.00    +0.000 A 
ATOM      6  C   UNL     1       2.601   6.607  19.312  0.00  0.00    +0.000 A 
ATOM      7  C   UNL     1       3.403   6.800  18.255  0.00  0.00    +0.000 A 
ATOM      8  C   UNL     1       3.837   5.652  17.377  0.00  0.00    +0.000 A 
ATOM      9  N   UNL     1       4.706   5.872  16.308  0.00  0.00    +0.000 N 
ATOM     10  C   UNL     1       4.896   7.187  15.705  0.00  0.00    +0.000 C 
ATOM     11  N   UNL     1       3.420   4.428  17.593  0.00  0.00    +0.000 NA
ATOM     12  N   UNL     1       2.559   4.298  18.640  0.00  0.00    +0.000 N 
ENDROOT
BRANCH   6  13
ATOM     13  N   UNL     1       2.128   7.633  20.140  0.00  0.00    +0.000 N 
ATOM     14  H   UNL     1       2.939   8.225  20.364  0.00  0.00    +0.000 HD
BRANCH  13  15
ATOM     15  C   UNL     1       0.961   8.509  19.920  0.00  0.00    +0.000 C 
ATOM     16  C   UNL     1       1.013   9.299  18.618  0.00  0.00    +0.000 C 
ATOM     17  C   UNL     1       1.482  10.744  18.707  0.00  0.00    +0.000 C 
ATOM     18  N   UNL     1       1.032  11.465  19.934  0.00  0.00    +0.000 NA
ATOM     19  C   UNL     1       1.272  10.681  21.184  0.00  0.00    +0.000 C 
ATOM     20  C   UNL     1       0.562   9.341  21.125  0.00  0.00    +0.000 C 
BRANCH  18  21
ATOM     21  S   UNL     1       1.700  13.058  20.078  0.00  0.00    +0.000 S 
ATOM     22  O   UNL     1       2.275  13.175  21.398  0.00  0.00    +0.000 OA
ATOM     23  O   UNL     1       2.502  13.287  18.898  0.00  0.00    +0.000 OA
BRANCH  21  24
ATOM     24  C   UNL     1       0.252  14.114  20.014  0.00  0.00    +0.000 C 
BRANCH  24  25
ATOM     25  C   UNL     1      -0.930  13.319  19.473  0.00  0.00    +0.000 C 
BRANCH  25  26
ATOM     26  N   UNL     1      -0.920  13.279  18.009  0.00  0.00    +0.000 NA
ATOM     27  H   UNL     1      -1.699  12.716  17.668  0.00  0.00    +0.000 HD
ATOM     28  H   UNL     1      -0.074  12.798  17.694  0.00  0.00    +0.000 HD
ENDBRANCH  25  26
ENDBRANCH  24  25
ENDBRANCH  21  24
ENDBRANCH  18  21
ENDBRANCH  13  15
ENDBRANCH   6  13
BRANCH   9  29
ATOM     29  C   UNL     1       5.853   4.965  16.135  0.00  0.00    +0.000 C 
BRANCH  29  30
ATOM     30  C   UNL     1       6.232   4.619  14.710  0.00  0.00    +0.000 A 
ATOM     31  C   UNL     1       5.539   3.705  13.908  0.00  0.00    +0.000 A 
ATOM     32  C   UNL     1       5.982   3.421  12.609  0.00  0.00    +0.000 A 
ATOM     33  C   UNL     1       7.119   4.044  12.098  0.00  0.00    +0.000 A 
ATOM     34  C   UNL     1       7.814   4.963  12.878  0.00  0.00    +0.000 A 
ATOM     35  C   UNL     1       7.372   5.246  14.170  0.00  0.00    +0.000 A 
ENDBRANCH  29  30
ENDBRANCH   9  29
TORSDOF 8
ENDMDL
MODEL 2
REMARK VINA RESULT:      -7.6      0.579      1.030
REMARK  Name = 
REMARK  10 active torsions:
REMARK  status: ('A' for Active; 'I' for Inactive)
REMARK    1  A    between atoms: C_1  and  C_2
REMARK    2  A    between atoms: C_6  and  N_7
REMARK    3  A    between atoms: N_7  and  C_8
REMARK    4  A    between atoms: N_11  and  S_12
REMARK    5  A    between atoms: S_12  and  C_15
REMARK    6  A    between atoms: C_15  and  C_16
REMARK    7  A    between atoms: C_16  and  N_17
REMARK    8  A    between atoms: N_22  and  C_23
REMARK    9  A    between atoms: N_22  and  C_24
REMARK   10  A    between atoms: C_24  and  C_25
REMARK                            x       y       z     vdW  Elec       q    Type
REMARK                         _______ _______ _______ _____ _____    ______ ____
ROOT
ATOM      1  C   UNL     1       1.854   1.841  18.598  0.00  0.00    +0.000 C 
ATOM      2  C   UNL     1       1.822   3.157  19.273  0.00  0.00    +0.000 A 
ATOM      3  N   UNL     1       1.132   3.473  20.352  0.00  0.00    +0.000 NA
ATOM      4  N   UNL     1       1.312   4.814  20.596  0.00  0.00    +0.000 NA
ATOM      5  C   UNL     1       2.108   5.286  19.657  0.00  0.00    +0.000 A 
ATOM      6  C   UNL     1       2.593   6.599  19.401  0.00  0.00    +0.000 A 
ATOM      7  C   UNL     1       3.386   6.736  18.329  0.00  0.00    +0.000 A 
ATOM      8  C   UNL     1       3.787   5.549  17.489  0.00  0.00    +0.000 A 
ATOM      9  N   UNL     1       4.647   5.711  16.403  0.00  0.00    +0.000 N 
ATOM     10  C   UNL     1       4.855   6.998  15.748  0.00  0.00    +0.000 C 
ATOM     11  N   UNL     1       3.350   4.342  17.757  0.00  0.00    +0.000 NA
ATOM     12  N   UNL     1       2.499   4.268  18.818  0.00  0.00    +0.000 N 
ENDROOT
BRANCH   6  13
ATOM     13  N   UNL     1       2.150   7.664  20.195  0.00  0.00    +0.000 N 
ATOM     14  H   UNL     1       2.955   8.293  20.316  0.00  0.00    +0.000 HD
BRANCH  13  15
ATOM     15  C   UNL     1       0.941   8.490  20.010  0.00  0.00    +0.000 C 
ATOM     16  C   UNL     1       0.936   9.306  18.722  0.00  0.00    +0.000 C 
ATOM     17  C   UNL     1       1.340  10.769  18.832  0.00  0.00    +0.000 C 
ATOM     18  N   UNL     1       0.877  11.446  20.079  0.00  0.00    +0.000 NA
ATOM     19  C   UNL     1       1.173  10.650  21.310  0.00  0.00    +0.000 C 
ATOM     20  C   UNL     1       0.523   9.281  21.237  0.00  0.00    +0.000 C 
BRANCH  18  21
ATOM     21  S   UNL     1       1.475  13.065  20.245  0.00  0.00    +0.000 S 
ATOM     22  O   UNL     1       2.270  13.119  21.449  0.00  0.00    +0.000 OA
ATOM     23  O   UNL     1       2.038  13.438  18.967  0.00  0.00    +0.000 OA
BRANCH  21  24
ATOM     24  C   UNL     1      -0.016  14.021  20.527  0.00  0.00    +0.000 C 
BRANCH  24  25
ATOM     25  C   UNL     1      -1.187  13.353  19.818  0.00  0.00    +0.000 C 
BRANCH  25  26
ATOM     26  N   UNL     1      -1.956  12.509  20.737  0.00  0.00    +0.000 NA
ATOM     27  H   UNL     1      -2.912  12.403  20.399  0.00  0.00    +0.000 HD
ATOM     28  H   UNL     1      -2.032  12.982  21.640  0.00  0.00    +0.000 HD
ENDBRANCH  25  26
ENDBRANCH  24  25
ENDBRANCH  21  24
ENDBRANCH  18  21
ENDBRANCH  13  15
ENDBRANCH   6  13
BRANCH   9  29
ATOM     29  C   UNL     1       5.775   4.776  16.252  0.00  0.00    +0.000 C 
BRANCH  29  30
ATOM     30  C   UNL     1       6.288   4.559  14.843  0.00  0.00    +0.000 A 
ATOM     31  C   UNL     1       7.417   5.188  14.308  0.00  0.00    +0.000 A 
ATOM     32  C   UNL     1       7.799   4.953  12.980  0.00  0.00    +0.000 A 
ATOM     33  C   UNL     1       7.059   4.090  12.174  0.00  0.00    +0.000 A 
ATOM     34  C   UNL     1       5.939   3.448  12.693  0.00  0.00    +0.000 A 
ATOM     35  C   UNL     1       5.560   3.682  14.014  0.00  0.00    +0.000 A 
ENDBRANCH  29  30
ENDBRANCH   9  29
TORSDOF 8
ENDMDL
MODEL 3
REMARK VINA RESULT:      -7.4      1.221      1.461
REMARK  Name = 
REMARK  10 active torsions:
REMARK  status: ('A' for Active; 'I' for Inactive)
REMARK    1  A    between atoms: C_1  and  C_2
REMARK    2  A    between atoms: C_6  and  N_7
REMARK    3  A    between atoms: N_7  and  C_8
REMARK    4  A    between atoms: N_11  and  S_12
REMARK    5  A    between atoms: S_12  and  C_15
REMARK    6  A    between atoms: C_15  and  C_16
REMARK    7  A    between atoms: C_16  and  N_17
REMARK    8  A    between atoms: N_22  and  C_23
REMARK    9  A    between atoms: N_22  and  C_24
REMARK   10  A    between atoms: C_24  and  C_25
REMARK                            x       y       z     vdW  Elec       q    Type
REMARK                         _______ _______ _______ _____ _____    ______ ____
ROOT
ATOM      1  C   UNL     1       2.568   1.770  18.896  0.00  0.00    +0.000 C 
ATOM      2  C   UNL     1       2.414   3.109  19.505  0.00  0.00    +0.000 A 
ATOM      3  N   UNL     1       1.763   3.399  20.616  0.00  0.00    +0.000 NA
ATOM      4  N   UNL     1       1.787   4.764  20.780  0.00  0.00    +0.000 NA
ATOM      5  C   UNL     1       2.452   5.276  19.763  0.00  0.00    +0.000 A 
ATOM      6  C   UNL     1       2.748   6.621  19.408  0.00  0.00    +0.000 A 
ATOM      7  C   UNL     1       3.444   6.793  18.275  0.00  0.00    +0.000 A 
ATOM      8  C   UNL     1       3.936   5.617  17.468  0.00  0.00    +0.000 A 
ATOM      9  N   UNL     1       4.695   5.821  16.315  0.00  0.00    +0.000 N 
ATOM     10  C   UNL     1       4.693   7.085  15.584  0.00  0.00    +0.000 C 
ATOM     11  N   UNL     1       3.675   4.384  17.826  0.00  0.00    +0.000 NA
ATOM     12  N   UNL     1       2.913   4.266  18.948  0.00  0.00    +0.000 N 
ENDROOT
BRANCH   6  13
ATOM     13  N   UNL     1       2.227   7.668  20.179  0.00  0.00    +0.000 N 
ATOM     14  H   UNL     1       3.008   8.310  20.367  0.00  0.00    +0.000 HD
BRANCH  13  15
ATOM     15  C   UNL     1       1.020   8.474  19.913  0.00  0.00    +0.000 C 
ATOM     16  C   UNL     1       1.067   9.253  18.604  0.00  0.00    +0.000 C 
ATOM     17  C   UNL     1       1.450  10.724  18.691  0.00  0.00    +0.000 C 
ATOM     18  N   UNL     1       0.922  11.429  19.895  0.00  0.00    +0.000 NA
ATOM     19  C   UNL     1       1.167  10.672  21.161  0.00  0.00    +0.000 C 
ATOM     20  C   UNL     1       0.536   9.294  21.096  0.00  0.00    +0.000 C 
BRANCH  18  21
ATOM     21  S   UNL     1       1.494  13.060  20.042  0.00  0.00    +0.000 S 
ATOM     22  O   UNL     1       0.362  13.939  19.871  0.00  0.00    +0.000 OA
ATOM     23  O   UNL     1       2.301  13.115  21.239  0.00  0.00    +0.000 OA
BRANCH  21  24
ATOM     24  C   UNL     1       2.558  13.247  18.611  0.00  0.00    +0.000 C 
BRANCH  24  25
ATOM     25  C   UNL     1       2.895  14.721  18.420  0.00  0.00    +0.000 C 
BRANCH  25  26
ATOM     26  N   UNL     1       3.726  15.224  19.516  0.00  0.00    +0.000 NA
ATOM     27  H   UNL     1       3.137  15.564  20.275  0.00  0.00    +0.000 HD
ATOM     28  H   UNL     1       4.252  16.038  19.189  0.00  0.00    +0.000 HD
ENDBRANCH  25  26
ENDBRANCH  24  25
ENDBRANCH  21  24
ENDBRANCH  18  21
ENDBRANCH  13  15
ENDBRANCH   6  13
BRANCH   9  29
ATOM     29  C   UNL     1       5.920   5.025  16.128  0.00  0.00    +0.000 C 
BRANCH  29  30
ATOM     30  C   UNL     1       6.282   4.669  14.701  0.00  0.00    +0.000 A 
ATOM     31  C   UNL     1       5.562   3.772  13.904  0.00  0.00    +0.000 A 
ATOM     32  C   UNL     1       5.990   3.475  12.603  0.00  0.00    +0.000 A 
ATOM     33  C   UNL     1       7.140   4.068  12.085  0.00  0.00    +0.000 A 
ATOM     34  C   UNL     1       7.862   4.970  12.860  0.00  0.00    +0.000 A 
ATOM     35  C   UNL     1       7.435   5.266  14.154  0.00  0.00    +0.000 A 
ENDBRANCH  29  30
ENDBRANCH   9  29
TORSDOF 8
ENDMDL
MODEL 4
REMARK VINA RESULT:      -7.4      0.903      1.001
REMARK  Name = 
REMARK  10 active torsions:
REMARK  status: ('A' for Active; 'I' for Inactive)
REMARK    1  A    between atoms: C_1  and  C_2
REMARK    2  A    between atoms: C_6  and  N_7
REMARK    3  A    between atoms: N_7  and  C_8
REMARK    4  A    between atoms: N_11  and  S_12
REMARK    5  A    between atoms: S_12  and  C_15
REMARK    6  A    between atoms: C_15  and  C_16
REMARK    7  A    between atoms: C_16  and  N_17
REMARK    8  A    between atoms: N_22  and  C_23
REMARK    9  A    between atoms: N_22  and  C_24
REMARK   10  A    between atoms: C_24  and  C_25
REMARK                            x       y       z     vdW  Elec       q    Type
REMARK                         _______ _______ _______ _____ _____    ______ ____
ROOT
ATOM      1  C   UNL     1       1.907   1.857  18.447  0.00  0.00    +0.000 C 
ATOM      2  C   UNL     1       1.874   3.150  19.166  0.00  0.00    +0.000 A 
ATOM      3  N   UNL     1       1.190   3.427  20.260  0.00  0.00    +0.000 NA
ATOM      4  N   UNL     1       1.368   4.759  20.547  0.00  0.00    +0.000 NA
ATOM      5  C   UNL     1       2.156   5.266  19.620  0.00  0.00    +0.000 A 
ATOM      6  C   UNL     1       2.635   6.588  19.405  0.00  0.00    +0.000 A 
ATOM      7  C   UNL     1       3.420   6.764  18.333  0.00  0.00    +0.000 A 
ATOM      8  C   UNL     1       3.820   5.607  17.451  0.00  0.00    +0.000 A 
ATOM      9  N   UNL     1       4.672   5.808  16.366  0.00  0.00    +0.000 N 
ATOM     10  C   UNL     1       4.871   7.118  15.753  0.00  0.00    +0.000 C 
ATOM     11  N   UNL     1       3.389   4.390  17.681  0.00  0.00    +0.000 NA
ATOM     12  N   UNL     1       2.545   4.277  18.744  0.00  0.00    +0.000 N 
ENDROOT
BRANCH   6  13
ATOM     13  N   UNL     1       2.193   7.625  20.237  0.00  0.00    +0.000 N 
ATOM     14  H   UNL     1       2.950   8.321  20.263  0.00  0.00    +0.000 HD
BRANCH  13  15
ATOM     15  C   UNL     1       0.905   8.342  20.183  0.00  0.00    +0.000 C 
ATOM     16  C   UNL     1       0.779   9.308  19.010  0.00  0.00    +0.000 C 
ATOM     17  C   UNL     1       1.044  10.779  19.298  0.00  0.00    +0.000 C 
ATOM     18  N   UNL     1       0.560  11.245  20.630  0.00  0.00    +0.000 NA
ATOM     19  C   UNL     1       0.970  10.335  21.743  0.00  0.00    +0.000 C 
ATOM     20  C   UNL     1       0.454   8.928  21.509  0.00  0.00    +0.000 C 
BRANCH  18  21
ATOM     21  S   UNL     1       1.004  12.882  20.989  0.00  0.00    +0.000 S 
ATOM     22  O   UNL     1       0.224  13.310  22.126  0.00  0.00    +0.000 OA
ATOM     23  O   UNL     1       2.448  12.929  21.021  0.00  0.00    +0.000 OA
BRANCH  21  24
ATOM     24  C   UNL     1       0.422  13.785  19.552  0.00  0.00    +0.000 C 
BRANCH  24  25
ATOM     25  C   UNL     1      -0.560  14.862  19.995  0.00  0.00    +0.000 C 
BRANCH  25  26
ATOM     26  N   UNL     1       0.118  15.932  20.731  0.00  0.00    +0.000 NA
ATOM     27  H   UNL     1       0.282  15.646  21.695  0.00  0.00    +0.000 HD
ATOM     28  H   UNL     1      -0.502  16.744  20.786  0.00  0.00    +0.000 HD
ENDBRANCH  25  26
ENDBRANCH  24  25
ENDBRANCH  21  24
ENDBRANCH  18  21
ENDBRANCH  13  15
ENDBRANCH   6  13
BRANCH   9  29
ATOM     29  C   UNL     1       5.803   4.883  16.176  0.00  0.00    +0.000 C 
BRANCH  29  30
ATOM     30  C   UNL     1       6.197   4.584  14.745  0.00  0.00    +0.000 A 
ATOM     31  C   UNL     1       5.514   3.698  13.905  0.00  0.00    +0.000 A 
ATOM     32  C   UNL     1       5.972   3.456  12.603  0.00  0.00    +0.000 A 
ATOM     33  C   UNL     1       7.115   4.095  12.126  0.00  0.00    +0.000 A 
ATOM     34  C   UNL     1       7.801   4.988  12.944  0.00  0.00    +0.000 A 
ATOM     35  C   UNL     1       7.344   5.228  14.239  0.00  0.00    +0.000 A 
ENDBRANCH  29  30
ENDBRANCH   9  29
TORSDOF 8
ENDMDL
MODEL 5
REMARK VINA RESULT:      -7.2      1.229      1.722
REMARK  Name = 
REMARK  10 active torsions:
REMARK  status: ('A' for Active; 'I' for Inactive)
REMARK    1  A    between atoms: C_1  and  C_2
REMARK    2  A    between atoms: C_6  and  N_7
REMARK    3  A    between atoms: N_7  and  C_8
REMARK    4  A    between atoms: N_11  and  S_12
REMARK    5  A    between atoms: S_12  and  C_15
REMARK    6  A    between atoms: C_15  and  C_16
REMARK    7  A    between atoms: C_16  and  N_17
REMARK    8  A    between atoms: N_22  and  C_23
REMARK    9  A    between atoms: N_22  and  C_24
REMARK   10  A    between atoms: C_24  and  C_25
REMARK                            x       y       z     vdW  Elec       q    Type
REMARK                         _______ _______ _______ _____ _____    ______ ____
ROOT
ATOM      1  C   UNL     1       1.590   2.079  18.594  0.00  0.00    +0.000 C 
ATOM      2  C   UNL     1       1.614   3.392  19.276  0.00  0.00    +0.000 A 
ATOM      3  N   UNL     1       0.927   3.736  20.349  0.00  0.00    +0.000 NA
ATOM      4  N   UNL     1       1.170   5.064  20.603  0.00  0.00    +0.000 NA
ATOM      5  C   UNL     1       2.001   5.502  19.677  0.00  0.00    +0.000 A 
ATOM      6  C   UNL     1       2.553   6.790  19.435  0.00  0.00    +0.000 A 
ATOM      7  C   UNL     1       3.366   6.894  18.374  0.00  0.00    +0.000 A 
ATOM      8  C   UNL     1       3.718   5.692  17.532  0.00  0.00    +0.000 A 
ATOM      9  N   UNL     1       4.599   5.818  16.458  0.00  0.00    +0.000 N 
ATOM     10  C   UNL     1       4.878   7.097  15.814  0.00  0.00    +0.000 C 
ATOM     11  N   UNL     1       3.218   4.507  17.787  0.00  0.00    +0.000 NA
ATOM     12  N   UNL     1       2.351   4.469  18.836  0.00  0.00    +0.000 N 
ENDROOT
BRANCH   6  13
ATOM     13  N   UNL     1       2.153   7.872  20.230  0.00  0.00    +0.000 N 
ATOM     14  H   UNL     1       2.919   8.558  20.197  0.00  0.00    +0.000 HD
BRANCH  13  15
ATOM     15  C   UNL     1       0.873   8.604  20.185  0.00  0.00    +0.000 C 
ATOM     16  C   UNL     1       0.562   9.231  18.830  0.00  0.00    +0.000 C 
ATOM     17  C   UNL     1       0.869  10.713  18.670  0.00  0.00    +0.000 C 
ATOM     18  N   UNL     1       0.603  11.534  19.887  0.00  0.00    +0.000 NA
ATOM     19  C   UNL     1       1.185  10.933  21.127  0.00  0.00    +0.000 C 
ATOM     20  C   UNL     1       0.638   9.537  21.359  0.00  0.00    +0.000 C 
BRANCH  18  21
ATOM     21  S   UNL     1       1.098  13.187  19.723  0.00  0.00    +0.000 S 
ATOM     22  O   UNL     1       1.490  13.394  18.349  0.00  0.00    +0.000 OA
ATOM     23  O   UNL     1       0.067  13.998  20.330  0.00  0.00    +0.000 OA
BRANCH  21  24
ATOM     24  C   UNL     1       2.577  13.270  20.735  0.00  0.00    +0.000 C 
BRANCH  24  25
ATOM     25  C   UNL     1       3.468  14.401  20.236  0.00  0.00    +0.000 C 
BRANCH  25  26
ATOM     26  N   UNL     1       2.689  15.608  19.950  0.00  0.00    +0.000 NA
ATOM     27  H   UNL     1       2.517  15.686  18.948  0.00  0.00    +0.000 HD
ATOM     28  H   UNL     1       3.244  16.430  20.200  0.00  0.00    +0.000 HD
ENDBRANCH  25  26
ENDBRANCH  24  25
ENDBRANCH  21  24
ENDBRANCH  18  21
ENDBRANCH  13  15
ENDBRANCH   6  13
BRANCH   9  29
ATOM     29  C   UNL     1       5.682   4.829  16.316  0.00  0.00    +0.000 C 
BRANCH  29  30
ATOM     30  C   UNL     1       6.210   4.604  14.914  0.00  0.00    +0.000 A 
ATOM     31  C   UNL     1       7.354   5.217  14.393  0.00  0.00    +0.000 A 
ATOM     32  C   UNL     1       7.751   4.976  13.071  0.00  0.00    +0.000 A 
ATOM     33  C   UNL     1       7.010   4.123  12.255  0.00  0.00    +0.000 A 
ATOM     34  C   UNL     1       5.874   3.496  12.760  0.00  0.00    +0.000 A 
ATOM     35  C   UNL     1       5.481   3.736  14.076  0.00  0.00    +0.000 A 
ENDBRANCH  29  30
ENDBRANCH   9  29
TORSDOF 8
ENDMDL
MODEL 6
REMARK VINA RESULT:      -7.1      1.879      2.224
REMARK  Name = 
REMARK  10 active torsions:
REMARK  status: ('A' for Active; 'I' for Inactive)
REMARK    1  A    between atoms: C_1  and  C_2
REMARK    2  A    between atoms: C_6  and  N_7
REMARK    3  A    between atoms: N_7  and  C_8
REMARK    4  A    between atoms: N_11  and  S_12
REMARK    5  A    between atoms: S_12  and  C_15
REMARK    6  A    between atoms: C_15  and  C_16
REMARK    7  A    between atoms: C_16  and  N_17
REMARK    8  A    between atoms: N_22  and  C_23
REMARK    9  A    between atoms: N_22  and  C_24
REMARK   10  A    between atoms: C_24  and  C_25
REMARK                            x       y       z     vdW  Elec       q    Type
REMARK                         _______ _______ _______ _____ _____    ______ ____
ROOT
ATOM      1  C   UNL     1       3.021   1.449  18.298  0.00  0.00    +0.000 C 
ATOM      2  C   UNL     1       2.638   2.701  18.987  0.00  0.00    +0.000 A 
ATOM      3  N   UNL     1       1.880   2.809  20.062  0.00  0.00    +0.000 NA
ATOM      4  N   UNL     1       1.699   4.146  20.324  0.00  0.00    +0.000 NA
ATOM      5  C   UNL     1       2.351   4.824  19.401  0.00  0.00    +0.000 A 
ATOM      6  C   UNL     1       2.476   6.222  19.166  0.00  0.00    +0.000 A 
ATOM      7  C   UNL     1       3.214   6.579  18.105  0.00  0.00    +0.000 A 
ATOM      8  C   UNL     1       3.921   5.550  17.257  0.00  0.00    +0.000 A 
ATOM      9  N   UNL     1       4.718   5.949  16.183  0.00  0.00    +0.000 N 
ATOM     10  C   UNL     1       4.585   7.255  15.546  0.00  0.00    +0.000 C 
ATOM     11  N   UNL     1       3.814   4.268  17.505  0.00  0.00    +0.000 NA
ATOM     12  N   UNL     1       3.004   3.957  18.554  0.00  0.00    +0.000 N 
ENDROOT
BRANCH   6  13
ATOM     13  N   UNL     1       1.761   7.122  19.967  0.00  0.00    +0.000 N 
ATOM     14  H   UNL     1       1.737   6.716  20.912  0.00  0.00    +0.000 HD
BRANCH  13  15
ATOM     15  C   UNL     1       1.962   8.578  20.093  0.00  0.00    +0.000 C 
ATOM     16  C   UNL     1       1.027   9.252  21.090  0.00  0.00    +0.000 C 
ATOM     17  C   UNL     1      -0.200   9.950  20.522  0.00  0.00    +0.000 C 
ATOM     18  N   UNL     1       0.030  10.639  19.219  0.00  0.00    +0.000 NA
ATOM     19  C   UNL     1       0.739   9.775  18.226  0.00  0.00    +0.000 C 
ATOM     20  C   UNL     1       2.079   9.315  18.770  0.00  0.00    +0.000 C 
BRANCH  18  21
ATOM     21  S   UNL     1      -1.416  11.299  18.526  0.00  0.00    +0.000 S 
ATOM     22  O   UNL     1      -2.431  11.307  19.553  0.00  0.00    +0.000 OA
ATOM     23  O   UNL     1      -1.039  12.518  17.847  0.00  0.00    +0.000 OA
BRANCH  21  24
ATOM     24  C   UNL     1      -1.878  10.070  17.304  0.00  0.00    +0.000 C 
BRANCH  24  25
ATOM     25  C   UNL     1      -2.655  10.742  16.179  0.00  0.00    +0.000 C 
BRANCH  25  26
ATOM     26  N   UNL     1      -3.630  11.702  16.702  0.00  0.00    +0.000 NA
ATOM     27  H   UNL     1      -3.813  12.428  16.010  0.00  0.00    +0.000 HD
ATOM     28  H   UNL     1      -3.224  12.184  17.507  0.00  0.00    +0.000 HD
ENDBRANCH  25  26
ENDBRANCH  24  25
ENDBRANCH  21  24
ENDBRANCH  18  21
ENDBRANCH  13  15
ENDBRANCH   6  13
BRANCH   9  29
ATOM     29  C   UNL     1       6.053   5.345  16.035  0.00  0.00    +0.000 C 
BRANCH  29  30
ATOM     30  C   UNL     1       6.432   4.877  14.646  0.00  0.00    +0.000 A 
ATOM     31  C   UNL     1       5.752   3.882  13.935  0.00  0.00    +0.000 A 
ATOM     32  C   UNL     1       6.195   3.487  12.665  0.00  0.00    +0.000 A 
ATOM     33  C   UNL     1       7.318   4.080  12.092  0.00  0.00    +0.000 A 
ATOM     34  C   UNL     1       8.000   5.078  12.781  0.00  0.00    +0.000 A 
ATOM     35  C   UNL     1       7.559   5.471  14.044  0.00  0.00    +0.000 A 
ENDBRANCH  29  30
ENDBRANCH   9  29
TORSDOF 8
ENDMDL
MODEL 7
REMARK VINA RESULT:      -7.1      2.493      2.930
REMARK  Name = 
REMARK  10 active torsions:
REMARK  status: ('A' for Active; 'I' for Inactive)
REMARK    1  A    between atoms: C_1  and  C_2
REMARK    2  A    between atoms: C_6  and  N_7
REMARK    3  A    between atoms: N_7  and  C_8
REMARK    4  A    between atoms: N_11  and  S_12
REMARK    5  A    between atoms: S_12  and  C_15
REMARK    6  A    between atoms: C_15  and  C_16
REMARK    7  A    between atoms: C_16  and  N_17
REMARK    8  A    between atoms: N_22  and  C_23
REMARK    9  A    between atoms: N_22  and  C_24
REMARK   10  A    between atoms: C_24  and  C_25
REMARK                            x       y       z     vdW  Elec       q    Type
REMARK                         _______ _______ _______ _____ _____    ______ ____
ROOT
ATOM      1  C   UNL     1       2.361   1.787  18.435  0.00  0.00    +0.000 C 
ATOM      2  C   UNL     1       2.143   3.105  19.073  0.00  0.00    +0.000 A 
ATOM      3  N   UNL     1       1.384   3.356  20.123  0.00  0.00    +0.000 NA
ATOM      4  N   UNL     1       1.388   4.714  20.335  0.00  0.00    +0.000 NA
ATOM      5  C   UNL     1       2.149   5.261  19.408  0.00  0.00    +0.000 A 
ATOM      6  C   UNL     1       2.474   6.618  19.130  0.00  0.00    +0.000 A 
ATOM      7  C   UNL     1       3.278   6.829  18.078  0.00  0.00    +0.000 A 
ATOM      8  C   UNL     1       3.851   5.682  17.283  0.00  0.00    +0.000 A 
ATOM      9  N   UNL     1       4.718   5.926  16.218  0.00  0.00    +0.000 N 
ATOM     10  C   UNL     1       4.784   7.214  15.535  0.00  0.00    +0.000 C 
ATOM     11  N   UNL     1       3.559   4.436  17.570  0.00  0.00    +0.000 NA
ATOM     12  N   UNL     1       2.691   4.280  18.608  0.00  0.00    +0.000 N 
ENDROOT
BRANCH   6  13
ATOM     13  N   UNL     1       1.876   7.638  19.882  0.00  0.00    +0.000 N 
ATOM     14  H   UNL     1       2.272   7.573  20.829  0.00  0.00    +0.000 HD
BRANCH  13  15
ATOM     15  C   UNL     1       1.747   9.065  19.530  0.00  0.00    +0.000 C 
ATOM     16  C   UNL     1       0.819   9.851  20.449  0.00  0.00    +0.000 C 
ATOM     17  C   UNL     1      -0.600  10.090  19.955  0.00  0.00    +0.000 C 
ATOM     18  N   UNL     1      -0.709  10.340  18.488  0.00  0.00    +0.000 NA
ATOM     19  C   UNL     1       0.045   9.338  17.675  0.00  0.00    +0.000 C 
ATOM     20  C   UNL     1       1.515   9.332  18.054  0.00  0.00    +0.000 C 
BRANCH  18  21
ATOM     21  S   UNL     1      -2.347  10.463  17.932  0.00  0.00    +0.000 S 
ATOM     22  O   UNL     1      -3.058   9.297  18.399  0.00  0.00    +0.000 OA
ATOM     23  O   UNL     1      -2.805  11.793  18.265  0.00  0.00    +0.000 OA
BRANCH  21  24
ATOM     24  C   UNL     1      -2.183  10.331  16.151  0.00  0.00    +0.000 C 
BRANCH  24  25
ATOM     25  C   UNL     1      -3.491  10.744  15.490  0.00  0.00    +0.000 C 
BRANCH  25  26
ATOM     26  N   UNL     1      -3.633  10.139  14.163  0.00  0.00    +0.000 NA
ATOM     27  H   UNL     1      -4.029   9.203  14.245  0.00  0.00    +0.000 HD
ATOM     28  H   UNL     1      -2.704  10.010  13.754  0.00  0.00    +0.000 HD
ENDBRANCH  25  26
ENDBRANCH  24  25
ENDBRANCH  21  24
ENDBRANCH  18  21
ENDBRANCH  13  15
ENDBRANCH   6  13
BRANCH   9  29
ATOM     29  C   UNL     1       5.959   5.136  16.125  0.00  0.00    +0.000 C 
BRANCH  29  30
ATOM     30  C   UNL     1       6.437   4.793  14.730  0.00  0.00    +0.000 A 
ATOM     31  C   UNL     1       7.554   5.367  14.113  0.00  0.00    +0.000 A 
ATOM     32  C   UNL     1       7.903   5.013  12.803  0.00  0.00    +0.000 A 
ATOM     33  C   UNL     1       7.142   4.085  12.095  0.00  0.00    +0.000 A 
ATOM     34  C   UNL     1       6.034   3.496  12.697  0.00  0.00    +0.000 A 
ATOM     35  C   UNL     1       5.688   3.848  14.000  0.00  0.00    +0.000 A 
ENDBRANCH  29  30
ENDBRANCH   9  29
TORSDOF 8
ENDMDL
MODEL 8
REMARK VINA RESULT:      -7.1      4.521     10.165
REMARK  Name = 
REMARK  10 active torsions:
REMARK  status: ('A' for Active; 'I' for Inactive)
REMARK    1  A    between atoms: C_1  and  C_2
REMARK    2  A    between atoms: C_6  and  N_7
REMARK    3  A    between atoms: N_7  and  C_8
REMARK    4  A    between atoms: N_11  and  S_12
REMARK    5  A    between atoms: S_12  and  C_15
REMARK    6  A    between atoms: C_15  and  C_16
REMARK    7  A    between atoms: C_16  and  N_17
REMARK    8  A    between atoms: N_22  and  C_23
REMARK    9  A    between atoms: N_22  and  C_24
REMARK   10  A    between atoms: C_24  and  C_25
REMARK                            x       y       z     vdW  Elec       q    Type
REMARK                         _______ _______ _______ _____ _____    ______ ____
ROOT
ATOM      1  C   UNL     1      -0.784  15.078  19.554  0.00  0.00    +0.000 C 
ATOM      2  C   UNL     1      -0.474  13.703  20.002  0.00  0.00    +0.000 A 
ATOM      3  N   UNL     1       0.368  13.355  20.957  0.00  0.00    +0.000 NA
ATOM      4  N   UNL     1       0.427  11.983  20.994  0.00  0.00    +0.000 NA
ATOM      5  C   UNL     1      -0.381  11.523  20.059  0.00  0.00    +0.000 A 
ATOM      6  C   UNL     1      -0.678  10.199  19.633  0.00  0.00    +0.000 A 
ATOM      7  C   UNL     1      -1.549  10.086  18.620  0.00  0.00    +0.000 A 
ATOM      8  C   UNL     1      -2.218  11.297  18.019  0.00  0.00    +0.000 A 
ATOM      9  N   UNL     1      -3.153  11.150  16.994  0.00  0.00    +0.000 N 
ATOM     10  C   UNL     1      -3.224   9.956  16.158  0.00  0.00    +0.000 C 
ATOM     11  N   UNL     1      -1.950  12.508  18.443  0.00  0.00    +0.000 NA
ATOM     12  N   UNL     1      -1.014  12.571  19.429  0.00  0.00    +0.000 N 
ENDROOT
BRANCH   6  13
ATOM     13  N   UNL     1       0.009   9.120  20.206  0.00  0.00    +0.000 N 
ATOM     14  H   UNL     1      -0.509   8.271  19.944  0.00  0.00    +0.000 HD
BRANCH  13  15
ATOM     15  C   UNL     1       1.452   8.824  20.131  0.00  0.00    +0.000 C 
ATOM     16  C   UNL     1       2.011   8.806  18.712  0.00  0.00    +0.000 C 
ATOM     17  C   UNL     1       2.181   7.444  18.056  0.00  0.00    +0.000 C 
ATOM     18  N   UNL     1       2.621   6.361  18.984  0.00  0.00    +0.000 NA
ATOM     19  C   UNL     1       1.818   6.321  20.245  0.00  0.00    +0.000 C 
ATOM     20  C   UNL     1       1.899   7.647  20.979  0.00  0.00    +0.000 C 
BRANCH  18  21
ATOM     21  S   UNL     1       2.665   4.795  18.241  0.00  0.00    +0.000 S 
ATOM     22  O   UNL     1       1.369   4.552  17.653  0.00  0.00    +0.000 OA
ATOM     23  O   UNL     1       3.865   4.744  17.438  0.00  0.00    +0.000 OA
BRANCH  21  24
ATOM     24  C   UNL     1       2.851   3.688  19.640  0.00  0.00    +0.000 C 
BRANCH  24  25
ATOM     25  C   UNL     1       1.791   2.596  19.565  0.00  0.00    +0.000 C 
BRANCH  25  26
ATOM     26  N   UNL     1       0.528   3.036  20.162  0.00  0.00    +0.000 NA
ATOM     27  H   UNL     1       0.061   2.251  20.616  0.00  0.00    +0.000 HD
ATOM     28  H   UNL     1      -0.105   3.340  19.418  0.00  0.00    +0.000 HD
ENDBRANCH  25  26
ENDBRANCH  24  25
ENDBRANCH  21  24
ENDBRANCH  18  21
ENDBRANCH  13  15
ENDBRANCH   6  13
BRANCH   9  29
ATOM     29  C   UNL     1      -4.424  11.890  17.088  0.00  0.00    +0.000 C 
BRANCH  29  30
ATOM     30  C   UNL     1      -5.324  11.539  18.254  0.00  0.00    +0.000 A 
ATOM     31  C   UNL     1      -6.086  10.369  18.340  0.00  0.00    +0.000 A 
ATOM     32  C   UNL     1      -6.919  10.142  19.444  0.00  0.00    +0.000 A 
ATOM     33  C   UNL     1      -7.001  11.080  20.472  0.00  0.00    +0.000 A 
ATOM     34  C   UNL     1      -6.243  12.245  20.407  0.00  0.00    +0.000 A 
ATOM     35  C   UNL     1      -5.413  12.469  19.309  0.00  0.00    +0.000 A 
ENDBRANCH  29  30
ENDBRANCH   9  29
TORSDOF 8
ENDMDL
MODEL 9
REMARK VINA RESULT:      -6.9      1.700      2.242
REMARK  Name = 
REMARK  10 active torsions:
REMARK  status: ('A' for Active; 'I' for Inactive)
REMARK    1  A    between atoms: C_1  and  C_2
REMARK    2  A    between atoms: C_6  and  N_7
REMARK    3  A    between atoms: N_7  and  C_8
REMARK    4  A    between atoms: N_11  and  S_12
REMARK    5  A    between atoms: S_12  and  C_15
REMARK    6  A    between atoms: C_15  and  C_16
REMARK    7  A    between atoms: C_16  and  N_17
REMARK    8  A    between atoms: N_22  and  C_23
REMARK    9  A    between atoms: N_22  and  C_24
REMARK   10  A    between atoms: C_24  and  C_25
REMARK                            x       y       z     vdW  Elec       q    Type
REMARK                         _______ _______ _______ _____ _____    ______ ____
ROOT
ATOM      1  C   UNL     1       2.730   1.459  18.304  0.00  0.00    +0.000 C 
ATOM      2  C   UNL     1       2.395   2.727  18.989  0.00  0.00    +0.000 A 
ATOM      3  N   UNL     1       1.608   2.872  20.038  0.00  0.00    +0.000 NA
ATOM      4  N   UNL     1       1.496   4.216  20.303  0.00  0.00    +0.000 NA
ATOM      5  C   UNL     1       2.217   4.861  19.408  0.00  0.00    +0.000 A 
ATOM      6  C   UNL     1       2.429   6.250  19.187  0.00  0.00    +0.000 A 
ATOM      7  C   UNL     1       3.223   6.570  18.155  0.00  0.00    +0.000 A 
ATOM      8  C   UNL     1       3.899   5.507  17.324  0.00  0.00    +0.000 A 
ATOM      9  N   UNL     1       4.753   5.864  16.281  0.00  0.00    +0.000 N 
ATOM     10  C   UNL     1       4.718   7.180  15.649  0.00  0.00    +0.000 C 
ATOM     11  N   UNL     1       3.710   4.231  17.558  0.00  0.00    +0.000 NA
ATOM     12  N   UNL     1       2.847   3.962  18.577  0.00  0.00    +0.000 N 
ENDROOT
BRANCH   6  13
ATOM     13  N   UNL     1       1.741   7.185  19.970  0.00  0.00    +0.000 N 
ATOM     14  H   UNL     1       1.770   6.836  20.937  0.00  0.00    +0.000 HD
BRANCH  13  15
ATOM     15  C   UNL     1       1.923   8.649  20.001  0.00  0.00    +0.000 C 
ATOM     16  C   UNL     1       1.096   9.357  21.068  0.00  0.00    +0.000 C 
ATOM     17  C   UNL     1      -0.204  10.006  20.616  0.00  0.00    +0.000 C 
ATOM     18  N   UNL     1      -0.144  10.632  19.263  0.00  0.00    +0.000 NA
ATOM     19  C   UNL     1       0.462   9.730  18.236  0.00  0.00    +0.000 C 
ATOM     20  C   UNL     1       1.867   9.320  18.640  0.00  0.00    +0.000 C 
BRANCH  18  21
ATOM     21  S   UNL     1      -1.676  11.232  18.715  0.00  0.00    +0.000 S 
ATOM     22  O   UNL     1      -1.419  12.308  17.786  0.00  0.00    +0.000 OA
ATOM     23  O   UNL     1      -2.461  10.084  18.322  0.00  0.00    +0.000 OA
BRANCH  21  24
ATOM     24  C   UNL     1      -2.387  11.945  20.199  0.00  0.00    +0.000 C 
BRANCH  24  25
ATOM     25  C   UNL     1      -2.096  13.440  20.232  0.00  0.00    +0.000 C 
BRANCH  25  26
ATOM     26  N   UNL     1      -0.677  13.702  20.489  0.00  0.00    +0.000 NA
ATOM     27  H   UNL     1      -0.512  13.789  21.491  0.00  0.00    +0.000 HD
ATOM     28  H   UNL     1      -0.427  14.609  20.089  0.00  0.00    +0.000 HD
ENDBRANCH  25  26
ENDBRANCH  24  25
ENDBRANCH  21  24
ENDBRANCH  18  21
ENDBRANCH  13  15
ENDBRANCH   6  13
BRANCH   9  29
ATOM     29  C   UNL     1       6.057   5.186  16.174  0.00  0.00    +0.000 C 
BRANCH  29  30
ATOM     30  C   UNL     1       6.525   4.842  14.775  0.00  0.00    +0.000 A 
ATOM     31  C   UNL     1       7.634   5.421  14.148  0.00  0.00    +0.000 A 
ATOM     32  C   UNL     1       7.974   5.066  12.836  0.00  0.00    +0.000 A 
ATOM     33  C   UNL     1       7.213   4.131  12.137  0.00  0.00    +0.000 A 
ATOM     34  C   UNL     1       6.113   3.538  12.749  0.00  0.00    +0.000 A 
ATOM     35  C   UNL     1       5.776   3.891  14.054  0.00  0.00    +0.000 A 
ENDBRANCH  29  30
ENDBRANCH   9  29
TORSDOF 8
ENDMDL
