MODEL 1
REMARK VINA RESULT:      -7.4      0.000      0.000
REMARK  Name = 
REMARK  18 active torsions:
REMARK  status: ('A' for Active; 'I' for Inactive)
REMARK    1  A    between atoms: C_1  and  C_2
REMARK    2  A    between atoms: N_4  and  C_5
REMARK    3  A    between atoms: C_5  and  C_12
REMARK    4  A    between atoms: C_6  and  C_7
REMARK    5  A    between atoms: N_14  and  C_15
REMARK    6  A    between atoms: C_15  and  C_16
REMARK    7  A    between atoms: C_15  and  C_29
REMARK    8  A    between atoms: N_18  and  C_19
REMARK    9  A    between atoms: C_19  and  C_20
REMARK   10  A    between atoms: C_19  and  C_26
REMARK   11  A    between atoms: C_21  and  C_22
REMARK   12  A    between atoms: C_21  and  C_23
REMARK   13  A    between atoms: C_23  and  O_25
REMARK   14  A    between atoms: C_26  and  C_27
REMARK   15  A    between atoms: C_26  and  C_28
REMARK   16  A    between atoms: C_29  and  C_30
REMARK   17  A    between atoms: C_29  and  C_31
REMARK   18  A    between atoms: C_29  and  C_32
REMARK                            x       y       z     vdW  Elec       q    Type
REMARK                         _______ _______ _______ _____ _____    ______ ____
ROOT
ATOM      1  C   UNL     1       3.037   4.146  19.360  0.00  0.00    +0.000 C 
ENDROOT
BRANCH   1   4
ATOM      2  C   UNL     1       1.961   6.178  20.394  0.00  0.00    +0.000 C 
ATOM      3  O   UNL     1       1.513   5.554  21.358  0.00  0.00    +0.000 OA
ATOM      4  N   UNL     1       2.679   5.579  19.389  0.00  0.00    +0.000 N 
ATOM      5  H   UNL     1       2.991   6.107  18.583  0.00  0.00    +0.000 HD
BRANCH   2   6
ATOM      6  C   UNL     1       1.630   7.666  20.270  0.00  0.00    +0.000 C 
ATOM      7  C   UNL     1       1.624   8.245  19.055  0.00  0.00    +0.000 C 
BRANCH   6  11
ATOM      8  C   UNL     1       0.333   9.341  23.378  0.00  0.00    +0.000 C 
ATOM      9  C   UNL     1       0.238   8.666  22.027  0.00  0.00    +0.000 C 
ATOM     10  O   UNL     1      -0.855   8.452  21.507  0.00  0.00    +0.000 OA
ATOM     11  N   UNL     1       1.456   8.297  21.501  0.00  0.00    +0.000 N 
ATOM     12  H   UNL     1       2.151   8.011  22.194  0.00  0.00    +0.000 HD
ENDBRANCH   6  11
BRANCH   7  13
ATOM     13  C   UNL     1       1.559   9.628  18.714  0.00  0.00    +0.000 A 
ATOM     14  C   UNL     1       0.665  10.650  19.018  0.00  0.00    +0.000 A 
ATOM     15  C   UNL     1       1.187  11.866  18.502  0.00  0.00    +0.000 A 
ATOM     16  C   UNL     1       2.372  11.536  17.901  0.00  0.00    +0.000 A 
ATOM     17  O   UNL     1       2.609  10.211  18.028  0.00  0.00    +0.000 OA
ENDBRANCH   7  13
ENDBRANCH   2   6
ENDBRANCH   1   4
BRANCH   1  18
ATOM     18  C   UNL     1       4.540   4.110  18.902  0.00  0.00    +0.000 C 
ATOM     19  O   UNL     1       5.375   3.460  19.538  0.00  0.00    +0.000 OA
ATOM     20  N   UNL     1       4.862   4.798  17.743  0.00  0.00    +0.000 N 
ATOM     21  H   UNL     1       4.130   5.288  17.248  0.00  0.00    +0.000 HD
BRANCH  20  22
ATOM     22  C   UNL     1       6.197   4.752  17.127  0.00  0.00    +0.000 C 
BRANCH  22  23
ATOM     23  C   UNL     1       6.809   6.133  17.216  0.00  0.00    +0.000 C 
ATOM     24  C   UNL     1       7.567   6.633  18.219  0.00  0.00    +0.000 C 
ATOM     25  C   UNL     1       7.860   5.982  19.537  0.00  0.00    +0.000 C 
BRANCH  24  26
ATOM     26  C   UNL     1       8.265   7.935  18.042  0.00  0.00    +0.000 C 
ATOM     27  O   UNL     1       8.182   8.658  17.061  0.00  0.00    +0.000 OA
BRANCH  26  28
ATOM     28  O   UNL     1       8.932   8.333  19.138  0.00  0.00    +0.000 OA
ATOM     29  H   UNL     1       8.930   9.310  19.069  0.00  0.00    +0.000 HD
ENDBRANCH  26  28
ENDBRANCH  24  26
ENDBRANCH  22  23
BRANCH  22  30
ATOM     30  C   UNL     1       6.188   4.303  15.628  0.00  0.00    +0.000 C 
ATOM     31  C   UNL     1       4.802   4.397  14.991  0.00  0.00    +0.000 C 
ATOM     32  C   UNL     1       7.214   5.020  14.737  0.00  0.00    +0.000 C 
ENDBRANCH  22  30
ENDBRANCH  20  22
ENDBRANCH   1  18
BRANCH   1  33
ATOM     33  C   UNL     1       2.021   3.337  18.467  0.00  0.00    +0.000 C 
ATOM     34  C   UNL     1       1.403   4.222  17.368  0.00  0.00    +0.000 C 
ATOM     35  C   UNL     1       2.754   2.177  17.743  0.00  0.00    +0.000 C 
ATOM     36  C   UNL     1       0.865   2.721  19.282  0.00  0.00    +0.000 C 
ENDBRANCH   1  33
TORSDOF 11
ENDMDL
MODEL 2
REMARK VINA RESULT:      -6.9      0.815      1.160
REMARK  Name = 
REMARK  18 active torsions:
REMARK  status: ('A' for Active; 'I' for Inactive)
REMARK    1  A    between atoms: C_1  and  C_2
REMARK    2  A    between atoms: N_4  and  C_5
REMARK    3  A    between atoms: C_5  and  C_12
REMARK    4  A    between atoms: C_6  and  C_7
REMARK    5  A    between atoms: N_14  and  C_15
REMARK    6  A    between atoms: C_15  and  C_16
REMARK    7  A    between atoms: C_15  and  C_29
REMARK    8  A    between atoms: N_18  and  C_19
REMARK    9  A    between atoms: C_19  and  C_20
REMARK   10  A    between atoms: C_19  and  C_26
REMARK   11  A    between atoms: C_21  and  C_22
REMARK   12  A    between atoms: C_21  and  C_23
REMARK   13  A    between atoms: C_23  and  O_25
REMARK   14  A    between atoms: C_26  and  C_27
REMARK   15  A    between atoms: C_26  and  C_28
REMARK   16  A    between atoms: C_29  and  C_30
REMARK   17  A    between atoms: C_29  and  C_31
REMARK   18  A    between atoms: C_29  and  C_32
REMARK                            x       y       z     vdW  Elec       q    Type
REMARK                         _______ _______ _______ _____ _____    ______ ____
ROOT
ATOM      1  C   UNL     1       3.141   4.441  19.394  0.00  0.00    +0.000 C 
ENDROOT
BRANCH   1   4
ATOM      2  C   UNL     1       1.875   6.412  20.326  0.00  0.00    +0.000 C 
ATOM      3  O   UNL     1       1.524   5.812  21.344  0.00  0.00    +0.000 OA
ATOM      4  N   UNL     1       2.630   5.826  19.340  0.00  0.00    +0.000 N 
ATOM      5  H   UNL     1       2.861   6.327  18.491  0.00  0.00    +0.000 HD
BRANCH   2   6
ATOM      6  C   UNL     1       1.381   7.844  20.115  0.00  0.00    +0.000 C 
ATOM      7  C   UNL     1       1.800   8.538  19.041  0.00  0.00    +0.000 C 
BRANCH   6  11
ATOM      8  C   UNL     1      -0.023   9.439  23.218  0.00  0.00    +0.000 C 
ATOM      9  C   UNL     1       1.049   9.065  22.218  0.00  0.00    +0.000 C 
ATOM     10  O   UNL     1       2.205   9.456  22.361  0.00  0.00    +0.000 OA
ATOM     11  N   UNL     1       0.587   8.314  21.160  0.00  0.00    +0.000 N 
ATOM     12  H   UNL     1      -0.367   8.533  20.865  0.00  0.00    +0.000 HD
ENDBRANCH   6  11
BRANCH   7  13
ATOM     13  C   UNL     1       1.653   9.926  18.749  0.00  0.00    +0.000 A 
ATOM     14  C   UNL     1       0.716  10.889  19.113  0.00  0.00    +0.000 A 
ATOM     15  C   UNL     1       1.158  12.147  18.625  0.00  0.00    +0.000 A 
ATOM     16  C   UNL     1       2.340  11.901  17.980  0.00  0.00    +0.000 A 
ATOM     17  O   UNL     1       2.650  10.587  18.054  0.00  0.00    +0.000 OA
ENDBRANCH   7  13
ENDBRANCH   2   6
ENDBRANCH   1   4
BRANCH   1  18
ATOM     18  C   UNL     1       4.630   4.536  18.902  0.00  0.00    +0.000 C 
ATOM     19  O   UNL     1       5.534   3.966  19.518  0.00  0.00    +0.000 OA
ATOM     20  N   UNL     1       4.863   5.247  17.734  0.00  0.00    +0.000 N 
ATOM     21  H   UNL     1       4.079   5.668  17.256  0.00  0.00    +0.000 HD
BRANCH  20  22
ATOM     22  C   UNL     1       6.183   5.317  17.087  0.00  0.00    +0.000 C 
BRANCH  22  23
ATOM     23  C   UNL     1       6.739   6.709  17.293  0.00  0.00    +0.000 C 
ATOM     24  C   UNL     1       7.661   7.099  18.203  0.00  0.00    +0.000 C 
ATOM     25  C   UNL     1       8.244   6.271  19.309  0.00  0.00    +0.000 C 
BRANCH  24  26
ATOM     26  C   UNL     1       8.252   8.463  18.122  0.00  0.00    +0.000 C 
ATOM     27  O   UNL     1       8.024   9.284  17.247  0.00  0.00    +0.000 OA
BRANCH  26  28
ATOM     28  O   UNL     1       8.996   8.783  19.193  0.00  0.00    +0.000 OA
ATOM     29  H   UNL     1       9.740   9.295  18.813  0.00  0.00    +0.000 HD
ENDBRANCH  26  28
ENDBRANCH  24  26
ENDBRANCH  22  23
BRANCH  22  30
ATOM     30  C   UNL     1       6.154   5.011  15.553  0.00  0.00    +0.000 C 
ATOM     31  C   UNL     1       5.812   3.552  15.248  0.00  0.00    +0.000 C 
ATOM     32  C   UNL     1       5.244   5.936  14.731  0.00  0.00    +0.000 C 
ENDBRANCH  22  30
ENDBRANCH  20  22
ENDBRANCH   1  18
BRANCH   1  33
ATOM     33  C   UNL     1       2.203   3.469  18.582  0.00  0.00    +0.000 C 
ATOM     34  C   UNL     1       1.127   2.835  19.484  0.00  0.00    +0.000 C 
ATOM     35  C   UNL     1       1.450   4.255  17.477  0.00  0.00    +0.000 C 
ATOM     36  C   UNL     1       2.977   2.324  17.895  0.00  0.00    +0.000 C 
ENDBRANCH   1  33
TORSDOF 11
ENDMDL
MODEL 3
REMARK VINA RESULT:      -6.8      0.682      1.298
REMARK  Name = 
REMARK  18 active torsions:
REMARK  status: ('A' for Active; 'I' for Inactive)
REMARK    1  A    between atoms: C_1  and  C_2
REMARK    2  A    between atoms: N_4  and  C_5
REMARK    3  A    between atoms: C_5  and  C_12
REMARK    4  A    between atoms: C_6  and  C_7
REMARK    5  A    between atoms: N_14  and  C_15
REMARK    6  A    between atoms: C_15  and  C_16
REMARK    7  A    between atoms: C_15  and  C_29
REMARK    8  A    between atoms: N_18  and  C_19
REMARK    9  A    between atoms: C_19  and  C_20
REMARK   10  A    between atoms: C_19  and  C_26
REMARK   11  A    between atoms: C_21  and  C_22
REMARK   12  A    between atoms: C_21  and  C_23
REMARK   13  A    between atoms: C_23  and  O_25
REMARK   14  A    between atoms: C_26  and  C_27
REMARK   15  A    between atoms: C_26  and  C_28
REMARK   16  A    between atoms: C_29  and  C_30
REMARK   17  A    between atoms: C_29  and  C_31
REMARK   18  A    between atoms: C_29  and  C_32
REMARK                            x       y       z     vdW  Elec       q    Type
REMARK                         _______ _______ _______ _____ _____    ______ ____
ROOT
ATOM      1  C   UNL     1       3.368   4.200  19.181  0.00  0.00    +0.000 C 
ENDROOT
BRANCH   1   4
ATOM      2  C   UNL     1       2.221   6.187  20.225  0.00  0.00    +0.000 C 
ATOM      3  O   UNL     1       1.791   5.541  21.183  0.00  0.00    +0.000 OA
ATOM      4  N   UNL     1       2.963   5.620  19.219  0.00  0.00    +0.000 N 
ATOM      5  H   UNL     1       3.260   6.164  18.418  0.00  0.00    +0.000 HD
BRANCH   2   6
ATOM      6  C   UNL     1       1.841   7.663  20.112  0.00  0.00    +0.000 C 
ATOM      7  C   UNL     1       1.782   8.241  18.897  0.00  0.00    +0.000 C 
BRANCH   6  11
ATOM      8  C   UNL     1       0.585   9.325  23.243  0.00  0.00    +0.000 C 
ATOM      9  C   UNL     1       0.472   8.655  21.892  0.00  0.00    +0.000 C 
ATOM     10  O   UNL     1      -0.627   8.439  21.387  0.00  0.00    +0.000 OA
ATOM     11  N   UNL     1       1.683   8.290  21.347  0.00  0.00    +0.000 N 
ATOM     12  H   UNL     1       2.389   8.004  22.029  0.00  0.00    +0.000 HD
ENDBRANCH   6  11
BRANCH   7  13
ATOM     13  C   UNL     1       1.664   9.621  18.558  0.00  0.00    +0.000 A 
ATOM     14  C   UNL     1       0.680  10.582  18.772  0.00  0.00    +0.000 A 
ATOM     15  C   UNL     1       1.175  11.833  18.320  0.00  0.00    +0.000 A 
ATOM     16  C   UNL     1       2.434  11.586  17.844  0.00  0.00    +0.000 A 
ATOM     17  O   UNL     1       2.741  10.277  17.988  0.00  0.00    +0.000 OA
ENDBRANCH   7  13
ENDBRANCH   2   6
ENDBRANCH   1   4
BRANCH   1  18
ATOM     18  C   UNL     1       4.798   4.201  18.529  0.00  0.00    +0.000 C 
ATOM     19  O   UNL     1       5.780   3.810  19.166  0.00  0.00    +0.000 OA
ATOM     20  N   UNL     1       4.888   4.616  17.209  0.00  0.00    +0.000 N 
ATOM     21  H   UNL     1       4.045   4.897  16.728  0.00  0.00    +0.000 HD
BRANCH  20  22
ATOM     22  C   UNL     1       6.136   4.553  16.431  0.00  0.00    +0.000 C 
BRANCH  22  23
ATOM     23  C   UNL     1       7.090   5.591  16.979  0.00  0.00    +0.000 C 
ATOM     24  C   UNL     1       6.810   6.874  17.304  0.00  0.00    +0.000 C 
ATOM     25  C   UNL     1       5.522   7.604  17.066  0.00  0.00    +0.000 C 
BRANCH  24  26
ATOM     26  C   UNL     1       7.819   7.692  18.032  0.00  0.00    +0.000 C 
ATOM     27  O   UNL     1       8.027   8.882  17.858  0.00  0.00    +0.000 OA
BRANCH  26  28
ATOM     28  O   UNL     1       8.431   7.020  19.022  0.00  0.00    +0.000 OA
ATOM     29  H   UNL     1       7.698   6.780  19.626  0.00  0.00    +0.000 HD
ENDBRANCH  26  28
ENDBRANCH  24  26
ENDBRANCH  22  23
BRANCH  22  30
ATOM     30  C   UNL     1       5.941   4.809  14.900  0.00  0.00    +0.000 C 
ATOM     31  C   UNL     1       7.265   4.996  14.159  0.00  0.00    +0.000 C 
ATOM     32  C   UNL     1       5.090   3.754  14.176  0.00  0.00    +0.000 C 
ENDBRANCH  22  30
ENDBRANCH  20  22
ENDBRANCH   1  18
BRANCH   1  33
ATOM     33  C   UNL     1       2.276   3.328  18.453  0.00  0.00    +0.000 C 
ATOM     34  C   UNL     1       2.908   2.144  17.695  0.00  0.00    +0.000 C 
ATOM     35  C   UNL     1       1.300   2.719  19.494  0.00  0.00    +0.000 C 
ATOM     36  C   UNL     1       1.436   4.138  17.445  0.00  0.00    +0.000 C 
ENDBRANCH   1  33
TORSDOF 11
ENDMDL
MODEL 4
REMARK VINA RESULT:      -6.7      0.687      1.279
REMARK  Name = 
REMARK  18 active torsions:
REMARK  status: ('A' for Active; 'I' for Inactive)
REMARK    1  A    between atoms: C_1  and  C_2
REMARK    2  A    between atoms: N_4  and  C_5
REMARK    3  A    between atoms: C_5  and  C_12
REMARK    4  A    between atoms: C_6  and  C_7
REMARK    5  A    between atoms: N_14  and  C_15
REMARK    6  A    between atoms: C_15  and  C_16
REMARK    7  A    between atoms: C_15  and  C_29
REMARK    8  A    between atoms: N_18  and  C_19
REMARK    9  A    between atoms: C_19  and  C_20
REMARK   10  A    between atoms: C_19  and  C_26
REMARK   11  A    between atoms: C_21  and  C_22
REMARK   12  A    between atoms: C_21  and  C_23
REMARK   13  A    between atoms: C_23  and  O_25
REMARK   14  A    between atoms: C_26  and  C_27
REMARK   15  A    between atoms: C_26  and  C_28
REMARK   16  A    between atoms: C_29  and  C_30
REMARK   17  A    between atoms: C_29  and  C_31
REMARK   18  A    between atoms: C_29  and  C_32
REMARK                            x       y       z     vdW  Elec       q    Type
REMARK                         _______ _______ _______ _____ _____    ______ ____
ROOT
ATOM      1  C   UNL     1       3.020   4.300  19.291  0.00  0.00    +0.000 C 
ENDROOT
BRANCH   1   4
ATOM      2  C   UNL     1       2.013   6.297  20.454  0.00  0.00    +0.000 C 
ATOM      3  O   UNL     1       1.708   5.660  21.464  0.00  0.00    +0.000 OA
ATOM      4  N   UNL     1       2.623   5.721  19.367  0.00  0.00    +0.000 N 
ATOM      5  H   UNL     1       2.816   6.258  18.530  0.00  0.00    +0.000 HD
BRANCH   2   6
ATOM      6  C   UNL     1       1.621   7.773  20.376  0.00  0.00    +0.000 C 
ATOM      7  C   UNL     1       1.588   8.387  19.178  0.00  0.00    +0.000 C 
BRANCH   6  11
ATOM      8  C   UNL     1       0.266   9.318  23.525  0.00  0.00    +0.000 C 
ATOM      9  C   UNL     1       0.195   8.688  22.152  0.00  0.00    +0.000 C 
ATOM     10  O   UNL     1      -0.889   8.471  21.615  0.00  0.00    +0.000 OA
ATOM     11  N   UNL     1       1.424   8.359  21.625  0.00  0.00    +0.000 N 
ATOM     12  H   UNL     1       2.119   8.063  22.315  0.00  0.00    +0.000 HD
ENDBRANCH   6  11
BRANCH   7  13
ATOM     13  C   UNL     1       1.465   9.776  18.880  0.00  0.00    +0.000 A 
ATOM     14  C   UNL     1       2.248  10.677  18.163  0.00  0.00    +0.000 A 
ATOM     15  C   UNL     1       1.552  11.913  18.093  0.00  0.00    +0.000 A 
ATOM     16  C   UNL     1       0.379  11.718  18.772  0.00  0.00    +0.000 A 
ATOM     17  O   UNL     1       0.311  10.451  19.236  0.00  0.00    +0.000 OA
ENDBRANCH   7  13
ENDBRANCH   2   6
ENDBRANCH   1   4
BRANCH   1  18
ATOM     18  C   UNL     1       4.521   4.321  18.825  0.00  0.00    +0.000 C 
ATOM     19  O   UNL     1       5.360   3.600  19.373  0.00  0.00    +0.000 OA
ATOM     20  N   UNL     1       4.838   5.146  17.757  0.00  0.00    +0.000 N 
ATOM     21  H   UNL     1       4.103   5.692  17.329  0.00  0.00    +0.000 HD
BRANCH  20  22
ATOM     22  C   UNL     1       6.171   5.177  17.134  0.00  0.00    +0.000 C 
BRANCH  22  23
ATOM     23  C   UNL     1       6.760   6.555  17.342  0.00  0.00    +0.000 C 
ATOM     24  C   UNL     1       7.661   6.930  18.279  0.00  0.00    +0.000 C 
ATOM     25  C   UNL     1       8.178   6.101  19.415  0.00  0.00    +0.000 C 
BRANCH  24  26
ATOM     26  C   UNL     1       8.294   8.276  18.202  0.00  0.00    +0.000 C 
ATOM     27  O   UNL     1       9.059   8.748  19.027  0.00  0.00    +0.000 OA
BRANCH  26  28
ATOM     28  O   UNL     1       8.043   8.914  17.047  0.00  0.00    +0.000 OA
ATOM     29  H   UNL     1       7.458   9.654  17.314  0.00  0.00    +0.000 HD
ENDBRANCH  26  28
ENDBRANCH  24  26
ENDBRANCH  22  23
BRANCH  22  30
ATOM     30  C   UNL     1       6.161   4.862  15.601  0.00  0.00    +0.000 C 
ATOM     31  C   UNL     1       5.745   3.423  15.297  0.00  0.00    +0.000 C 
ATOM     32  C   UNL     1       5.324   5.831  14.752  0.00  0.00    +0.000 C 
ENDBRANCH  22  30
ENDBRANCH  20  22
ENDBRANCH   1  18
BRANCH   1  33
ATOM     33  C   UNL     1       2.023   3.491  18.377  0.00  0.00    +0.000 C 
ATOM     34  C   UNL     1       0.893   2.847  19.204  0.00  0.00    +0.000 C 
ATOM     35  C   UNL     1       1.342   4.442  17.359  0.00  0.00    +0.000 C 
ATOM     36  C   UNL     1       2.718   2.370  17.577  0.00  0.00    +0.000 C 
ENDBRANCH   1  33
TORSDOF 11
ENDMDL
MODEL 5
REMARK VINA RESULT:      -6.6      1.171      2.457
REMARK  Name = 
REMARK  18 active torsions:
REMARK  status: ('A' for Active; 'I' for Inactive)
REMARK    1  A    between atoms: C_1  and  C_2
REMARK    2  A    between atoms: N_4  and  C_5
REMARK    3  A    between atoms: C_5  and  C_12
REMARK    4  A    between atoms: C_6  and  C_7
REMARK    5  A    between atoms: N_14  and  C_15
REMARK    6  A    between atoms: C_15  and  C_16
REMARK    7  A    between atoms: C_15  and  C_29
REMARK    8  A    between atoms: N_18  and  C_19
REMARK    9  A    between atoms: C_19  and  C_20
REMARK   10  A    between atoms: C_19  and  C_26
REMARK   11  A    between atoms: C_21  and  C_22
REMARK   12  A    between atoms: C_21  and  C_23
REMARK   13  A    between atoms: C_23  and  O_25
REMARK   14  A    between atoms: C_26  and  C_27
REMARK   15  A    between atoms: C_26  and  C_28
REMARK   16  A    between atoms: C_29  and  C_30
REMARK   17  A    between atoms: C_29  and  C_31
REMARK   18  A    between atoms: C_29  and  C_32
REMARK                            x       y       z     vdW  Elec       q    Type
REMARK                         _______ _______ _______ _____ _____    ______ ____
ROOT
ATOM      1  C   UNL     1       3.096   4.190  19.157  0.00  0.00    +0.000 C 
ENDROOT
BRANCH   1   4
ATOM      2  C   UNL     1       2.013   6.035  20.490  0.00  0.00    +0.000 C 
ATOM      3  O   UNL     1       1.635   5.279  21.388  0.00  0.00    +0.000 OA
ATOM      4  N   UNL     1       2.697   5.594  19.385  0.00  0.00    +0.000 N 
ATOM      5  H   UNL     1       2.950   6.231  18.639  0.00  0.00    +0.000 HD
BRANCH   2   6
ATOM      6  C   UNL     1       1.631   7.513  20.573  0.00  0.00    +0.000 C 
ATOM      7  C   UNL     1       0.674   7.903  21.437  0.00  0.00    +0.000 C 
BRANCH   6  11
ATOM      8  C   UNL     1       2.801   9.351  17.508  0.00  0.00    +0.000 C 
ATOM      9  C   UNL     1       1.913   8.428  18.313  0.00  0.00    +0.000 C 
ATOM     10  O   UNL     1       0.935   7.891  17.799  0.00  0.00    +0.000 OA
ATOM     11  N   UNL     1       2.286   8.307  19.633  0.00  0.00    +0.000 N 
ATOM     12  H   UNL     1       2.689   9.153  20.042  0.00  0.00    +0.000 HD
ENDBRANCH   6  11
BRANCH   7  13
ATOM     13  C   UNL     1       0.010   9.161  21.541  0.00  0.00    +0.000 A 
ATOM     14  C   UNL     1      -0.390   9.949  22.616  0.00  0.00    +0.000 A 
ATOM     15  C   UNL     1      -0.895  11.174  22.105  0.00  0.00    +0.000 A 
ATOM     16  C   UNL     1      -0.789  11.082  20.744  0.00  0.00    +0.000 A 
ATOM     17  O   UNL     1      -0.244   9.895  20.396  0.00  0.00    +0.000 OA
ENDBRANCH   7  13
ENDBRANCH   2   6
ENDBRANCH   1   4
BRANCH   1  18
ATOM     18  C   UNL     1       4.557   4.270  18.582  0.00  0.00    +0.000 C 
ATOM     19  O   UNL     1       5.456   3.567  19.051  0.00  0.00    +0.000 OA
ATOM     20  N   UNL     1       4.767   5.125  17.511  0.00  0.00    +0.000 N 
ATOM     21  H   UNL     1       3.985   5.655  17.150  0.00  0.00    +0.000 HD
BRANCH  20  22
ATOM     22  C   UNL     1       6.047   5.212  16.792  0.00  0.00    +0.000 C 
BRANCH  22  23
ATOM     23  C   UNL     1       6.662   6.564  17.077  0.00  0.00    +0.000 C 
ATOM     24  C   UNL     1       7.533   6.880  18.063  0.00  0.00    +0.000 C 
ATOM     25  C   UNL     1       7.985   5.993  19.185  0.00  0.00    +0.000 C 
BRANCH  24  26
ATOM     26  C   UNL     1       8.202   8.210  18.064  0.00  0.00    +0.000 C 
ATOM     27  O   UNL     1       8.045   9.084  17.226  0.00  0.00    +0.000 OA
BRANCH  26  28
ATOM     28  O   UNL     1       8.934   8.435  19.168  0.00  0.00    +0.000 OA
ATOM     29  H   UNL     1       8.276   8.751  19.821  0.00  0.00    +0.000 HD
ENDBRANCH  26  28
ENDBRANCH  24  26
ENDBRANCH  22  23
BRANCH  22  30
ATOM     30  C   UNL     1       5.917   5.037  15.243  0.00  0.00    +0.000 C 
ATOM     31  C   UNL     1       7.273   4.939  14.543  0.00  0.00    +0.000 C 
ATOM     32  C   UNL     1       5.024   3.868  14.802  0.00  0.00    +0.000 C 
ENDBRANCH  22  30
ENDBRANCH  20  22
ENDBRANCH   1  18
BRANCH   1  33
ATOM     33  C   UNL     1       2.037   3.449  18.256  0.00  0.00    +0.000 C 
ATOM     34  C   UNL     1       2.698   2.375  17.370  0.00  0.00    +0.000 C 
ATOM     35  C   UNL     1       1.001   2.714  19.146  0.00  0.00    +0.000 C 
ATOM     36  C   UNL     1       1.260   4.409  17.331  0.00  0.00    +0.000 C 
ENDBRANCH   1  33
TORSDOF 11
ENDMDL
MODEL 6
REMARK VINA RESULT:      -6.6      0.592      1.267
REMARK  Name = 
REMARK  18 active torsions:
REMARK  status: ('A' for Active; 'I' for Inactive)
REMARK    1  A    between atoms: C_1  and  C_2
REMARK    2  A    between atoms: N_4  and  C_5
REMARK    3  A    between atoms: C_5  and  C_12
REMARK    4  A    between atoms: C_6  and  C_7
REMARK    5  A    between atoms: N_14  and  C_15
REMARK    6  A    between atoms: C_15  and  C_16
REMARK    7  A    between atoms: C_15  and  C_29
REMARK    8  A    between atoms: N_18  and  C_19
REMARK    9  A    between atoms: C_19  and  C_20
REMARK   10  A    between atoms: C_19  and  C_26
REMARK   11  A    between atoms: C_21  and  C_22
REMARK   12  A    between atoms: C_21  and  C_23
REMARK   13  A    between atoms: C_23  and  O_25
REMARK   14  A    between atoms: C_26  and  C_27
REMARK   15  A    between atoms: C_26  and  C_28
REMARK   16  A    between atoms: C_29  and  C_30
REMARK   17  A    between atoms: C_29  and  C_31
REMARK   18  A    between atoms: C_29  and  C_32
REMARK                            x       y       z     vdW  Elec       q    Type
REMARK                         _______ _______ _______ _____ _____    ______ ____
ROOT
ATOM      1  C   UNL     1       3.227   4.301  19.268  0.00  0.00    +0.000 C 
ENDROOT
BRANCH   1   4
ATOM      2  C   UNL     1       2.104   6.228  20.443  0.00  0.00    +0.000 C 
ATOM      3  O   UNL     1       1.902   5.589  21.478  0.00  0.00    +0.000 OA
ATOM      4  N   UNL     1       2.710   5.683  19.338  0.00  0.00    +0.000 N 
ATOM      5  H   UNL     1       2.817   6.217  18.484  0.00  0.00    +0.000 HD
BRANCH   2   6
ATOM      6  C   UNL     1       1.581   7.662  20.358  0.00  0.00    +0.000 C 
ATOM      7  C   UNL     1       1.391   8.228  19.151  0.00  0.00    +0.000 C 
BRANCH   6  11
ATOM      8  C   UNL     1       0.383   9.353  23.497  0.00  0.00    +0.000 C 
ATOM      9  C   UNL     1       0.250   8.720  22.129  0.00  0.00    +0.000 C 
ATOM     10  O   UNL     1      -0.850   8.600  21.596  0.00  0.00    +0.000 OA
ATOM     11  N   UNL     1       1.442   8.274  21.603  0.00  0.00    +0.000 N 
ATOM     12  H   UNL     1       2.109   7.921  22.294  0.00  0.00    +0.000 HD
ENDBRANCH   6  11
BRANCH   7  13
ATOM     13  C   UNL     1       1.124   9.590  18.825  0.00  0.00    +0.000 A 
ATOM     14  C   UNL     1       0.112  10.226  18.113  0.00  0.00    +0.000 A 
ATOM     15  C   UNL     1       0.300  11.629  18.228  0.00  0.00    +0.000 A 
ATOM     16  C   UNL     1       1.419  11.792  18.999  0.00  0.00    +0.000 A 
ATOM     17  O   UNL     1       1.913  10.589  19.368  0.00  0.00    +0.000 OA
ENDBRANCH   7  13
ENDBRANCH   2   6
ENDBRANCH   1   4
BRANCH   1  18
ATOM     18  C   UNL     1       4.679   4.438  18.682  0.00  0.00    +0.000 C 
ATOM     19  O   UNL     1       5.619   3.811  19.178  0.00  0.00    +0.000 OA
ATOM     20  N   UNL     1       4.835   5.252  17.570  0.00  0.00    +0.000 N 
ATOM     21  H   UNL     1       4.023   5.717  17.189  0.00  0.00    +0.000 HD
BRANCH  20  22
ATOM     22  C   UNL     1       6.107   5.378  16.840  0.00  0.00    +0.000 C 
BRANCH  22  23
ATOM     23  C   UNL     1       6.694   6.739  17.143  0.00  0.00    +0.000 C 
ATOM     24  C   UNL     1       7.570   7.056  18.124  0.00  0.00    +0.000 C 
ATOM     25  C   UNL     1       8.054   6.161  19.224  0.00  0.00    +0.000 C 
BRANCH  24  26
ATOM     26  C   UNL     1       8.209   8.401  18.141  0.00  0.00    +0.000 C 
ATOM     27  O   UNL     1       9.027   8.787  18.961  0.00  0.00    +0.000 OA
BRANCH  26  28
ATOM     28  O   UNL     1       7.894   9.151  17.072  0.00  0.00    +0.000 OA
ATOM     29  H   UNL     1       7.790  10.051  17.444  0.00  0.00    +0.000 HD
ENDBRANCH  26  28
ENDBRANCH  24  26
ENDBRANCH  22  23
BRANCH  22  30
ATOM     30  C   UNL     1       5.965   5.226  15.290  0.00  0.00    +0.000 C 
ATOM     31  C   UNL     1       7.315   5.193  14.573  0.00  0.00    +0.000 C 
ATOM     32  C   UNL     1       5.112   4.032  14.837  0.00  0.00    +0.000 C 
ENDBRANCH  22  30
ENDBRANCH  20  22
ENDBRANCH   1  18
BRANCH   1  33
ATOM     33  C   UNL     1       2.238   3.377  18.461  0.00  0.00    +0.000 C 
ATOM     34  C   UNL     1       2.989   2.251  17.724  0.00  0.00    +0.000 C 
ATOM     35  C   UNL     1       1.243   2.687  19.430  0.00  0.00    +0.000 C 
ATOM     36  C   UNL     1       1.411   4.153  17.416  0.00  0.00    +0.000 C 
ENDBRANCH   1  33
TORSDOF 11
ENDMDL
MODEL 7
REMARK VINA RESULT:      -6.4      0.745      1.299
REMARK  Name = 
REMARK  18 active torsions:
REMARK  status: ('A' for Active; 'I' for Inactive)
REMARK    1  A    between atoms: C_1  and  C_2
REMARK    2  A    between atoms: N_4  and  C_5
REMARK    3  A    between atoms: C_5  and  C_12
REMARK    4  A    between atoms: C_6  and  C_7
REMARK    5  A    between atoms: N_14  and  C_15
REMARK    6  A    between atoms: C_15  and  C_16
REMARK    7  A    between atoms: C_15  and  C_29
REMARK    8  A    between atoms: N_18  and  C_19
REMARK    9  A    between atoms: C_19  and  C_20
REMARK   10  A    between atoms: C_19  and  C_26
REMARK   11  A    between atoms: C_21  and  C_22
REMARK   12  A    between atoms: C_21  and  C_23
REMARK   13  A    between atoms: C_23  and  O_25
REMARK   14  A    between atoms: C_26  and  C_27
REMARK   15  A    between atoms: C_26  and  C_28
REMARK   16  A    between atoms: C_29  and  C_30
REMARK   17  A    between atoms: C_29  and  C_31
REMARK   18  A    between atoms: C_29  and  C_32
REMARK                            x       y       z     vdW  Elec       q    Type
REMARK                         _______ _______ _______ _____ _____    ______ ____
ROOT
ATOM      1  C   UNL     1       3.180   4.181  19.275  0.00  0.00    +0.000 C 
ENDROOT
BRANCH   1   4
ATOM      2  C   UNL     1       2.094   6.223  20.277  0.00  0.00    +0.000 C 
ATOM      3  O   UNL     1       1.519   5.587  21.162  0.00  0.00    +0.000 OA
ATOM      4  N   UNL     1       2.887   5.628  19.327  0.00  0.00    +0.000 N 
ATOM      5  H   UNL     1       3.305   6.170  18.581  0.00  0.00    +0.000 HD
BRANCH   2   6
ATOM      6  C   UNL     1       1.846   7.729  20.182  0.00  0.00    +0.000 C 
ATOM      7  C   UNL     1       1.947   8.344  18.989  0.00  0.00    +0.000 C 
BRANCH   6  11
ATOM      8  C   UNL     1       0.428   9.343  23.270  0.00  0.00    +0.000 C 
ATOM      9  C   UNL     1       0.387   8.704  21.899  0.00  0.00    +0.000 C 
ATOM     10  O   UNL     1      -0.683   8.519  21.324  0.00  0.00    +0.000 OA
ATOM     11  N   UNL     1       1.623   8.331  21.420  0.00  0.00    +0.000 N 
ATOM     12  H   UNL     1       2.282   8.018  22.137  0.00  0.00    +0.000 HD
ENDBRANCH   6  11
BRANCH   7  13
ATOM     13  C   UNL     1       1.972   9.739  18.691  0.00  0.00    +0.000 A 
ATOM     14  C   UNL     1       2.656  10.508  17.755  0.00  0.00    +0.000 A 
ATOM     15  C   UNL     1       2.180  11.843  17.842  0.00  0.00    +0.000 A 
ATOM     16  C   UNL     1       1.231  11.835  18.829  0.00  0.00    +0.000 A 
ATOM     17  O   UNL     1       1.092  10.590  19.335  0.00  0.00    +0.000 OA
ENDBRANCH   7  13
ENDBRANCH   2   6
ENDBRANCH   1   4
BRANCH   1  18
ATOM     18  C   UNL     1       4.634   4.080  18.687  0.00  0.00    +0.000 C 
ATOM     19  O   UNL     1       5.516   3.465  19.293  0.00  0.00    +0.000 OA
ATOM     20  N   UNL     1       4.857   4.673  17.454  0.00  0.00    +0.000 N 
ATOM     21  H   UNL     1       4.089   5.138  16.991  0.00  0.00    +0.000 HD
BRANCH  20  22
ATOM     22  C   UNL     1       6.130   4.554  16.724  0.00  0.00    +0.000 C 
BRANCH  22  23
ATOM     23  C   UNL     1       7.072   5.620  17.238  0.00  0.00    +0.000 C 
ATOM     24  C   UNL     1       6.812   6.937  17.403  0.00  0.00    +0.000 C 
ATOM     25  C   UNL     1       5.573   7.670  16.984  0.00  0.00    +0.000 C 
BRANCH  24  26
ATOM     26  C   UNL     1       7.787   7.801  18.122  0.00  0.00    +0.000 C 
ATOM     27  O   UNL     1       8.617   7.414  18.931  0.00  0.00    +0.000 OA
BRANCH  26  28
ATOM     28  O   UNL     1       7.766   9.080  17.712  0.00  0.00    +0.000 OA
ATOM     29  H   UNL     1       8.581   9.164  17.175  0.00  0.00    +0.000 HD
ENDBRANCH  26  28
ENDBRANCH  24  26
ENDBRANCH  22  23
BRANCH  22  30
ATOM     30  C   UNL     1       5.989   4.714  15.174  0.00  0.00    +0.000 C 
ATOM     31  C   UNL     1       7.339   4.745  14.458  0.00  0.00    +0.000 C 
ATOM     32  C   UNL     1       5.074   3.678  14.503  0.00  0.00    +0.000 C 
ENDBRANCH  22  30
ENDBRANCH  20  22
ENDBRANCH   1  18
BRANCH   1  33
ATOM     33  C   UNL     1       2.057   3.413  18.480  0.00  0.00    +0.000 C 
ATOM     34  C   UNL     1       1.393   4.317  17.423  0.00  0.00    +0.000 C 
ATOM     35  C   UNL     1       2.672   2.213  17.715  0.00  0.00    +0.000 C 
ATOM     36  C   UNL     1       0.944   2.863  19.395  0.00  0.00    +0.000 C 
ENDBRANCH   1  33
TORSDOF 11
ENDMDL
MODEL 8
REMARK VINA RESULT:      -6.2      1.216      2.507
REMARK  Name = 
REMARK  18 active torsions:
REMARK  status: ('A' for Active; 'I' for Inactive)
REMARK    1  A    between atoms: C_1  and  C_2
REMARK    2  A    between atoms: N_4  and  C_5
REMARK    3  A    between atoms: C_5  and  C_12
REMARK    4  A    between atoms: C_6  and  C_7
REMARK    5  A    between atoms: N_14  and  C_15
REMARK    6  A    between atoms: C_15  and  C_16
REMARK    7  A    between atoms: C_15  and  C_29
REMARK    8  A    between atoms: N_18  and  C_19
REMARK    9  A    between atoms: C_19  and  C_20
REMARK   10  A    between atoms: C_19  and  C_26
REMARK   11  A    between atoms: C_21  and  C_22
REMARK   12  A    between atoms: C_21  and  C_23
REMARK   13  A    between atoms: C_23  and  O_25
REMARK   14  A    between atoms: C_26  and  C_27
REMARK   15  A    between atoms: C_26  and  C_28
REMARK   16  A    between atoms: C_29  and  C_30
REMARK   17  A    between atoms: C_29  and  C_31
REMARK   18  A    between atoms: C_29  and  C_32
REMARK                            x       y       z     vdW  Elec       q    Type
REMARK                         _______ _______ _______ _____ _____    ______ ____
ROOT
ATOM      1  C   UNL     1       2.988   3.910  19.363  0.00  0.00    +0.000 C 
ENDROOT
BRANCH   1   4
ATOM      2  C   UNL     1       1.961   5.877  20.561  0.00  0.00    +0.000 C 
ATOM      3  O   UNL     1       1.498   5.187  21.472  0.00  0.00    +0.000 OA
ATOM      4  N   UNL     1       2.665   5.345  19.510  0.00  0.00    +0.000 N 
ATOM      5  H   UNL     1       2.990   5.929  18.749  0.00  0.00    +0.000 HD
BRANCH   2   6
ATOM      6  C   UNL     1       1.667   7.377  20.560  0.00  0.00    +0.000 C 
ATOM      7  C   UNL     1       0.702   7.864  21.363  0.00  0.00    +0.000 C 
BRANCH   6  11
ATOM      8  C   UNL     1       3.040   9.040  17.479  0.00  0.00    +0.000 C 
ATOM      9  C   UNL     1       2.056   8.227  18.290  0.00  0.00    +0.000 C 
ATOM     10  O   UNL     1       1.028   7.790  17.777  0.00  0.00    +0.000 OA
ATOM     11  N   UNL     1       2.407   8.085  19.614  0.00  0.00    +0.000 N 
ATOM     12  H   UNL     1       2.896   8.889  20.015  0.00  0.00    +0.000 HD
ENDBRANCH   6  11
BRANCH   7  13
ATOM     13  C   UNL     1       0.112   9.162  21.381  0.00  0.00    +0.000 A 
ATOM     14  C   UNL     1      -0.540   9.934  20.423  0.00  0.00    +0.000 A 
ATOM     15  C   UNL     1      -1.033  11.105  21.056  0.00  0.00    +0.000 A 
ATOM     16  C   UNL     1      -0.658  11.005  22.369  0.00  0.00    +0.000 A 
ATOM     17  O   UNL     1       0.015   9.851  22.577  0.00  0.00    +0.000 OA
ENDBRANCH   7  13
ENDBRANCH   2   6
ENDBRANCH   1   4
BRANCH   1  18
ATOM     18  C   UNL     1       4.502   3.873  18.945  0.00  0.00    +0.000 C 
ATOM     19  O   UNL     1       5.297   3.129  19.526  0.00  0.00    +0.000 OA
ATOM     20  N   UNL     1       4.881   4.674  17.879  0.00  0.00    +0.000 N 
ATOM     21  H   UNL     1       4.179   5.241  17.422  0.00  0.00    +0.000 HD
BRANCH  20  22
ATOM     22  C   UNL     1       6.232   4.651  17.297  0.00  0.00    +0.000 C 
BRANCH  22  23
ATOM     23  C   UNL     1       6.800   6.051  17.360  0.00  0.00    +0.000 C 
ATOM     24  C   UNL     1       7.571   6.583  18.337  0.00  0.00    +0.000 C 
ATOM     25  C   UNL     1       7.926   5.951  19.650  0.00  0.00    +0.000 C 
BRANCH  24  26
ATOM     26  C   UNL     1       8.220   7.907  18.132  0.00  0.00    +0.000 C 
ATOM     27  O   UNL     1       8.931   8.482  18.941  0.00  0.00    +0.000 OA
BRANCH  26  28
ATOM     28  O   UNL     1       8.056   8.391  16.890  0.00  0.00    +0.000 OA
ATOM     29  H   UNL     1       7.622   7.655  16.410  0.00  0.00    +0.000 HD
ENDBRANCH  26  28
ENDBRANCH  24  26
ENDBRANCH  22  23
BRANCH  22  30
ATOM     30  C   UNL     1       6.275   4.158  15.813  0.00  0.00    +0.000 C 
ATOM     31  C   UNL     1       4.888   4.090  15.173  0.00  0.00    +0.000 C 
ATOM     32  C   UNL     1       7.225   4.949  14.901  0.00  0.00    +0.000 C 
ENDBRANCH  22  30
ENDBRANCH  20  22
ENDBRANCH   1  18
BRANCH   1  33
ATOM     33  C   UNL     1       1.979   3.211  18.376  0.00  0.00    +0.000 C 
ATOM     34  C   UNL     1       0.808   2.554  19.133  0.00  0.00    +0.000 C 
ATOM     35  C   UNL     1       1.355   4.261  17.419  0.00  0.00    +0.000 C 
ATOM     36  C   UNL     1       2.646   2.125  17.506  0.00  0.00    +0.000 C 
ENDBRANCH   1  33
TORSDOF 11
ENDMDL
MODEL 9
REMARK VINA RESULT:      -6.2      3.925      6.945
REMARK  Name = 
REMARK  18 active torsions:
REMARK  status: ('A' for Active; 'I' for Inactive)
REMARK    1  A    between atoms: C_1  and  C_2
REMARK    2  A    between atoms: N_4  and  C_5
REMARK    3  A    between atoms: C_5  and  C_12
REMARK    4  A    between atoms: C_6  and  C_7
REMARK    5  A    between atoms: N_14  and  C_15
REMARK    6  A    between atoms: C_15  and  C_16
REMARK    7  A    between atoms: C_15  and  C_29
REMARK    8  A    between atoms: N_18  and  C_19
REMARK    9  A    between atoms: C_19  and  C_20
REMARK   10  A    between atoms: C_19  and  C_26
REMARK   11  A    between atoms: C_21  and  C_22
REMARK   12  A    between atoms: C_21  and  C_23
REMARK   13  A    between atoms: C_23  and  O_25
REMARK   14  A    between atoms: C_26  and  C_27
REMARK   15  A    between atoms: C_26  and  C_28
REMARK   16  A    between atoms: C_29  and  C_30
REMARK   17  A    between atoms: C_29  and  C_31
REMARK   18  A    between atoms: C_29  and  C_32
REMARK                            x       y       z     vdW  Elec       q    Type
REMARK                         _______ _______ _______ _____ _____    ______ ____
ROOT
ATOM      1  C   UNL     1       0.662   9.903  19.875  0.00  0.00    +0.000 C 
ENDROOT
BRANCH   1   4
ATOM      2  C   UNL     1      -0.939  11.450  18.692  0.00  0.00    +0.000 C 
ATOM      3  O   UNL     1      -0.174  12.416  18.743  0.00  0.00    +0.000 OA
ATOM      4  N   UNL     1      -0.625  10.224  19.224  0.00  0.00    +0.000 N 
ATOM      5  H   UNL     1      -1.293   9.463  19.214  0.00  0.00    +0.000 HD
BRANCH   2   6
ATOM      6  C   UNL     1      -2.327  11.650  18.085  0.00  0.00    +0.000 C 
ATOM      7  C   UNL     1      -3.361  11.975  18.885  0.00  0.00    +0.000 C 
BRANCH   6  11
ATOM      8  C   UNL     1      -2.762  10.137  14.669  0.00  0.00    +0.000 C 
ATOM      9  C   UNL     1      -2.814  10.180  16.181  0.00  0.00    +0.000 C 
ATOM     10  O   UNL     1      -3.252   9.227  16.822  0.00  0.00    +0.000 OA
ATOM     11  N   UNL     1      -2.380  11.370  16.720  0.00  0.00    +0.000 N 
ATOM     12  H   UNL     1      -2.587  12.196  16.154  0.00  0.00    +0.000 HD
ENDBRANCH   6  11
BRANCH   7  13
ATOM     13  C   UNL     1      -4.756  12.001  18.592  0.00  0.00    +0.000 A 
ATOM     14  C   UNL     1      -5.902  11.834  19.363  0.00  0.00    +0.000 A 
ATOM     15  C   UNL     1      -7.032  12.101  18.544  0.00  0.00    +0.000 A 
ATOM     16  C   UNL     1      -6.531  12.413  17.309  0.00  0.00    +0.000 A 
ATOM     17  O   UNL     1      -5.180  12.367  17.327  0.00  0.00    +0.000 OA
ENDBRANCH   7  13
ENDBRANCH   2   6
ENDBRANCH   1   4
BRANCH   1  18
ATOM     18  C   UNL     1       1.233   8.682  19.066  0.00  0.00    +0.000 C 
ATOM     19  O   UNL     1       1.253   8.699  17.832  0.00  0.00    +0.000 OA
ATOM     20  N   UNL     1       1.744   7.623  19.801  0.00  0.00    +0.000 N 
ATOM     21  H   UNL     1       1.728   7.678  20.810  0.00  0.00    +0.000 HD
BRANCH  20  22
ATOM     22  C   UNL     1       2.422   6.472  19.185  0.00  0.00    +0.000 C 
BRANCH  22  23
ATOM     23  C   UNL     1       2.370   5.314  20.157  0.00  0.00    +0.000 C 
ATOM     24  C   UNL     1       1.908   4.064  19.923  0.00  0.00    +0.000 C 
ATOM     25  C   UNL     1       1.213   3.577  18.687  0.00  0.00    +0.000 C 
BRANCH  24  26
ATOM     26  C   UNL     1       2.131   2.990  20.929  0.00  0.00    +0.000 C 
ATOM     27  O   UNL     1       1.292   2.557  21.703  0.00  0.00    +0.000 OA
BRANCH  26  28
ATOM     28  O   UNL     1       3.347   2.425  20.841  0.00  0.00    +0.000 OA
ATOM     29  H   UNL     1       3.760   2.884  20.080  0.00  0.00    +0.000 HD
ENDBRANCH  26  28
ENDBRANCH  24  26
ENDBRANCH  22  23
BRANCH  22  30
ATOM     30  C   UNL     1       3.916   6.743  18.808  0.00  0.00    +0.000 C 
ATOM     31  C   UNL     1       4.856   5.635  19.282  0.00  0.00    +0.000 C 
ATOM     32  C   UNL     1       4.161   7.024  17.318  0.00  0.00    +0.000 C 
ENDBRANCH  22  30
ENDBRANCH  20  22
ENDBRANCH   1  18
BRANCH   1  33
ATOM     33  C   UNL     1       0.464   9.678  21.422  0.00  0.00    +0.000 C 
ATOM     34  C   UNL     1      -0.496   8.506  21.705  0.00  0.00    +0.000 C 
ATOM     35  C   UNL     1       1.818   9.313  22.084  0.00  0.00    +0.000 C 
ATOM     36  C   UNL     1      -0.088  10.924  22.143  0.00  0.00    +0.000 C 
ENDBRANCH   1  33
TORSDOF 11
ENDMDL
