MODEL 1
REMARK VINA RESULT:      -7.8      0.000      0.000
REMARK  Name = 
REMARK  4 active torsions:
REMARK  status: ('A' for Active; 'I' for Inactive)
REMARK    1  A    between atoms: C_1  and  N_2
REMARK    2  A    between atoms: C_3  and  C_4
REMARK    3  A    between atoms: N_16  and  C_17
REMARK    4  A    between atoms: N_26  and  C_27
REMARK                            x       y       z     vdW  Elec       q    Type
REMARK                         _______ _______ _______ _____ _____    ______ ____
ROOT
ATOM      1  C   UNL     1       2.193   5.601  20.690  0.00  0.00    +0.000 C 
ATOM      2  N   UNL     1       2.164   6.839  19.900  0.00  0.00    +0.000 N 
ATOM      3  C   UNL     1       2.769   6.960  18.635  0.00  0.00    +0.000 C 
ATOM      4  C   UNL     1       2.753   8.114  17.942  0.00  0.00    +0.000 C 
ATOM      5  C   UNL     1       2.065   9.269  18.523  0.00  0.00    +0.000 A 
ATOM      6  C   UNL     1       1.998  10.496  17.901  0.00  0.00    +0.000 A 
ATOM      7  N   UNL     1       1.362  11.569  18.415  0.00  0.00    +0.000 NA
ATOM      8  C   UNL     1       0.749  11.389  19.593  0.00  0.00    +0.000 A 
ATOM      9  N   UNL     1       0.091  12.497  20.136  0.00  0.00    +0.000 N 
ATOM     10  N   UNL     1       0.759  10.235  20.273  0.00  0.00    +0.000 NA
ATOM     11  C   UNL     1       1.420   9.183  19.755  0.00  0.00    +0.000 A 
ATOM     12  N   UNL     1       1.496   7.951  20.461  0.00  0.00    +0.000 N 
ATOM     13  C   UNL     1       0.700   7.844  21.681  0.00  0.00    +0.000 C 
ATOM     14  H   UNL     1       0.127  13.243  19.453  0.00  0.00    +0.000 HD
ENDROOT
BRANCH   3  15
ATOM     15  C   UNL     1       3.468   5.810  18.027  0.00  0.00    +0.000 A 
ATOM     16  C   UNL     1       4.872   5.853  17.944  0.00  0.00    +0.000 A 
ATOM     17  C   UNL     1       5.587   4.781  17.410  0.00  0.00    +0.000 A 
ATOM     18  C   UNL     1       4.911   3.654  16.945  0.00  0.00    +0.000 A 
ATOM     19  C   UNL     1       3.517   3.603  17.006  0.00  0.00    +0.000 A 
ATOM     20  C   UNL     1       2.797   4.677  17.538  0.00  0.00    +0.000 A 
ATOM     21 CL   UNL     1       1.072   4.546  17.578  0.00  0.00    +0.000 Cl
ENDBRANCH   3  15
BRANCH   9  22
ATOM     22  C   UNL     1      -1.095  12.478  20.891  0.00  0.00    +0.000 A 
ATOM     23  C   UNL     1      -1.011  12.325  22.283  0.00  0.00    +0.000 A 
ATOM     24  C   UNL     1      -2.166  12.311  23.070  0.00  0.00    +0.000 A 
ATOM     25  C   UNL     1      -3.407  12.484  22.468  0.00  0.00    +0.000 A 
ATOM     26  F   UNL     1      -4.514  12.474  23.223  0.00  0.00    +0.000 F 
ATOM     27  C   UNL     1      -3.515  12.671  21.098  0.00  0.00    +0.000 A 
ATOM     28  C   UNL     1      -2.360  12.670  20.312  0.00  0.00    +0.000 A 
ENDBRANCH   9  22
TORSDOF 2
ENDMDL
MODEL 2
REMARK VINA RESULT:      -7.5      1.042      1.675
REMARK  Name = 
REMARK  4 active torsions:
REMARK  status: ('A' for Active; 'I' for Inactive)
REMARK    1  A    between atoms: C_1  and  N_2
REMARK    2  A    between atoms: C_3  and  C_4
REMARK    3  A    between atoms: N_16  and  C_17
REMARK    4  A    between atoms: N_26  and  C_27
REMARK                            x       y       z     vdW  Elec       q    Type
REMARK                         _______ _______ _______ _____ _____    ______ ____
ROOT
ATOM      1  C   UNL     1       2.007   5.542  20.734  0.00  0.00    +0.000 C 
ATOM      2  N   UNL     1       1.985   6.761  19.913  0.00  0.00    +0.000 N 
ATOM      3  C   UNL     1       2.491   6.814  18.601  0.00  0.00    +0.000 C 
ATOM      4  C   UNL     1       2.485   7.950  17.878  0.00  0.00    +0.000 C 
ATOM      5  C   UNL     1       1.915   9.158  18.478  0.00  0.00    +0.000 A 
ATOM      6  C   UNL     1       1.868  10.371  17.827  0.00  0.00    +0.000 A 
ATOM      7  N   UNL     1       1.339  11.492  18.359  0.00  0.00    +0.000 NA
ATOM      8  C   UNL     1       0.815  11.378  19.587  0.00  0.00    +0.000 A 
ATOM      9  N   UNL     1       0.269  12.537  20.148  0.00  0.00    +0.000 N 
ATOM     10  N   UNL     1       0.814  10.243  20.298  0.00  0.00    +0.000 NA
ATOM     11  C   UNL     1       1.368   9.140  19.759  0.00  0.00    +0.000 A 
ATOM     12  N   UNL     1       1.431   7.923  20.493  0.00  0.00    +0.000 N 
ATOM     13  C   UNL     1       0.732   7.894  21.775  0.00  0.00    +0.000 C 
ATOM     14  H   UNL     1       0.292  13.262  19.443  0.00  0.00    +0.000 HD
ENDROOT
BRANCH   3  15
ATOM     15  C   UNL     1       3.071   5.610  17.972  0.00  0.00    +0.000 A 
ATOM     16  C   UNL     1       2.234   4.497  17.771  0.00  0.00    +0.000 A 
ATOM     17  C   UNL     1       2.720   3.345  17.151  0.00  0.00    +0.000 A 
ATOM     18  C   UNL     1       4.047   3.285  16.730  0.00  0.00    +0.000 A 
ATOM     19  C   UNL     1       4.894   4.376  16.937  0.00  0.00    +0.000 A 
ATOM     20  C   UNL     1       4.411   5.531  17.561  0.00  0.00    +0.000 A 
ATOM     21 CL   UNL     1       5.519   6.842  17.788  0.00  0.00    +0.000 Cl
ENDBRANCH   3  15
BRANCH   9  22
ATOM     22  C   UNL     1      -0.851  12.608  20.996  0.00  0.00    +0.000 A 
ATOM     23  C   UNL     1      -2.129  12.692  20.425  0.00  0.00    +0.000 A 
ATOM     24  C   UNL     1      -3.269  12.753  21.232  0.00  0.00    +0.000 A 
ATOM     25  C   UNL     1      -3.132  12.697  22.614  0.00  0.00    +0.000 A 
ATOM     26  F   UNL     1      -4.225  12.753  23.388  0.00  0.00    +0.000 F 
ATOM     27  C   UNL     1      -1.882  12.581  23.203  0.00  0.00    +0.000 A 
ATOM     28  C   UNL     1      -0.744  12.534  22.394  0.00  0.00    +0.000 A 
ENDBRANCH   9  22
TORSDOF 2
ENDMDL
MODEL 3
REMARK VINA RESULT:      -7.4      3.695      8.998
REMARK  Name = 
REMARK  4 active torsions:
REMARK  status: ('A' for Active; 'I' for Inactive)
REMARK    1  A    between atoms: C_1  and  N_2
REMARK    2  A    between atoms: C_3  and  C_4
REMARK    3  A    between atoms: N_16  and  C_17
REMARK    4  A    between atoms: N_26  and  C_27
REMARK                            x       y       z     vdW  Elec       q    Type
REMARK                         _______ _______ _______ _____ _____    ______ ____
ROOT
ATOM      1  C   UNL     1      -2.593  12.030  18.152  0.00  0.00    +0.000 C 
ATOM      2  N   UNL     1      -1.876  11.537  19.335  0.00  0.00    +0.000 N 
ATOM      3  C   UNL     1      -2.055  12.077  20.624  0.00  0.00    +0.000 C 
ATOM      4  C   UNL     1      -1.366  11.626  21.689  0.00  0.00    +0.000 C 
ATOM      5  C   UNL     1      -0.418  10.526  21.495  0.00  0.00    +0.000 A 
ATOM      6  C   UNL     1       0.341   9.999  22.516  0.00  0.00    +0.000 A 
ATOM      7  N   UNL     1       1.213   8.981  22.360  0.00  0.00    +0.000 NA
ATOM      8  C   UNL     1       1.305   8.460  21.129  0.00  0.00    +0.000 A 
ATOM      9  N   UNL     1       2.210   7.408  20.957  0.00  0.00    +0.000 N 
ATOM     10  N   UNL     1       0.609   8.905  20.074  0.00  0.00    +0.000 NA
ATOM     11  C   UNL     1      -0.239   9.938  20.246  0.00  0.00    +0.000 A 
ATOM     12  N   UNL     1      -0.965  10.474  19.147  0.00  0.00    +0.000 N 
ATOM     13  C   UNL     1      -0.863   9.755  17.880  0.00  0.00    +0.000 C 
ATOM     14  H   UNL     1       2.578   7.166  21.867  0.00  0.00    +0.000 HD
ENDROOT
BRANCH   3  15
ATOM     15  C   UNL     1      -3.005  13.184  20.846  0.00  0.00    +0.000 A 
ATOM     16  C   UNL     1      -4.338  12.864  21.161  0.00  0.00    +0.000 A 
ATOM     17  C   UNL     1      -5.271  13.870  21.415  0.00  0.00    +0.000 A 
ATOM     18  C   UNL     1      -4.889  15.209  21.351  0.00  0.00    +0.000 A 
ATOM     19  C   UNL     1      -3.573  15.543  21.023  0.00  0.00    +0.000 A 
ATOM     20  C   UNL     1      -2.636  14.537  20.766  0.00  0.00    +0.000 A 
ATOM     21 CL   UNL     1      -1.026  15.026  20.363  0.00  0.00    +0.000 Cl
ENDBRANCH   3  15
BRANCH   9  22
ATOM     22  C   UNL     1       2.057   6.306  20.096  0.00  0.00    +0.000 A 
ATOM     23  C   UNL     1       2.599   6.375  18.804  0.00  0.00    +0.000 A 
ATOM     24  C   UNL     1       2.478   5.297  17.921  0.00  0.00    +0.000 A 
ATOM     25  C   UNL     1       1.841   4.136  18.343  0.00  0.00    +0.000 A 
ATOM     26  F   UNL     1       1.727   3.102  17.498  0.00  0.00    +0.000 F 
ATOM     27  C   UNL     1       1.326   4.031  19.626  0.00  0.00    +0.000 A 
ATOM     28  C   UNL     1       1.436   5.114  20.500  0.00  0.00    +0.000 A 
ENDBRANCH   9  22
TORSDOF 2
ENDMDL
MODEL 4
REMARK VINA RESULT:      -7.3      3.040      4.292
REMARK  Name = 
REMARK  4 active torsions:
REMARK  status: ('A' for Active; 'I' for Inactive)
REMARK    1  A    between atoms: C_1  and  N_2
REMARK    2  A    between atoms: C_3  and  C_4
REMARK    3  A    between atoms: N_16  and  C_17
REMARK    4  A    between atoms: N_26  and  C_27
REMARK                            x       y       z     vdW  Elec       q    Type
REMARK                         _______ _______ _______ _____ _____    ______ ____
ROOT
ATOM      1  C   UNL     1       2.441   6.673  17.632  0.00  0.00    +0.000 C 
ATOM      2  N   UNL     1       1.995   7.280  18.893  0.00  0.00    +0.000 N 
ATOM      3  C   UNL     1       1.831   6.548  20.084  0.00  0.00    +0.000 C 
ATOM      4  C   UNL     1       1.394   7.121  21.221  0.00  0.00    +0.000 C 
ATOM      5  C   UNL     1       1.102   8.557  21.213  0.00  0.00    +0.000 A 
ATOM      6  C   UNL     1       0.644   9.236  22.320  0.00  0.00    +0.000 A 
ATOM      7  N   UNL     1       0.377  10.559  22.336  0.00  0.00    +0.000 NA
ATOM      8  C   UNL     1       0.606  11.226  21.196  0.00  0.00    +0.000 A 
ATOM      9  N   UNL     1       0.328  12.596  21.202  0.00  0.00    +0.000 N 
ATOM     10  N   UNL     1       1.051  10.652  20.070  0.00  0.00    +0.000 NA
ATOM     11  C   UNL     1       1.288   9.326  20.068  0.00  0.00    +0.000 A 
ATOM     12  N   UNL     1       1.718   8.665  18.884  0.00  0.00    +0.000 N 
ATOM     13  C   UNL     1       2.035   9.513  17.738  0.00  0.00    +0.000 C 
ATOM     14  H   UNL     1       0.080  12.857  22.147  0.00  0.00    +0.000 HD
ENDROOT
BRANCH   3  15
ATOM     15  C   UNL     1       2.119   5.100  20.118  0.00  0.00    +0.000 A 
ATOM     16  C   UNL     1       1.058   4.217  20.387  0.00  0.00    +0.000 A 
ATOM     17  C   UNL     1       1.266   2.837  20.398  0.00  0.00    +0.000 A 
ATOM     18  C   UNL     1       2.536   2.320  20.149  0.00  0.00    +0.000 A 
ATOM     19  C   UNL     1       3.603   3.185  19.897  0.00  0.00    +0.000 A 
ATOM     20  C   UNL     1       3.399   4.569  19.887  0.00  0.00    +0.000 A 
ATOM     21 CL   UNL     1       4.768   5.579  19.571  0.00  0.00    +0.000 Cl
ENDBRANCH   3  15
BRANCH   9  22
ATOM     22  C   UNL     1       1.033  13.595  20.506  0.00  0.00    +0.000 A 
ATOM     23  C   UNL     1       0.348  14.378  19.565  0.00  0.00    +0.000 A 
ATOM     24  C   UNL     1       1.010  15.387  18.860  0.00  0.00    +0.000 A 
ATOM     25  C   UNL     1       2.352  15.637  19.120  0.00  0.00    +0.000 A 
ATOM     26  F   UNL     1       2.986  16.607  18.447  0.00  0.00    +0.000 F 
ATOM     27  C   UNL     1       3.043  14.900  20.070  0.00  0.00    +0.000 A 
ATOM     28  C   UNL     1       2.383  13.882  20.762  0.00  0.00    +0.000 A 
ENDBRANCH   9  22
TORSDOF 2
ENDMDL
MODEL 5
REMARK VINA RESULT:      -7.1      3.569      8.860
REMARK  Name = 
REMARK  4 active torsions:
REMARK  status: ('A' for Active; 'I' for Inactive)
REMARK    1  A    between atoms: C_1  and  N_2
REMARK    2  A    between atoms: C_3  and  C_4
REMARK    3  A    between atoms: N_16  and  C_17
REMARK    4  A    between atoms: N_26  and  C_27
REMARK                            x       y       z     vdW  Elec       q    Type
REMARK                         _______ _______ _______ _____ _____    ______ ____
ROOT
ATOM      1  C   UNL     1      -2.271  12.159  17.930  0.00  0.00    +0.000 C 
ATOM      2  N   UNL     1      -1.664  11.642  19.164  0.00  0.00    +0.000 N 
ATOM      3  C   UNL     1      -1.904  12.202  20.433  0.00  0.00    +0.000 C 
ATOM      4  C   UNL     1      -1.314  11.727  21.546  0.00  0.00    +0.000 C 
ATOM      5  C   UNL     1      -0.411  10.580  21.425  0.00  0.00    +0.000 A 
ATOM      6  C   UNL     1       0.248  10.026  22.500  0.00  0.00    +0.000 A 
ATOM      7  N   UNL     1       1.077   8.965  22.411  0.00  0.00    +0.000 NA
ATOM      8  C   UNL     1       1.227   8.428  21.192  0.00  0.00    +0.000 A 
ATOM      9  N   UNL     1       2.088   7.331  21.089  0.00  0.00    +0.000 N 
ATOM     10  N   UNL     1       0.629   8.897  20.088  0.00  0.00    +0.000 NA
ATOM     11  C   UNL     1      -0.175   9.972  20.195  0.00  0.00    +0.000 A 
ATOM     12  N   UNL     1      -0.796  10.533  19.045  0.00  0.00    +0.000 N 
ATOM     13  C   UNL     1      -0.643   9.798  17.792  0.00  0.00    +0.000 C 
ATOM     14  H   UNL     1       2.380   7.079  22.024  0.00  0.00    +0.000 HD
ENDROOT
BRANCH   3  15
ATOM     15  C   UNL     1      -2.810  13.357  20.582  0.00  0.00    +0.000 A 
ATOM     16  C   UNL     1      -2.242  14.624  20.808  0.00  0.00    +0.000 A 
ATOM     17  C   UNL     1      -3.050  15.756  20.923  0.00  0.00    +0.000 A 
ATOM     18  C   UNL     1      -4.434  15.639  20.821  0.00  0.00    +0.000 A 
ATOM     19  C   UNL     1      -5.015  14.386  20.613  0.00  0.00    +0.000 A 
ATOM     20  C   UNL     1      -4.209  13.249  20.500  0.00  0.00    +0.000 A 
ATOM     21 CL   UNL     1      -4.997  11.729  20.246  0.00  0.00    +0.000 Cl
ENDBRANCH   3  15
BRANCH   9  22
ATOM     22  C   UNL     1       1.940   6.230  20.226  0.00  0.00    +0.000 A 
ATOM     23  C   UNL     1       2.496   6.297  18.940  0.00  0.00    +0.000 A 
ATOM     24  C   UNL     1       2.381   5.220  18.056  0.00  0.00    +0.000 A 
ATOM     25  C   UNL     1       1.735   4.061  18.470  0.00  0.00    +0.000 A 
ATOM     26  F   UNL     1       1.626   3.028  17.623  0.00  0.00    +0.000 F 
ATOM     27  C   UNL     1       1.205   3.958  19.748  0.00  0.00    +0.000 A 
ATOM     28  C   UNL     1       1.310   5.040  20.624  0.00  0.00    +0.000 A 
ENDBRANCH   9  22
TORSDOF 2
ENDMDL
MODEL 6
REMARK VINA RESULT:      -7.0      2.480      3.329
REMARK  Name = 
REMARK  4 active torsions:
REMARK  status: ('A' for Active; 'I' for Inactive)
REMARK    1  A    between atoms: C_1  and  N_2
REMARK    2  A    between atoms: C_3  and  C_4
REMARK    3  A    between atoms: N_16  and  C_17
REMARK    4  A    between atoms: N_26  and  C_27
REMARK                            x       y       z     vdW  Elec       q    Type
REMARK                         _______ _______ _______ _____ _____    ______ ____
ROOT
ATOM      1  C   UNL     1       3.145   7.396  17.467  0.00  0.00    +0.000 C 
ATOM      2  N   UNL     1       2.430   7.670  18.720  0.00  0.00    +0.000 N 
ATOM      3  C   UNL     1       2.367   6.753  19.787  0.00  0.00    +0.000 C 
ATOM      4  C   UNL     1       1.681   7.015  20.915  0.00  0.00    +0.000 C 
ATOM      5  C   UNL     1       0.998   8.306  21.035  0.00  0.00    +0.000 A 
ATOM      6  C   UNL     1       0.264   8.668  22.142  0.00  0.00    +0.000 A 
ATOM      7  N   UNL     1      -0.365   9.854  22.275  0.00  0.00    +0.000 NA
ATOM      8  C   UNL     1      -0.228  10.717  21.259  0.00  0.00    +0.000 A 
ATOM      9  N   UNL     1      -0.881  11.947  21.387  0.00  0.00    +0.000 N 
ATOM     10  N   UNL     1       0.465  10.455  20.143  0.00  0.00    +0.000 NA
ATOM     11  C   UNL     1       1.066   9.256  20.019  0.00  0.00    +0.000 A 
ATOM     12  N   UNL     1       1.775   8.916  18.834  0.00  0.00    +0.000 N 
ATOM     13  C   UNL     1       1.946   9.976  17.845  0.00  0.00    +0.000 C 
ATOM     14  H   UNL     1      -1.281  11.990  22.315  0.00  0.00    +0.000 HD
ENDROOT
BRANCH   3  15
ATOM     15  C   UNL     1       3.048   5.447  19.692  0.00  0.00    +0.000 A 
ATOM     16  C   UNL     1       4.420   5.432  19.380  0.00  0.00    +0.000 A 
ATOM     17  C   UNL     1       5.122   4.228  19.311  0.00  0.00    +0.000 A 
ATOM     18  C   UNL     1       4.464   3.022  19.545  0.00  0.00    +0.000 A 
ATOM     19  C   UNL     1       3.099   3.019  19.840  0.00  0.00    +0.000 A 
ATOM     20  C   UNL     1       2.392   4.223  19.907  0.00  0.00    +0.000 A 
ATOM     21 CL   UNL     1       0.702   4.142  20.274  0.00  0.00    +0.000 Cl
ENDBRANCH   3  15
BRANCH   9  22
ATOM     22  C   UNL     1      -0.425  13.189  20.909  0.00  0.00    +0.000 A 
ATOM     23  C   UNL     1       0.610  13.841  21.597  0.00  0.00    +0.000 A 
ATOM     24  C   UNL     1       1.099  15.071  21.149  0.00  0.00    +0.000 A 
ATOM     25  C   UNL     1       0.575  15.636  19.992  0.00  0.00    +0.000 A 
ATOM     26  F   UNL     1       1.046  16.815  19.561  0.00  0.00    +0.000 F 
ATOM     27  C   UNL     1      -0.425  14.996  19.276  0.00  0.00    +0.000 A 
ATOM     28  C   UNL     1      -0.922  13.774  19.734  0.00  0.00    +0.000 A 
ENDBRANCH   9  22
TORSDOF 2
ENDMDL
MODEL 7
REMARK VINA RESULT:      -6.8      3.629      8.546
REMARK  Name = 
REMARK  4 active torsions:
REMARK  status: ('A' for Active; 'I' for Inactive)
REMARK    1  A    between atoms: C_1  and  N_2
REMARK    2  A    between atoms: C_3  and  C_4
REMARK    3  A    between atoms: N_16  and  C_17
REMARK    4  A    between atoms: N_26  and  C_27
REMARK                            x       y       z     vdW  Elec       q    Type
REMARK                         _______ _______ _______ _____ _____    ______ ____
ROOT
ATOM      1  C   UNL     1      -1.114  10.789  22.854  0.00  0.00    +0.000 C 
ATOM      2  N   UNL     1      -0.345  10.893  21.607  0.00  0.00    +0.000 N 
ATOM      3  C   UNL     1      -0.071  12.119  20.971  0.00  0.00    +0.000 C 
ATOM      4  C   UNL     1       0.612  12.187  19.813  0.00  0.00    +0.000 C 
ATOM      5  C   UNL     1       1.099  10.942  19.214  0.00  0.00    +0.000 A 
ATOM      6  C   UNL     1       1.800  10.902  18.029  0.00  0.00    +0.000 A 
ATOM      7  N   UNL     1       2.264   9.767  17.466  0.00  0.00    +0.000 NA
ATOM      8  C   UNL     1       2.032   8.631  18.138  0.00  0.00    +0.000 A 
ATOM      9  N   UNL     1       2.505   7.449  17.558  0.00  0.00    +0.000 N 
ATOM     10  N   UNL     1       1.360   8.570  19.295  0.00  0.00    +0.000 NA
ATOM     11  C   UNL     1       0.884   9.711  19.829  0.00  0.00    +0.000 A 
ATOM     12  N   UNL     1       0.127   9.692  21.033  0.00  0.00    +0.000 N 
ATOM     13  C   UNL     1       0.032   8.410  21.727  0.00  0.00    +0.000 C 
ATOM     14  H   UNL     1       3.044   7.701  16.740  0.00  0.00    +0.000 HD
ENDROOT
BRANCH   3  15
ATOM     15  C   UNL     1      -0.550  13.388  21.555  0.00  0.00    +0.000 A 
ATOM     16  C   UNL     1       0.378  14.200  22.232  0.00  0.00    +0.000 A 
ATOM     17  C   UNL     1      -0.011  15.426  22.774  0.00  0.00    +0.000 A 
ATOM     18  C   UNL     1      -1.332  15.854  22.654  0.00  0.00    +0.000 A 
ATOM     19  C   UNL     1      -2.268  15.052  21.998  0.00  0.00    +0.000 A 
ATOM     20  C   UNL     1      -1.882  13.822  21.457  0.00  0.00    +0.000 A 
ATOM     21 CL   UNL     1      -3.097  12.879  20.663  0.00  0.00    +0.000 Cl
ENDBRANCH   3  15
BRANCH   9  22
ATOM     22  C   UNL     1       3.003   6.325  18.241  0.00  0.00    +0.000 A 
ATOM     23  C   UNL     1       2.152   5.231  18.458  0.00  0.00    +0.000 A 
ATOM     24  C   UNL     1       2.612   4.091  19.123  0.00  0.00    +0.000 A 
ATOM     25  C   UNL     1       3.935   4.030  19.543  0.00  0.00    +0.000 A 
ATOM     26  F   UNL     1       4.376   2.936  20.178  0.00  0.00    +0.000 F 
ATOM     27  C   UNL     1       4.806   5.085  19.311  0.00  0.00    +0.000 A 
ATOM     28  C   UNL     1       4.340   6.228  18.660  0.00  0.00    +0.000 A 
ENDBRANCH   9  22
TORSDOF 2
ENDMDL
MODEL 8
REMARK VINA RESULT:      -6.7      3.628      8.650
REMARK  Name = 
REMARK  4 active torsions:
REMARK  status: ('A' for Active; 'I' for Inactive)
REMARK    1  A    between atoms: C_1  and  N_2
REMARK    2  A    between atoms: C_3  and  C_4
REMARK    3  A    between atoms: N_16  and  C_17
REMARK    4  A    between atoms: N_26  and  C_27
REMARK                            x       y       z     vdW  Elec       q    Type
REMARK                         _______ _______ _______ _____ _____    ______ ____
ROOT
ATOM      1  C   UNL     1      -1.243  10.733  23.123  0.00  0.00    +0.000 C 
ATOM      2  N   UNL     1      -0.550  11.028  21.862  0.00  0.00    +0.000 N 
ATOM      3  C   UNL     1      -0.459  12.323  21.319  0.00  0.00    +0.000 C 
ATOM      4  C   UNL     1       0.158  12.565  20.147  0.00  0.00    +0.000 C 
ATOM      5  C   UNL     1       0.768  11.441  19.432  0.00  0.00    +0.000 A 
ATOM      6  C   UNL     1       1.414  11.580  18.224  0.00  0.00    +0.000 A 
ATOM      7  N   UNL     1       1.989  10.560  17.554  0.00  0.00    +0.000 NA
ATOM      8  C   UNL     1       1.930   9.356  18.140  0.00  0.00    +0.000 A 
ATOM      9  N   UNL     1       2.519   8.291  17.451  0.00  0.00    +0.000 N 
ATOM     10  N   UNL     1       1.324   9.122  19.312  0.00  0.00    +0.000 NA
ATOM     11  C   UNL     1       0.735  10.150  19.953  0.00  0.00    +0.000 A 
ATOM     12  N   UNL     1       0.041   9.943  21.177  0.00  0.00    +0.000 N 
ATOM     13  C   UNL     1       0.137   8.611  21.768  0.00  0.00    +0.000 C 
ATOM     14  H   UNL     1       2.985   8.671  16.637  0.00  0.00    +0.000 HD
ENDROOT
BRANCH   3  15
ATOM     15  C   UNL     1      -1.064  13.473  22.020  0.00  0.00    +0.000 A 
ATOM     16  C   UNL     1      -0.217  14.329  22.748  0.00  0.00    +0.000 A 
ATOM     17  C   UNL     1      -0.730  15.450  23.401  0.00  0.00    +0.000 A 
ATOM     18  C   UNL     1      -2.094  15.729  23.344  0.00  0.00    +0.000 A 
ATOM     19  C   UNL     1      -2.950  14.880  22.638  0.00  0.00    +0.000 A 
ATOM     20  C   UNL     1      -2.440  13.754  21.985  0.00  0.00    +0.000 A 
ATOM     21 CL   UNL     1      -3.560  12.746  21.134  0.00  0.00    +0.000 Cl
ENDBRANCH   3  15
BRANCH   9  22
ATOM     22  C   UNL     1       3.183   7.191  18.022  0.00  0.00    +0.000 A 
ATOM     23  C   UNL     1       4.447   6.832  17.531  0.00  0.00    +0.000 A 
ATOM     24  C   UNL     1       5.145   5.752  18.078  0.00  0.00    +0.000 A 
ATOM     25  C   UNL     1       4.591   5.048  19.141  0.00  0.00    +0.000 A 
ATOM     26  F   UNL     1       5.262   4.014  19.668  0.00  0.00    +0.000 F 
ATOM     27  C   UNL     1       3.358   5.403  19.667  0.00  0.00    +0.000 A 
ATOM     28  C   UNL     1       2.657   6.474  19.109  0.00  0.00    +0.000 A 
ENDBRANCH   9  22
TORSDOF 2
ENDMDL
MODEL 9
REMARK VINA RESULT:      -6.7      3.494      8.807
REMARK  Name = 
REMARK  4 active torsions:
REMARK  status: ('A' for Active; 'I' for Inactive)
REMARK    1  A    between atoms: C_1  and  N_2
REMARK    2  A    between atoms: C_3  and  C_4
REMARK    3  A    between atoms: N_16  and  C_17
REMARK    4  A    between atoms: N_26  and  C_27
REMARK                            x       y       z     vdW  Elec       q    Type
REMARK                         _______ _______ _______ _____ _____    ______ ____
ROOT
ATOM      1  C   UNL     1       0.467  12.425  18.530  0.00  0.00    +0.000 C 
ATOM      2  N   UNL     1       0.428  11.172  19.295  0.00  0.00    +0.000 N 
ATOM      3  C   UNL     1      -0.515  10.919  20.310  0.00  0.00    +0.000 C 
ATOM      4  C   UNL     1      -0.514   9.773  21.017  0.00  0.00    +0.000 C 
ATOM      5  C   UNL     1       0.491   8.756  20.699  0.00  0.00    +0.000 A 
ATOM      6  C   UNL     1       0.582   7.555  21.367  0.00  0.00    +0.000 A 
ATOM      7  N   UNL     1       1.494   6.602  21.083  0.00  0.00    +0.000 NA
ATOM      8  C   UNL     1       2.331   6.862  20.069  0.00  0.00    +0.000 A 
ATOM      9  N   UNL     1       3.282   5.881  19.772  0.00  0.00    +0.000 N 
ATOM     10  N   UNL     1       2.319   8.000  19.362  0.00  0.00    +0.000 NA
ATOM     11  C   UNL     1       1.417   8.949  19.677  0.00  0.00    +0.000 A 
ATOM     12  N   UNL     1       1.395  10.190  18.984  0.00  0.00    +0.000 N 
ATOM     13  C   UNL     1       2.283  10.314  17.831  0.00  0.00    +0.000 C 
ATOM     14  H   UNL     1       3.088   5.076  20.352  0.00  0.00    +0.000 HD
ENDROOT
BRANCH   3  15
ATOM     15  C   UNL     1      -1.538  11.928  20.650  0.00  0.00    +0.000 A 
ATOM     16  C   UNL     1      -1.353  12.699  21.811  0.00  0.00    +0.000 A 
ATOM     17  C   UNL     1      -2.271  13.690  22.162  0.00  0.00    +0.000 A 
ATOM     18  C   UNL     1      -3.389  13.920  21.363  0.00  0.00    +0.000 A 
ATOM     19  C   UNL     1      -3.595  13.152  20.215  0.00  0.00    +0.000 A 
ATOM     20  C   UNL     1      -2.679  12.156  19.862  0.00  0.00    +0.000 A 
ATOM     21 CL   UNL     1      -3.001  11.241  18.429  0.00  0.00    +0.000 Cl
ENDBRANCH   3  15
BRANCH   9  22
ATOM     22  C   UNL     1       3.774   5.554  18.495  0.00  0.00    +0.000 A 
ATOM     23  C   UNL     1       4.564   6.490  17.812  0.00  0.00    +0.000 A 
ATOM     24  C   UNL     1       5.081   6.199  16.546  0.00  0.00    +0.000 A 
ATOM     25  C   UNL     1       4.833   4.956  15.975  0.00  0.00    +0.000 A 
ATOM     26  F   UNL     1       5.330   4.676  14.763  0.00  0.00    +0.000 F 
ATOM     27  C   UNL     1       4.082   4.000  16.644  0.00  0.00    +0.000 A 
ATOM     28  C   UNL     1       3.556   4.300  17.903  0.00  0.00    +0.000 A 
ENDBRANCH   9  22
TORSDOF 2
ENDMDL
