MODEL 1
REMARK VINA RESULT:      -7.8      0.000      0.000
REMARK  Name = 
REMARK  10 active torsions:
REMARK  status: ('A' for Active; 'I' for Inactive)
REMARK    1  A    between atoms: C_1  and  C_2
REMARK    2  A    between atoms: C_2  and  C_3
REMARK    3  A    between atoms: C_2  and  O_4
REMARK    4  A    between atoms: O_4  and  C_5
REMARK    5  A    between atoms: C_10  and  N_11
REMARK    6  A    between atoms: N_14  and  C_15
REMARK    7  A    between atoms: C_15  and  C_16
REMARK    8  A    between atoms: C_20  and  C_21
REMARK    9  A    between atoms: C_21  and  N_22
REMARK   10  A    between atoms: C_23  and  C_25
REMARK                            x       y       z     vdW  Elec       q    Type
REMARK                         _______ _______ _______ _____ _____    ______ ____
ROOT
ATOM      1  C   UNL     1       0.957   5.820  20.216  0.00  0.00    +0.000 C 
ENDROOT
BRANCH   1   5
ATOM      2  N   UNL     1       1.071   9.421  19.377  0.00  0.00    +0.000 N 
ATOM      3  C   UNL     1       1.376   8.393  18.368  0.00  0.00    +0.000 C 
ATOM      4  C   UNL     1       2.388   7.341  18.929  0.00  0.00    +0.000 C 
ATOM      5  N   UNL     1       2.092   6.777  20.275  0.00  0.00    +0.000 NA
ATOM      6  C   UNL     1       1.885   7.951  21.155  0.00  0.00    +0.000 C 
ATOM      7  C   UNL     1       0.731   8.872  20.702  0.00  0.00    +0.000 C 
BRANCH   2  13
ATOM      8  C   UNL     1      -0.570  11.122  18.538  0.00  0.00    +0.000 A 
ATOM      9  C   UNL     1      -0.839  12.485  18.294  0.00  0.00    +0.000 A 
ATOM     10  C   UNL     1       0.147  13.456  18.447  0.00  0.00    +0.000 A 
ATOM     11  C   UNL     1       1.403  13.084  18.886  0.00  0.00    +0.000 A 
ATOM     12  C   UNL     1       1.657  11.745  19.191  0.00  0.00    +0.000 A 
ATOM     13  C   UNL     1       0.687  10.723  19.056  0.00  0.00    +0.000 A 
BRANCH   8  14
ATOM     14  O   UNL     1      -1.560  10.182  18.358  0.00  0.00    +0.000 OA
BRANCH  14  16
ATOM     15  C   UNL     1      -2.308   9.872  16.094  0.00  0.00    +0.000 C 
ATOM     16  C   UNL     1      -2.618  10.516  17.442  0.00  0.00    +0.000 C 
ATOM     17  C   UNL     1      -3.934   9.986  18.006  0.00  0.00    +0.000 C 
ENDBRANCH  14  16
ENDBRANCH   8  14
ENDBRANCH   2  13
ENDBRANCH   1   5
BRANCH   1  18
ATOM     18  C   UNL     1       1.350   4.373  19.931  0.00  0.00    +0.000 A 
ATOM     19  C   UNL     1       0.514   3.515  19.204  0.00  0.00    +0.000 A 
ATOM     20  C   UNL     1       0.958   2.243  18.823  0.00  0.00    +0.000 A 
ATOM     21  C   UNL     1       2.277   1.858  19.069  0.00  0.00    +0.000 A 
ATOM     22  C   UNL     1       3.125   2.709  19.777  0.00  0.00    +0.000 A 
ATOM     23  C   UNL     1       2.593   3.875  20.337  0.00  0.00    +0.000 A 
BRANCH  22  24
ATOM     24  C   UNL     1       4.617   2.501  19.810  0.00  0.00    +0.000 C 
BRANCH  24  25
ATOM     25  N   UNL     1       5.368   3.692  19.543  0.00  0.00    +0.000 N 
ATOM     26  C   UNL     1       5.442   4.164  18.255  0.00  0.00    +0.000 C 
ATOM     27  O   UNL     1       4.903   3.627  17.289  0.00  0.00    +0.000 OA
ATOM     28  H   UNL     1       5.592   4.305  20.318  0.00  0.00    +0.000 HD
BRANCH  26  29
ATOM     29  C   UNL     1       6.225   5.418  18.075  0.00  0.00    +0.000 A 
ATOM     30  C   UNL     1       5.817   6.388  17.145  0.00  0.00    +0.000 A 
ATOM     31  C   UNL     1       6.565   7.554  16.980  0.00  0.00    +0.000 A 
ATOM     32  C   UNL     1       7.715   7.756  17.745  0.00  0.00    +0.000 A 
ATOM     33  C   UNL     1       8.113   6.802  18.681  0.00  0.00    +0.000 A 
ATOM     34  C   UNL     1       7.366   5.636  18.850  0.00  0.00    +0.000 A 
ENDBRANCH  26  29
ENDBRANCH  24  25
ENDBRANCH  22  24
ENDBRANCH   1  18
TORSDOF 8
ENDMDL
MODEL 2
REMARK VINA RESULT:      -7.7      1.348      1.767
REMARK  Name = 
REMARK  10 active torsions:
REMARK  status: ('A' for Active; 'I' for Inactive)
REMARK    1  A    between atoms: C_1  and  C_2
REMARK    2  A    between atoms: C_2  and  C_3
REMARK    3  A    between atoms: C_2  and  O_4
REMARK    4  A    between atoms: O_4  and  C_5
REMARK    5  A    between atoms: C_10  and  N_11
REMARK    6  A    between atoms: N_14  and  C_15
REMARK    7  A    between atoms: C_15  and  C_16
REMARK    8  A    between atoms: C_20  and  C_21
REMARK    9  A    between atoms: C_21  and  N_22
REMARK   10  A    between atoms: C_23  and  C_25
REMARK                            x       y       z     vdW  Elec       q    Type
REMARK                         _______ _______ _______ _____ _____    ______ ____
ROOT
ATOM      1  C   UNL     1       0.864   6.166  20.315  0.00  0.00    +0.000 C 
ENDROOT
BRANCH   1   5
ATOM      2  N   UNL     1       0.920   9.776  19.508  0.00  0.00    +0.000 N 
ATOM      3  C   UNL     1       1.379   8.770  18.537  0.00  0.00    +0.000 C 
ATOM      4  C   UNL     1       2.366   7.757  19.205  0.00  0.00    +0.000 C 
ATOM      5  N   UNL     1       1.944   7.170  20.506  0.00  0.00    +0.000 NA
ATOM      6  C   UNL     1       1.588   8.326  21.362  0.00  0.00    +0.000 C 
ATOM      7  C   UNL     1       0.455   9.202  20.784  0.00  0.00    +0.000 C 
BRANCH   2  13
ATOM      8  C   UNL     1      -0.706  11.419  18.534  0.00  0.00    +0.000 A 
ATOM      9  C   UNL     1      -0.999  12.772  18.262  0.00  0.00    +0.000 A 
ATOM     10  C   UNL     1      -0.061  13.776  18.487  0.00  0.00    +0.000 A 
ATOM     11  C   UNL     1       1.168  13.446  19.024  0.00  0.00    +0.000 A 
ATOM     12  C   UNL     1       1.442  12.118  19.355  0.00  0.00    +0.000 A 
ATOM     13  C   UNL     1       0.520  11.063  19.151  0.00  0.00    +0.000 A 
BRANCH   8  14
ATOM     14  O   UNL     1      -1.648  10.446  18.283  0.00  0.00    +0.000 OA
BRANCH  14  16
ATOM     15  C   UNL     1      -2.521   9.753  16.153  0.00  0.00    +0.000 C 
ATOM     16  C   UNL     1      -2.653  10.750  17.300  0.00  0.00    +0.000 C 
ATOM     17  C   UNL     1      -4.026  10.640  17.960  0.00  0.00    +0.000 C 
ENDBRANCH  14  16
ENDBRANCH   8  14
ENDBRANCH   2  13
ENDBRANCH   1   5
BRANCH   1  18
ATOM     18  C   UNL     1       1.330   4.713  20.315  0.00  0.00    +0.000 A 
ATOM     19  C   UNL     1       0.461   3.664  19.986  0.00  0.00    +0.000 A 
ATOM     20  C   UNL     1       0.945   2.358  19.844  0.00  0.00    +0.000 A 
ATOM     21  C   UNL     1       2.315   2.105  19.922  0.00  0.00    +0.000 A 
ATOM     22  C   UNL     1       3.193   3.143  20.233  0.00  0.00    +0.000 A 
ATOM     23  C   UNL     1       2.664   4.388  20.588  0.00  0.00    +0.000 A 
BRANCH  22  24
ATOM     24  C   UNL     1       4.681   3.016  20.032  0.00  0.00    +0.000 C 
BRANCH  24  25
ATOM     25  N   UNL     1       5.094   3.197  18.672  0.00  0.00    +0.000 N 
ATOM     26  C   UNL     1       5.519   4.437  18.259  0.00  0.00    +0.000 C 
ATOM     27  O   UNL     1       5.569   5.428  18.986  0.00  0.00    +0.000 OA
ATOM     28  H   UNL     1       5.327   2.377  18.125  0.00  0.00    +0.000 HD
BRANCH  26  29
ATOM     29  C   UNL     1       5.950   4.527  16.837  0.00  0.00    +0.000 A 
ATOM     30  C   UNL     1       7.240   4.974  16.508  0.00  0.00    +0.000 A 
ATOM     31  C   UNL     1       7.627   5.063  15.171  0.00  0.00    +0.000 A 
ATOM     32  C   UNL     1       6.733   4.700  14.163  0.00  0.00    +0.000 A 
ATOM     33  C   UNL     1       5.457   4.239  14.487  0.00  0.00    +0.000 A 
ATOM     34  C   UNL     1       5.067   4.148  15.823  0.00  0.00    +0.000 A 
ENDBRANCH  26  29
ENDBRANCH  24  25
ENDBRANCH  22  24
ENDBRANCH   1  18
TORSDOF 8
ENDMDL
MODEL 3
REMARK VINA RESULT:      -7.5      2.860      3.979
REMARK  Name = 
REMARK  10 active torsions:
REMARK  status: ('A' for Active; 'I' for Inactive)
REMARK    1  A    between atoms: C_1  and  C_2
REMARK    2  A    between atoms: C_2  and  C_3
REMARK    3  A    between atoms: C_2  and  O_4
REMARK    4  A    between atoms: O_4  and  C_5
REMARK    5  A    between atoms: C_10  and  N_11
REMARK    6  A    between atoms: N_14  and  C_15
REMARK    7  A    between atoms: C_15  and  C_16
REMARK    8  A    between atoms: C_20  and  C_21
REMARK    9  A    between atoms: C_21  and  N_22
REMARK   10  A    between atoms: C_23  and  C_25
REMARK                            x       y       z     vdW  Elec       q    Type
REMARK                         _______ _______ _______ _____ _____    ______ ____
ROOT
ATOM      1  C   UNL     1       2.018   7.406  18.189  0.00  0.00    +0.000 C 
ENDROOT
BRANCH   1   5
ATOM      2  N   UNL     1      -0.390  10.125  18.894  0.00  0.00    +0.000 N 
ATOM      3  C   UNL     1       0.493  10.174  17.717  0.00  0.00    +0.000 C 
ATOM      4  C   UNL     1       1.972   9.858  18.113  0.00  0.00    +0.000 C 
ATOM      5  N   UNL     1       2.196   8.660  18.967  0.00  0.00    +0.000 NA
ATOM      6  C   UNL     1       1.279   8.823  20.121  0.00  0.00    +0.000 C 
ATOM      7  C   UNL     1      -0.210   8.919  19.722  0.00  0.00    +0.000 C 
BRANCH   2  13
ATOM      8  C   UNL     1      -1.917  11.743  20.051  0.00  0.00    +0.000 A 
ATOM      9  C   UNL     1      -3.135  12.454  20.012  0.00  0.00    +0.000 A 
ATOM     10  C   UNL     1      -4.073  12.227  19.010  0.00  0.00    +0.000 A 
ATOM     11  C   UNL     1      -3.791  11.317  18.010  0.00  0.00    +0.000 A 
ATOM     12  C   UNL     1      -2.560  10.657  18.007  0.00  0.00    +0.000 A 
ATOM     13  C   UNL     1      -1.571  10.858  19.000  0.00  0.00    +0.000 A 
BRANCH   8  14
ATOM     14  O   UNL     1      -1.016  11.976  21.067  0.00  0.00    +0.000 OA
BRANCH  14  16
ATOM     15  C   UNL     1      -0.844  10.630  23.052  0.00  0.00    +0.000 C 
ATOM     16  C   UNL     1      -1.505  11.848  22.414  0.00  0.00    +0.000 C 
ATOM     17  C   UNL     1      -1.153  13.120  23.181  0.00  0.00    +0.000 C 
ENDBRANCH  14  16
ENDBRANCH   8  14
ENDBRANCH   2  13
ENDBRANCH   1   5
BRANCH   1  18
ATOM     18  C   UNL     1       2.735   6.187  18.762  0.00  0.00    +0.000 A 
ATOM     19  C   UNL     1       2.027   5.111  19.313  0.00  0.00    +0.000 A 
ATOM     20  C   UNL     1       2.694   3.939  19.693  0.00  0.00    +0.000 A 
ATOM     21  C   UNL     1       4.055   3.790  19.425  0.00  0.00    +0.000 A 
ATOM     22  C   UNL     1       4.770   4.847  18.862  0.00  0.00    +0.000 A 
ATOM     23  C   UNL     1       4.129   6.080  18.698  0.00  0.00    +0.000 A 
BRANCH  22  24
ATOM     24  C   UNL     1       6.142   4.656  18.271  0.00  0.00    +0.000 C 
BRANCH  24  25
ATOM     25  N   UNL     1       6.126   4.349  16.871  0.00  0.00    +0.000 N 
ATOM     26  C   UNL     1       6.870   5.116  16.008  0.00  0.00    +0.000 C 
ATOM     27  O   UNL     1       7.563   6.072  16.353  0.00  0.00    +0.000 OA
ATOM     28  H   UNL     1       5.803   3.434  16.582  0.00  0.00    +0.000 HD
BRANCH  26  29
ATOM     29  C   UNL     1       6.811   4.711  14.577  0.00  0.00    +0.000 A 
ATOM     30  C   UNL     1       5.883   3.750  14.142  0.00  0.00    +0.000 A 
ATOM     31  C   UNL     1       5.846   3.374  12.800  0.00  0.00    +0.000 A 
ATOM     32  C   UNL     1       6.728   3.957  11.890  0.00  0.00    +0.000 A 
ATOM     33  C   UNL     1       7.639   4.924  12.314  0.00  0.00    +0.000 A 
ATOM     34  C   UNL     1       7.677   5.304  13.655  0.00  0.00    +0.000 A 
ENDBRANCH  26  29
ENDBRANCH  24  25
ENDBRANCH  22  24
ENDBRANCH   1  18
TORSDOF 8
ENDMDL
MODEL 4
REMARK VINA RESULT:      -7.4      5.458      8.525
REMARK  Name = 
REMARK  10 active torsions:
REMARK  status: ('A' for Active; 'I' for Inactive)
REMARK    1  A    between atoms: C_1  and  C_2
REMARK    2  A    between atoms: C_2  and  C_3
REMARK    3  A    between atoms: C_2  and  O_4
REMARK    4  A    between atoms: O_4  and  C_5
REMARK    5  A    between atoms: C_10  and  N_11
REMARK    6  A    between atoms: N_14  and  C_15
REMARK    7  A    between atoms: C_15  and  C_16
REMARK    8  A    between atoms: C_20  and  C_21
REMARK    9  A    between atoms: C_21  and  N_22
REMARK   10  A    between atoms: C_23  and  C_25
REMARK                            x       y       z     vdW  Elec       q    Type
REMARK                         _______ _______ _______ _____ _____    ______ ____
ROOT
ATOM      1  C   UNL     1       8.141   9.946  18.065  0.00  0.00    +0.000 C 
ENDROOT
BRANCH   1   5
ATOM      2  N   UNL     1       9.503  12.725  20.091  0.00  0.00    +0.000 N 
ATOM      3  C   UNL     1       9.240  12.888  18.651  0.00  0.00    +0.000 C 
ATOM      4  C   UNL     1       9.843  11.699  17.835  0.00  0.00    +0.000 C 
ATOM      5  N   UNL     1       9.552  10.326  18.335  0.00  0.00    +0.000 NA
ATOM      6  C   UNL     1       9.940  10.340  19.765  0.00  0.00    +0.000 C 
ATOM      7  C   UNL     1       9.174  11.384  20.607  0.00  0.00    +0.000 C 
BRANCH   2  13
ATOM      8  C   UNL     1       8.698  14.106  22.024  0.00  0.00    +0.000 A 
ATOM      9  C   UNL     1       8.944  15.201  22.878  0.00  0.00    +0.000 A 
ATOM     10  C   UNL     1      10.012  16.066  22.656  0.00  0.00    +0.000 A 
ATOM     11  C   UNL     1      10.872  15.825  21.602  0.00  0.00    +0.000 A 
ATOM     12  C   UNL     1      10.671  14.706  20.791  0.00  0.00    +0.000 A 
ATOM     13  C   UNL     1       9.604  13.795  20.979  0.00  0.00    +0.000 A 
BRANCH   8  14
ATOM     14  O   UNL     1       7.622  13.278  22.258  0.00  0.00    +0.000 OA
BRANCH  14  16
ATOM     15  C   UNL     1       5.896  12.448  23.712  0.00  0.00    +0.000 C 
ATOM     16  C   UNL     1       7.331  12.959  23.630  0.00  0.00    +0.000 C 
ATOM     17  C   UNL     1       8.316  11.891  24.100  0.00  0.00    +0.000 C 
ENDBRANCH  14  16
ENDBRANCH   8  14
ENDBRANCH   2  13
ENDBRANCH   1   5
BRANCH   1  18
ATOM     18  C   UNL     1       7.890   8.444  17.962  0.00  0.00    +0.000 A 
ATOM     19  C   UNL     1       8.435   7.544  18.887  0.00  0.00    +0.000 A 
ATOM     20  C   UNL     1       8.070   6.192  18.865  0.00  0.00    +0.000 A 
ATOM     21  C   UNL     1       7.076   5.749  17.992  0.00  0.00    +0.000 A 
ATOM     22  C   UNL     1       6.512   6.637  17.077  0.00  0.00    +0.000 A 
ATOM     23  C   UNL     1       7.051   7.923  16.969  0.00  0.00    +0.000 A 
BRANCH  22  24
ATOM     24  C   UNL     1       5.243   6.316  16.332  0.00  0.00    +0.000 C 
BRANCH  24  25
ATOM     25  N   UNL     1       4.347   5.468  17.062  0.00  0.00    +0.000 N 
ATOM     26  C   UNL     1       3.408   6.038  17.887  0.00  0.00    +0.000 C 
ATOM     27  O   UNL     1       3.276   7.249  18.052  0.00  0.00    +0.000 OA
ATOM     28  H   UNL     1       4.236   4.509  16.758  0.00  0.00    +0.000 HD
BRANCH  26  29
ATOM     29  C   UNL     1       2.506   5.083  18.588  0.00  0.00    +0.000 A 
ATOM     30  C   UNL     1       2.108   5.317  19.915  0.00  0.00    +0.000 A 
ATOM     31  C   UNL     1       1.271   4.409  20.562  0.00  0.00    +0.000 A 
ATOM     32  C   UNL     1       0.826   3.271  19.888  0.00  0.00    +0.000 A 
ATOM     33  C   UNL     1       1.206   3.044  18.565  0.00  0.00    +0.000 A 
ATOM     34  C   UNL     1       2.041   3.951  17.914  0.00  0.00    +0.000 A 
ENDBRANCH  26  29
ENDBRANCH  24  25
ENDBRANCH  22  24
ENDBRANCH   1  18
TORSDOF 8
ENDMDL
MODEL 5
REMARK VINA RESULT:      -7.3      3.421      4.447
REMARK  Name = 
REMARK  10 active torsions:
REMARK  status: ('A' for Active; 'I' for Inactive)
REMARK    1  A    between atoms: C_1  and  C_2
REMARK    2  A    between atoms: C_2  and  C_3
REMARK    3  A    between atoms: C_2  and  O_4
REMARK    4  A    between atoms: O_4  and  C_5
REMARK    5  A    between atoms: C_10  and  N_11
REMARK    6  A    between atoms: N_14  and  C_15
REMARK    7  A    between atoms: C_15  and  C_16
REMARK    8  A    between atoms: C_20  and  C_21
REMARK    9  A    between atoms: C_21  and  N_22
REMARK   10  A    between atoms: C_23  and  C_25
REMARK                            x       y       z     vdW  Elec       q    Type
REMARK                         _______ _______ _______ _____ _____    ______ ____
ROOT
ATOM      1  C   UNL     1       1.677   8.893  17.875  0.00  0.00    +0.000 C 
ENDROOT
BRANCH   1   5
ATOM      2  N   UNL     1      -0.613  11.121  19.740  0.00  0.00    +0.000 N 
ATOM      3  C   UNL     1       0.166  11.615  18.592  0.00  0.00    +0.000 C 
ATOM      4  C   UNL     1       1.668  11.199  18.714  0.00  0.00    +0.000 C 
ATOM      5  N   UNL     1       1.944   9.773  19.043  0.00  0.00    +0.000 NA
ATOM      6  C   UNL     1       1.133   9.485  20.250  0.00  0.00    +0.000 C 
ATOM      7  C   UNL     1      -0.383   9.697  20.045  0.00  0.00    +0.000 C 
BRANCH   2  13
ATOM      8  C   UNL     1      -2.893  12.120  19.436  0.00  0.00    +0.000 A 
ATOM      9  C   UNL     1      -4.016  12.711  20.052  0.00  0.00    +0.000 A 
ATOM     10  C   UNL     1      -4.010  13.042  21.405  0.00  0.00    +0.000 A 
ATOM     11  C   UNL     1      -2.897  12.749  22.169  0.00  0.00    +0.000 A 
ATOM     12  C   UNL     1      -1.807  12.105  21.580  0.00  0.00    +0.000 A 
ATOM     13  C   UNL     1      -1.767  11.744  20.212  0.00  0.00    +0.000 A 
BRANCH   8  14
ATOM     14  O   UNL     1      -2.922  11.823  18.092  0.00  0.00    +0.000 OA
BRANCH  14  16
ATOM     15  C   UNL     1      -4.289  11.258  16.196  0.00  0.00    +0.000 C 
ATOM     16  C   UNL     1      -3.951  10.922  17.645  0.00  0.00    +0.000 C 
ATOM     17  C   UNL     1      -3.429   9.492  17.764  0.00  0.00    +0.000 C 
ENDBRANCH  14  16
ENDBRANCH   8  14
ENDBRANCH   2  13
ENDBRANCH   1   5
BRANCH   1  18
ATOM     18  C   UNL     1       2.402   7.550  17.904  0.00  0.00    +0.000 A 
ATOM     19  C   UNL     1       1.742   6.369  18.268  0.00  0.00    +0.000 A 
ATOM     20  C   UNL     1       2.381   5.129  18.141  0.00  0.00    +0.000 A 
ATOM     21  C   UNL     1       3.642   5.048  17.549  0.00  0.00    +0.000 A 
ATOM     22  C   UNL     1       4.304   6.215  17.168  0.00  0.00    +0.000 A 
ATOM     23  C   UNL     1       3.740   7.449  17.507  0.00  0.00    +0.000 A 
BRANCH  22  24
ATOM     24  C   UNL     1       5.505   6.189  16.259  0.00  0.00    +0.000 C 
BRANCH  24  25
ATOM     25  N   UNL     1       5.352   5.320  15.130  0.00  0.00    +0.000 N 
ATOM     26  C   UNL     1       6.460   4.979  14.392  0.00  0.00    +0.000 C 
ATOM     27  O   UNL     1       7.599   5.374  14.631  0.00  0.00    +0.000 OA
ATOM     28  H   UNL     1       4.509   4.765  15.059  0.00  0.00    +0.000 HD
BRANCH  26  29
ATOM     29  C   UNL     1       6.211   4.055  13.251  0.00  0.00    +0.000 A 
ATOM     30  C   UNL     1       4.899   3.760  12.843  0.00  0.00    +0.000 A 
ATOM     31  C   UNL     1       4.681   2.886  11.779  0.00  0.00    +0.000 A 
ATOM     32  C   UNL     1       5.767   2.310  11.118  0.00  0.00    +0.000 A 
ATOM     33  C   UNL     1       7.070   2.614  11.509  0.00  0.00    +0.000 A 
ATOM     34  C   UNL     1       7.292   3.490  12.572  0.00  0.00    +0.000 A 
ENDBRANCH  26  29
ENDBRANCH  24  25
ENDBRANCH  22  24
ENDBRANCH   1  18
TORSDOF 8
ENDMDL
MODEL 6
REMARK VINA RESULT:      -7.2      2.340      9.727
REMARK  Name = 
REMARK  10 active torsions:
REMARK  status: ('A' for Active; 'I' for Inactive)
REMARK    1  A    between atoms: C_1  and  C_2
REMARK    2  A    between atoms: C_2  and  C_3
REMARK    3  A    between atoms: C_2  and  O_4
REMARK    4  A    between atoms: O_4  and  C_5
REMARK    5  A    between atoms: C_10  and  N_11
REMARK    6  A    between atoms: N_14  and  C_15
REMARK    7  A    between atoms: C_15  and  C_16
REMARK    8  A    between atoms: C_20  and  C_21
REMARK    9  A    between atoms: C_21  and  N_22
REMARK   10  A    between atoms: C_23  and  C_25
REMARK                            x       y       z     vdW  Elec       q    Type
REMARK                         _______ _______ _______ _____ _____    ______ ____
ROOT
ATOM      1  C   UNL     1       2.066   8.015  20.424  0.00  0.00    +0.000 C 
ENDROOT
BRANCH   1   5
ATOM      2  N   UNL     1       3.858   6.084  17.827  0.00  0.00    +0.000 N 
ATOM      3  C   UNL     1       3.196   7.359  17.508  0.00  0.00    +0.000 C 
ATOM      4  C   UNL     1       1.738   7.389  18.074  0.00  0.00    +0.000 C 
ATOM      5  N   UNL     1       1.561   6.972  19.492  0.00  0.00    +0.000 NA
ATOM      6  C   UNL     1       2.228   5.653  19.599  0.00  0.00    +0.000 C 
ATOM      7  C   UNL     1       3.729   5.684  19.240  0.00  0.00    +0.000 C 
BRANCH   2  13
ATOM      8  C   UNL     1       6.120   6.131  16.744  0.00  0.00    +0.000 A 
ATOM      9  C   UNL     1       7.076   5.437  15.973  0.00  0.00    +0.000 A 
ATOM     10  C   UNL     1       6.786   4.201  15.401  0.00  0.00    +0.000 A 
ATOM     11  C   UNL     1       5.552   3.623  15.626  0.00  0.00    +0.000 A 
ATOM     12  C   UNL     1       4.624   4.275  16.441  0.00  0.00    +0.000 A 
ATOM     13  C   UNL     1       4.874   5.529  17.049  0.00  0.00    +0.000 A 
BRANCH   8  14
ATOM     14  O   UNL     1       6.429   7.361  17.280  0.00  0.00    +0.000 OA
BRANCH  14  16
ATOM     15  C   UNL     1       7.984   9.075  17.933  0.00  0.00    +0.000 C 
ATOM     16  C   UNL     1       7.804   7.589  17.639  0.00  0.00    +0.000 C 
ATOM     17  C   UNL     1       8.130   6.749  18.872  0.00  0.00    +0.000 C 
ENDBRANCH  14  16
ENDBRANCH   8  14
ENDBRANCH   2  13
ENDBRANCH   1   5
BRANCH   1  18
ATOM     18  C   UNL     1       0.991   8.926  21.011  0.00  0.00    +0.000 A 
ATOM     19  C   UNL     1       0.772   9.006  22.392  0.00  0.00    +0.000 A 
ATOM     20  C   UNL     1      -0.110   9.958  22.919  0.00  0.00    +0.000 A 
ATOM     21  C   UNL     1      -0.697  10.908  22.082  0.00  0.00    +0.000 A 
ATOM     22  C   UNL     1      -0.475  10.850  20.707  0.00  0.00    +0.000 A 
ATOM     23  C   UNL     1       0.229   9.760  20.185  0.00  0.00    +0.000 A 
BRANCH  22  24
ATOM     24  C   UNL     1      -0.815  12.000  19.795  0.00  0.00    +0.000 C 
BRANCH  24  25
ATOM     25  N   UNL     1      -2.220  12.264  19.703  0.00  0.00    +0.000 N 
ATOM     26  C   UNL     1      -2.964  11.615  18.747  0.00  0.00    +0.000 C 
ATOM     27  O   UNL     1      -2.502  10.807  17.943  0.00  0.00    +0.000 OA
ATOM     28  H   UNL     1      -2.683  12.696  20.494  0.00  0.00    +0.000 HD
BRANCH  26  29
ATOM     29  C   UNL     1      -4.418  11.934  18.739  0.00  0.00    +0.000 A 
ATOM     30  C   UNL     1      -5.161  11.856  17.550  0.00  0.00    +0.000 A 
ATOM     31  C   UNL     1      -6.521  12.167  17.556  0.00  0.00    +0.000 A 
ATOM     32  C   UNL     1      -7.141  12.549  18.746  0.00  0.00    +0.000 A 
ATOM     33  C   UNL     1      -6.410  12.610  19.932  0.00  0.00    +0.000 A 
ATOM     34  C   UNL     1      -5.051  12.298  19.930  0.00  0.00    +0.000 A 
ENDBRANCH  26  29
ENDBRANCH  24  25
ENDBRANCH  22  24
ENDBRANCH   1  18
TORSDOF 8
ENDMDL
MODEL 7
REMARK VINA RESULT:      -7.2      3.542     10.013
REMARK  Name = 
REMARK  10 active torsions:
REMARK  status: ('A' for Active; 'I' for Inactive)
REMARK    1  A    between atoms: C_1  and  C_2
REMARK    2  A    between atoms: C_2  and  C_3
REMARK    3  A    between atoms: C_2  and  O_4
REMARK    4  A    between atoms: O_4  and  C_5
REMARK    5  A    between atoms: C_10  and  N_11
REMARK    6  A    between atoms: N_14  and  C_15
REMARK    7  A    between atoms: C_15  and  C_16
REMARK    8  A    between atoms: C_20  and  C_21
REMARK    9  A    between atoms: C_21  and  N_22
REMARK   10  A    between atoms: C_23  and  C_25
REMARK                            x       y       z     vdW  Elec       q    Type
REMARK                         _______ _______ _______ _____ _____    ______ ____
ROOT
ATOM      1  C   UNL     1      -0.700   9.620  19.496  0.00  0.00    +0.000 C 
ENDROOT
BRANCH   1   5
ATOM      2  N   UNL     1       2.301   7.660  18.580  0.00  0.00    +0.000 N 
ATOM      3  C   UNL     1       1.859   7.769  19.980  0.00  0.00    +0.000 C 
ATOM      4  C   UNL     1       1.568   9.257  20.361  0.00  0.00    +0.000 C 
ATOM      5  N   UNL     1       0.724  10.038  19.414  0.00  0.00    +0.000 NA
ATOM      6  C   UNL     1       1.360   9.864  18.087  0.00  0.00    +0.000 C 
ATOM      7  C   UNL     1       1.446   8.391  17.628  0.00  0.00    +0.000 C 
BRANCH   2  13
ATOM      8  C   UNL     1       2.933   5.249  18.300  0.00  0.00    +0.000 A 
ATOM      9  C   UNL     1       3.833   4.321  17.736  0.00  0.00    +0.000 A 
ATOM     10  C   UNL     1       4.988   4.739  17.080  0.00  0.00    +0.000 A 
ATOM     11  C   UNL     1       5.238   6.091  16.944  0.00  0.00    +0.000 A 
ATOM     12  C   UNL     1       4.319   7.015  17.444  0.00  0.00    +0.000 A 
ATOM     13  C   UNL     1       3.129   6.640  18.112  0.00  0.00    +0.000 A 
BRANCH   8  14
ATOM     14  O   UNL     1       1.809   4.804  18.959  0.00  0.00    +0.000 OA
BRANCH  14  16
ATOM     15  C   UNL     1       1.584   3.583  21.018  0.00  0.00    +0.000 C 
ATOM     16  C   UNL     1       1.864   3.481  19.522  0.00  0.00    +0.000 C 
ATOM     17  C   UNL     1       0.813   2.616  18.832  0.00  0.00    +0.000 C 
ENDBRANCH  14  16
ENDBRANCH   8  14
ENDBRANCH   2  13
ENDBRANCH   1   5
BRANCH   1  18
ATOM     18  C   UNL     1      -1.627  10.301  18.493  0.00  0.00    +0.000 A 
ATOM     19  C   UNL     1      -1.679   9.899  17.152  0.00  0.00    +0.000 A 
ATOM     20  C   UNL     1      -2.643  10.431  16.286  0.00  0.00    +0.000 A 
ATOM     21  C   UNL     1      -3.630  11.287  16.777  0.00  0.00    +0.000 A 
ATOM     22  C   UNL     1      -3.600  11.683  18.114  0.00  0.00    +0.000 A 
ATOM     23  C   UNL     1      -2.503  11.314  18.900  0.00  0.00    +0.000 A 
BRANCH  22  24
ATOM     24  C   UNL     1      -4.782  12.340  18.778  0.00  0.00    +0.000 C 
BRANCH  24  25
ATOM     25  N   UNL     1      -4.439  13.081  19.956  0.00  0.00    +0.000 N 
ATOM     26  C   UNL     1      -5.057  12.773  21.144  0.00  0.00    +0.000 C 
ATOM     27  O   UNL     1      -5.903  11.891  21.276  0.00  0.00    +0.000 OA
ATOM     28  H   UNL     1      -3.577  13.612  19.959  0.00  0.00    +0.000 HD
BRANCH  26  29
ATOM     29  C   UNL     1      -4.624  13.579  22.319  0.00  0.00    +0.000 A 
ATOM     30  C   UNL     1      -3.898  12.985  23.365  0.00  0.00    +0.000 A 
ATOM     31  C   UNL     1      -3.507  13.749  24.464  0.00  0.00    +0.000 A 
ATOM     32  C   UNL     1      -3.833  15.105  24.519  0.00  0.00    +0.000 A 
ATOM     33  C   UNL     1      -4.539  15.702  23.475  0.00  0.00    +0.000 A 
ATOM     34  C   UNL     1      -4.930  14.940  22.373  0.00  0.00    +0.000 A 
ENDBRANCH  26  29
ENDBRANCH  24  25
ENDBRANCH  22  24
ENDBRANCH   1  18
TORSDOF 8
ENDMDL
MODEL 8
REMARK VINA RESULT:      -7.2      5.420      8.486
REMARK  Name = 
REMARK  10 active torsions:
REMARK  status: ('A' for Active; 'I' for Inactive)
REMARK    1  A    between atoms: C_1  and  C_2
REMARK    2  A    between atoms: C_2  and  C_3
REMARK    3  A    between atoms: C_2  and  O_4
REMARK    4  A    between atoms: O_4  and  C_5
REMARK    5  A    between atoms: C_10  and  N_11
REMARK    6  A    between atoms: N_14  and  C_15
REMARK    7  A    between atoms: C_15  and  C_16
REMARK    8  A    between atoms: C_20  and  C_21
REMARK    9  A    between atoms: C_21  and  N_22
REMARK   10  A    between atoms: C_23  and  C_25
REMARK                            x       y       z     vdW  Elec       q    Type
REMARK                         _______ _______ _______ _____ _____    ______ ____
ROOT
ATOM      1  C   UNL     1       8.244   9.895  18.177  0.00  0.00    +0.000 C 
ENDROOT
BRANCH   1   5
ATOM      2  N   UNL     1       9.679  13.003  19.579  0.00  0.00    +0.000 N 
ATOM      3  C   UNL     1       9.757  12.709  18.139  0.00  0.00    +0.000 C 
ATOM      4  C   UNL     1      10.268  11.252  17.892  0.00  0.00    +0.000 C 
ATOM      5  N   UNL     1       9.615  10.170  18.680  0.00  0.00    +0.000 NA
ATOM      6  C   UNL     1       9.694  10.611  20.093  0.00  0.00    +0.000 C 
ATOM      7  C   UNL     1       8.992  11.960  20.363  0.00  0.00    +0.000 C 
BRANCH   2  13
ATOM      8  C   UNL     1       8.774  15.257  20.207  0.00  0.00    +0.000 A 
ATOM      9  C   UNL     1       9.031  16.509  20.805  0.00  0.00    +0.000 A 
ATOM     10  C   UNL     1      10.313  16.868  21.212  0.00  0.00    +0.000 A 
ATOM     11  C   UNL     1      11.348  15.966  21.064  0.00  0.00    +0.000 A 
ATOM     12  C   UNL     1      11.089  14.701  20.532  0.00  0.00    +0.000 A 
ATOM     13  C   UNL     1       9.803  14.287  20.110  0.00  0.00    +0.000 A 
BRANCH   8  14
ATOM     14  O   UNL     1       7.499  14.938  19.798  0.00  0.00    +0.000 OA
BRANCH  14  16
ATOM     15  C   UNL     1       6.013  16.499  18.732  0.00  0.00    +0.000 C 
ATOM     16  C   UNL     1       7.083  15.435  18.513  0.00  0.00    +0.000 C 
ATOM     17  C   UNL     1       8.299  16.026  17.805  0.00  0.00    +0.000 C 
ENDBRANCH  14  16
ENDBRANCH   8  14
ENDBRANCH   2  13
ENDBRANCH   1   5
BRANCH   1  18
ATOM     18  C   UNL     1       7.905   8.416  18.014  0.00  0.00    +0.000 A 
ATOM     19  C   UNL     1       8.437   7.442  18.870  0.00  0.00    +0.000 A 
ATOM     20  C   UNL     1       7.996   6.115  18.800  0.00  0.00    +0.000 A 
ATOM     21  C   UNL     1       6.943   5.771  17.951  0.00  0.00    +0.000 A 
ATOM     22  C   UNL     1       6.392   6.733  17.106  0.00  0.00    +0.000 A 
ATOM     23  C   UNL     1       6.998   7.992  17.036  0.00  0.00    +0.000 A 
BRANCH  22  24
ATOM     24  C   UNL     1       5.077   6.519  16.403  0.00  0.00    +0.000 C 
BRANCH  24  25
ATOM     25  N   UNL     1       4.256   5.517  17.016  0.00  0.00    +0.000 N 
ATOM     26  C   UNL     1       3.353   5.889  17.983  0.00  0.00    +0.000 C 
ATOM     27  O   UNL     1       3.196   7.044  18.374  0.00  0.00    +0.000 OA
ATOM     28  H   UNL     1       4.154   4.624  16.549  0.00  0.00    +0.000 HD
BRANCH  26  29
ATOM     29  C   UNL     1       2.528   4.787  18.548  0.00  0.00    +0.000 A 
ATOM     30  C   UNL     1       2.462   3.540  17.905  0.00  0.00    +0.000 A 
ATOM     31  C   UNL     1       1.677   2.519  18.440  0.00  0.00    +0.000 A 
ATOM     32  C   UNL     1       0.961   2.738  19.618  0.00  0.00    +0.000 A 
ATOM     33  C   UNL     1       1.037   3.969  20.269  0.00  0.00    +0.000 A 
ATOM     34  C   UNL     1       1.823   4.991  19.736  0.00  0.00    +0.000 A 
ENDBRANCH  26  29
ENDBRANCH  24  25
ENDBRANCH  22  24
ENDBRANCH   1  18
TORSDOF 8
ENDMDL
MODEL 9
REMARK VINA RESULT:      -7.2      1.756      4.854
REMARK  Name = 
REMARK  10 active torsions:
REMARK  status: ('A' for Active; 'I' for Inactive)
REMARK    1  A    between atoms: C_1  and  C_2
REMARK    2  A    between atoms: C_2  and  C_3
REMARK    3  A    between atoms: C_2  and  O_4
REMARK    4  A    between atoms: O_4  and  C_5
REMARK    5  A    between atoms: C_10  and  N_11
REMARK    6  A    between atoms: N_14  and  C_15
REMARK    7  A    between atoms: C_15  and  C_16
REMARK    8  A    between atoms: C_20  and  C_21
REMARK    9  A    between atoms: C_21  and  N_22
REMARK   10  A    between atoms: C_23  and  C_25
REMARK                            x       y       z     vdW  Elec       q    Type
REMARK                         _______ _______ _______ _____ _____    ______ ____
ROOT
ATOM      1  C   UNL     1       4.029   8.137  17.589  0.00  0.00    +0.000 C 
ENDROOT
BRANCH   1   5
ATOM      2  N   UNL     1       1.258   8.984  19.889  0.00  0.00    +0.000 N 
ATOM      3  C   UNL     1       2.226   7.924  20.218  0.00  0.00    +0.000 C 
ATOM      4  C   UNL     1       2.420   6.949  19.011  0.00  0.00    +0.000 C 
ATOM      5  N   UNL     1       2.658   7.571  17.679  0.00  0.00    +0.000 NA
ATOM      6  C   UNL     1       1.558   8.548  17.500  0.00  0.00    +0.000 C 
ATOM      7  C   UNL     1       1.512   9.639  18.593  0.00  0.00    +0.000 C 
BRANCH   2  13
ATOM      8  C   UNL     1      -0.071  10.937  20.731  0.00  0.00    +0.000 A 
ATOM      9  C   UNL     1      -0.881  11.460  21.761  0.00  0.00    +0.000 A 
ATOM     10  C   UNL     1      -1.075  10.766  22.952  0.00  0.00    +0.000 A 
ATOM     11  C   UNL     1      -0.496   9.522  23.114  0.00  0.00    +0.000 A 
ATOM     12  C   UNL     1       0.255   8.971  22.074  0.00  0.00    +0.000 A 
ATOM     13  C   UNL     1       0.476   9.634  20.843  0.00  0.00    +0.000 A 
BRANCH   8  14
ATOM     14  O   UNL     1       0.118  11.656  19.572  0.00  0.00    +0.000 OA
BRANCH  14  16
ATOM     15  C   UNL     1      -0.351  13.851  18.710  0.00  0.00    +0.000 C 
ATOM     16  C   UNL     1      -0.953  12.524  19.161  0.00  0.00    +0.000 C 
ATOM     17  C   UNL     1      -1.708  11.854  18.015  0.00  0.00    +0.000 C 
ENDBRANCH  14  16
ENDBRANCH   8  14
ENDBRANCH   2  13
ENDBRANCH   1   5
BRANCH   1  18
ATOM     18  C   UNL     1       5.105   7.146  17.153  0.00  0.00    +0.000 A 
ATOM     19  C   UNL     1       6.469   7.440  17.282  0.00  0.00    +0.000 A 
ATOM     20  C   UNL     1       7.436   6.462  17.019  0.00  0.00    +0.000 A 
ATOM     21  C   UNL     1       7.048   5.153  16.730  0.00  0.00    +0.000 A 
ATOM     22  C   UNL     1       5.694   4.842  16.614  0.00  0.00    +0.000 A 
ATOM     23  C   UNL     1       4.759   5.882  16.662  0.00  0.00    +0.000 A 
BRANCH  22  24
ATOM     24  C   UNL     1       5.199   3.419  16.613  0.00  0.00    +0.000 C 
BRANCH  24  25
ATOM     25  N   UNL     1       4.109   3.190  17.515  0.00  0.00    +0.000 N 
ATOM     26  C   UNL     1       4.319   3.316  18.867  0.00  0.00    +0.000 C 
ATOM     27  O   UNL     1       5.398   3.615  19.374  0.00  0.00    +0.000 OA
ATOM     28  H   UNL     1       3.166   3.213  17.147  0.00  0.00    +0.000 HD
BRANCH  26  29
ATOM     29  C   UNL     1       3.126   3.081  19.726  0.00  0.00    +0.000 A 
ATOM     30  C   UNL     1       3.275   2.690  21.067  0.00  0.00    +0.000 A 
ATOM     31  C   UNL     1       2.148   2.465  21.857  0.00  0.00    +0.000 A 
ATOM     32  C   UNL     1       0.874   2.634  21.314  0.00  0.00    +0.000 A 
ATOM     33  C   UNL     1       0.722   3.038  19.988  0.00  0.00    +0.000 A 
ATOM     34  C   UNL     1       1.847   3.267  19.196  0.00  0.00    +0.000 A 
ENDBRANCH  26  29
ENDBRANCH  24  25
ENDBRANCH  22  24
ENDBRANCH   1  18
TORSDOF 8
ENDMDL
