MODEL 1
REMARK VINA RESULT:      -7.8      0.000      0.000
REMARK  Name = 
REMARK  6 active torsions:
REMARK  status: ('A' for Active; 'I' for Inactive)
REMARK    1  A    between atoms: C_1  and  N_2
REMARK    2  A    between atoms: N_2  and  C_19
REMARK    3  A    between atoms: C_3  and  C_5
REMARK    4  A    between atoms: C_5  and  C_6
REMARK    5  A    between atoms: C_9  and  N_10
REMARK    6  A    between atoms: N_13  and  C_14
REMARK                            x       y       z     vdW  Elec       q    Type
REMARK                         _______ _______ _______ _____ _____    ______ ____
ROOT
ATOM      1  C   UNL     1       6.436   5.920  17.147  0.00  0.00    +0.000 A 
ATOM      2  C   UNL     1       6.570   7.236  16.706  0.00  0.00    +0.000 A 
ATOM      3  C   UNL     1       7.430   8.116  17.357  0.00  0.00    +0.000 A 
ATOM      4  C   UNL     1       8.155   7.730  18.490  0.00  0.00    +0.000 A 
ATOM      5  C   UNL     1       8.044   6.406  18.923  0.00  0.00    +0.000 A 
ATOM      6  C   UNL     1       7.194   5.509  18.253  0.00  0.00    +0.000 A 
ENDROOT
BRANCH   4   7
ATOM      7  N   UNL     1       8.982   8.625  19.212  0.00  0.00    +0.000 N 
ATOM      8  C   UNL     1       9.119   9.971  18.940  0.00  0.00    +0.000 C 
ATOM      9  O   UNL     1       8.553  10.594  18.039  0.00  0.00    +0.000 OA
ATOM     10  N   UNL     1      10.015  10.618  19.767  0.00  0.00    +0.000 N 
ATOM     11  H   UNL     1       9.521   8.247  19.973  0.00  0.00    +0.000 HD
ATOM     12  H   UNL     1      10.121  10.270  20.710  0.00  0.00    +0.000 HD
BRANCH  10  13
ATOM     13  C   UNL     1      10.257  12.015  19.533  0.00  0.00    +0.000 C 
ATOM     14  C   UNL     1      10.470  13.009  20.633  0.00  0.00    +0.000 C 
ATOM     15  C   UNL     1      11.638  12.556  19.808  0.00  0.00    +0.000 C 
ENDBRANCH  10  13
ENDBRANCH   4   7
BRANCH   1  16
ATOM     16  C   UNL     1       5.450   4.975  16.491  0.00  0.00    +0.000 C 
BRANCH  16  19
ATOM     17  C   UNL     1       3.303   6.410  17.911  0.00  0.00    +0.000 C 
ATOM     18  N   UNL     1       3.522   4.976  18.126  0.00  0.00    +0.000 N 
ATOM     19  C   UNL     1       4.511   4.231  17.448  0.00  0.00    +0.000 C 
ATOM     20  O   UNL     1       4.597   3.001  17.518  0.00  0.00    +0.000 OA
BRANCH  18  21
ATOM     21  C   UNL     1       2.605   4.318  19.043  0.00  0.00    +0.000 A 
ATOM     22  C   UNL     1       2.759   4.409  20.436  0.00  0.00    +0.000 A 
ATOM     23  C   UNL     1       1.933   3.707  21.320  0.00  0.00    +0.000 A 
ATOM     24  C   UNL     1       0.907   2.911  20.830  0.00  0.00    +0.000 A 
ATOM     25  C   UNL     1       0.691   2.845  19.458  0.00  0.00    +0.000 A 
ATOM     26  C   UNL     1       1.523   3.550  18.576  0.00  0.00    +0.000 A 
ENDBRANCH  18  21
ENDBRANCH  16  19
ENDBRANCH   1  16
TORSDOF 5
ENDMDL
MODEL 2
REMARK VINA RESULT:      -7.5      4.983      8.036
REMARK  Name = 
REMARK  6 active torsions:
REMARK  status: ('A' for Active; 'I' for Inactive)
REMARK    1  A    between atoms: C_1  and  N_2
REMARK    2  A    between atoms: N_2  and  C_19
REMARK    3  A    between atoms: C_3  and  C_5
REMARK    4  A    between atoms: C_5  and  C_6
REMARK    5  A    between atoms: C_9  and  N_10
REMARK    6  A    between atoms: N_13  and  C_14
REMARK                            x       y       z     vdW  Elec       q    Type
REMARK                         _______ _______ _______ _____ _____    ______ ____
ROOT
ATOM      1  C   UNL     1       3.550   6.258  17.915  0.00  0.00    +0.000 A 
ATOM      2  C   UNL     1       4.537   6.925  17.190  0.00  0.00    +0.000 A 
ATOM      3  C   UNL     1       5.317   6.240  16.261  0.00  0.00    +0.000 A 
ATOM      4  C   UNL     1       5.169   4.866  16.051  0.00  0.00    +0.000 A 
ATOM      5  C   UNL     1       4.165   4.195  16.756  0.00  0.00    +0.000 A 
ATOM      6  C   UNL     1       3.361   4.889  17.676  0.00  0.00    +0.000 A 
ENDROOT
BRANCH   4   7
ATOM      7  N   UNL     1       5.997   4.133  15.164  0.00  0.00    +0.000 N 
ATOM      8  C   UNL     1       5.749   3.949  13.819  0.00  0.00    +0.000 C 
ATOM      9  O   UNL     1       4.783   4.385  13.190  0.00  0.00    +0.000 OA
ATOM     10  N   UNL     1       6.689   3.165  13.182  0.00  0.00    +0.000 N 
ATOM     11  H   UNL     1       6.822   3.703  15.548  0.00  0.00    +0.000 HD
ATOM     12  H   UNL     1       7.636   3.188  13.532  0.00  0.00    +0.000 HD
BRANCH  10  13
ATOM     13  C   UNL     1       6.493   2.881  11.787  0.00  0.00    +0.000 C 
ATOM     14  C   UNL     1       7.277   1.847  11.039  0.00  0.00    +0.000 C 
ATOM     15  C   UNL     1       5.850   1.570  11.408  0.00  0.00    +0.000 C 
ENDBRANCH  10  13
ENDBRANCH   4   7
BRANCH   1  16
ATOM     16  C   UNL     1       2.745   6.976  18.978  0.00  0.00    +0.000 C 
BRANCH  16  19
ATOM     17  C   UNL     1       1.216   8.618  20.890  0.00  0.00    +0.000 C 
ATOM     18  N   UNL     1       1.299   8.990  19.473  0.00  0.00    +0.000 N 
ATOM     19  C   UNL     1       2.044   8.261  18.521  0.00  0.00    +0.000 C 
ATOM     20  O   UNL     1       2.235   8.655  17.366  0.00  0.00    +0.000 OA
BRANCH  18  21
ATOM     21  C   UNL     1       0.617  10.216  19.091  0.00  0.00    +0.000 A 
ATOM     22  C   UNL     1      -0.695  10.209  18.591  0.00  0.00    +0.000 A 
ATOM     23  C   UNL     1      -1.323  11.375  18.140  0.00  0.00    +0.000 A 
ATOM     24  C   UNL     1      -0.658  12.592  18.204  0.00  0.00    +0.000 A 
ATOM     25  C   UNL     1       0.620  12.642  18.748  0.00  0.00    +0.000 A 
ATOM     26  C   UNL     1       1.245  11.470  19.197  0.00  0.00    +0.000 A 
ENDBRANCH  18  21
ENDBRANCH  16  19
ENDBRANCH   1  16
TORSDOF 5
ENDMDL
MODEL 3
REMARK VINA RESULT:      -7.4      1.327      1.792
REMARK  Name = 
REMARK  6 active torsions:
REMARK  status: ('A' for Active; 'I' for Inactive)
REMARK    1  A    between atoms: C_1  and  N_2
REMARK    2  A    between atoms: N_2  and  C_19
REMARK    3  A    between atoms: C_3  and  C_5
REMARK    4  A    between atoms: C_5  and  C_6
REMARK    5  A    between atoms: C_9  and  N_10
REMARK    6  A    between atoms: N_13  and  C_14
REMARK                            x       y       z     vdW  Elec       q    Type
REMARK                         _______ _______ _______ _____ _____    ______ ____
ROOT
ATOM      1  C   UNL     1       7.219   6.045  17.966  0.00  0.00    +0.000 A 
ATOM      2  C   UNL     1       8.176   6.421  18.908  0.00  0.00    +0.000 A 
ATOM      3  C   UNL     1       8.623   7.738  18.975  0.00  0.00    +0.000 A 
ATOM      4  C   UNL     1       8.163   8.715  18.086  0.00  0.00    +0.000 A 
ATOM      5  C   UNL     1       7.186   8.350  17.155  0.00  0.00    +0.000 A 
ATOM      6  C   UNL     1       6.716   7.027  17.101  0.00  0.00    +0.000 A 
ENDROOT
BRANCH   4   7
ATOM      7  N   UNL     1       8.654  10.044  18.088  0.00  0.00    +0.000 N 
ATOM      8  C   UNL     1       9.162  10.699  19.191  0.00  0.00    +0.000 C 
ATOM      9  O   UNL     1       9.264  10.238  20.329  0.00  0.00    +0.000 OA
ATOM     10  N   UNL     1       9.540  12.002  18.939  0.00  0.00    +0.000 N 
ATOM     11  H   UNL     1       8.617  10.553  17.220  0.00  0.00    +0.000 HD
ATOM     12  H   UNL     1       9.871  12.225  18.011  0.00  0.00    +0.000 HD
BRANCH  10  13
ATOM     13  C   UNL     1      10.042  12.780  20.038  0.00  0.00    +0.000 C 
ATOM     14  C   UNL     1      11.293  13.600  19.963  0.00  0.00    +0.000 C 
ATOM     15  C   UNL     1       9.958  14.284  19.946  0.00  0.00    +0.000 C 
ENDBRANCH  10  13
ENDBRANCH   4   7
BRANCH   1  16
ATOM     16  C   UNL     1       6.778   4.601  17.836  0.00  0.00    +0.000 C 
BRANCH  16  19
ATOM     17  C   UNL     1       4.237   4.324  16.370  0.00  0.00    +0.000 C 
ATOM     18  N   UNL     1       4.291   4.149  17.825  0.00  0.00    +0.000 N 
ATOM     19  C   UNL     1       5.485   4.236  18.574  0.00  0.00    +0.000 C 
ATOM     20  O   UNL     1       5.554   3.943  19.772  0.00  0.00    +0.000 OA
BRANCH  18  21
ATOM     21  C   UNL     1       3.038   3.805  18.476  0.00  0.00    +0.000 A 
ATOM     22  C   UNL     1       2.415   4.671  19.389  0.00  0.00    +0.000 A 
ATOM     23  C   UNL     1       1.257   4.307  20.084  0.00  0.00    +0.000 A 
ATOM     24  C   UNL     1       0.672   3.068  19.862  0.00  0.00    +0.000 A 
ATOM     25  C   UNL     1       1.231   2.211  18.921  0.00  0.00    +0.000 A 
ATOM     26  C   UNL     1       2.393   2.579  18.228  0.00  0.00    +0.000 A 
ENDBRANCH  18  21
ENDBRANCH  16  19
ENDBRANCH   1  16
TORSDOF 5
ENDMDL
MODEL 4
REMARK VINA RESULT:      -7.4      6.997      9.874
REMARK  Name = 
REMARK  6 active torsions:
REMARK  status: ('A' for Active; 'I' for Inactive)
REMARK    1  A    between atoms: C_1  and  N_2
REMARK    2  A    between atoms: N_2  and  C_19
REMARK    3  A    between atoms: C_3  and  C_5
REMARK    4  A    between atoms: C_5  and  C_6
REMARK    5  A    between atoms: C_9  and  N_10
REMARK    6  A    between atoms: N_13  and  C_14
REMARK                            x       y       z     vdW  Elec       q    Type
REMARK                         _______ _______ _______ _____ _____    ______ ____
ROOT
ATOM      1  C   UNL     1       0.570   9.702  19.329  0.00  0.00    +0.000 A 
ATOM      2  C   UNL     1      -0.006  10.437  20.365  0.00  0.00    +0.000 A 
ATOM      3  C   UNL     1      -1.144  11.207  20.139  0.00  0.00    +0.000 A 
ATOM      4  C   UNL     1      -1.724  11.303  18.870  0.00  0.00    +0.000 A 
ATOM      5  C   UNL     1      -1.167  10.550  17.832  0.00  0.00    +0.000 A 
ATOM      6  C   UNL     1      -0.033   9.753  18.064  0.00  0.00    +0.000 A 
ENDROOT
BRANCH   4   7
ATOM      7  N   UNL     1      -2.839  12.134  18.598  0.00  0.00    +0.000 N 
ATOM      8  C   UNL     1      -4.088  11.685  18.221  0.00  0.00    +0.000 C 
ATOM      9  O   UNL     1      -4.422  10.509  18.061  0.00  0.00    +0.000 OA
ATOM     10  N   UNL     1      -4.994  12.698  17.979  0.00  0.00    +0.000 N 
ATOM     11  H   UNL     1      -2.706  13.129  18.674  0.00  0.00    +0.000 HD
ATOM     12  H   UNL     1      -4.892  13.555  18.504  0.00  0.00    +0.000 HD
BRANCH  10  13
ATOM     13  C   UNL     1      -6.311  12.329  17.539  0.00  0.00    +0.000 C 
ATOM     14  C   UNL     1      -7.564  12.768  18.232  0.00  0.00    +0.000 C 
ATOM     15  C   UNL     1      -7.183  13.396  16.925  0.00  0.00    +0.000 C 
ENDBRANCH  10  13
ENDBRANCH   4   7
BRANCH   1  16
ATOM     16  C   UNL     1       1.849   8.918  19.546  0.00  0.00    +0.000 C 
BRANCH  16  19
ATOM     17  C   UNL     1       2.834   6.572  18.059  0.00  0.00    +0.000 C 
ATOM     18  N   UNL     1       2.131   6.415  19.337  0.00  0.00    +0.000 N 
ATOM     19  C   UNL     1       1.669   7.503  20.108  0.00  0.00    +0.000 C 
ATOM     20  O   UNL     1       1.213   7.378  21.249  0.00  0.00    +0.000 OA
BRANCH  18  21
ATOM     21  C   UNL     1       1.987   5.053  19.826  0.00  0.00    +0.000 A 
ATOM     22  C   UNL     1       1.440   4.034  19.028  0.00  0.00    +0.000 A 
ATOM     23  C   UNL     1       1.218   2.745  19.524  0.00  0.00    +0.000 A 
ATOM     24  C   UNL     1       1.565   2.432  20.831  0.00  0.00    +0.000 A 
ATOM     25  C   UNL     1       2.162   3.402  21.627  0.00  0.00    +0.000 A 
ATOM     26  C   UNL     1       2.381   4.693  21.127  0.00  0.00    +0.000 A 
ENDBRANCH  18  21
ENDBRANCH  16  19
ENDBRANCH   1  16
TORSDOF 5
ENDMDL
MODEL 5
REMARK VINA RESULT:      -7.3      0.395      1.084
REMARK  Name = 
REMARK  6 active torsions:
REMARK  status: ('A' for Active; 'I' for Inactive)
REMARK    1  A    between atoms: C_1  and  N_2
REMARK    2  A    between atoms: N_2  and  C_19
REMARK    3  A    between atoms: C_3  and  C_5
REMARK    4  A    between atoms: C_5  and  C_6
REMARK    5  A    between atoms: C_9  and  N_10
REMARK    6  A    between atoms: N_13  and  C_14
REMARK                            x       y       z     vdW  Elec       q    Type
REMARK                         _______ _______ _______ _____ _____    ______ ____
ROOT
ATOM      1  C   UNL     1       6.417   6.109  17.313  0.00  0.00    +0.000 A 
ATOM      2  C   UNL     1       7.213   5.713  18.388  0.00  0.00    +0.000 A 
ATOM      3  C   UNL     1       8.087   6.613  18.992  0.00  0.00    +0.000 A 
ATOM      4  C   UNL     1       8.227   7.924  18.523  0.00  0.00    +0.000 A 
ATOM      5  C   UNL     1       7.416   8.335  17.462  0.00  0.00    +0.000 A 
ATOM      6  C   UNL     1       6.516   7.435  16.867  0.00  0.00    +0.000 A 
ENDROOT
BRANCH   4   7
ATOM      7  N   UNL     1       9.160   8.838  19.074  0.00  0.00    +0.000 N 
ATOM      8  C   UNL     1       9.209  10.187  18.790  0.00  0.00    +0.000 C 
ATOM      9  O   UNL     1       8.462  10.797  18.022  0.00  0.00    +0.000 OA
ATOM     10  N   UNL     1      10.234  10.854  19.428  0.00  0.00    +0.000 N 
ATOM     11  H   UNL     1       9.847   8.472  19.712  0.00  0.00    +0.000 HD
ATOM     12  H   UNL     1      10.532  10.507  20.329  0.00  0.00    +0.000 HD
BRANCH  10  13
ATOM     13  C   UNL     1      10.393  12.257  19.160  0.00  0.00    +0.000 C 
ATOM     14  C   UNL     1      11.476  13.094  19.769  0.00  0.00    +0.000 C 
ATOM     15  C   UNL     1      11.571  12.696  18.326  0.00  0.00    +0.000 C 
ENDBRANCH  10  13
ENDBRANCH   4   7
BRANCH   1  16
ATOM     16  C   UNL     1       5.516   5.119  16.604  0.00  0.00    +0.000 C 
BRANCH  16  19
ATOM     17  C   UNL     1       3.232   6.456  17.901  0.00  0.00    +0.000 C 
ATOM     18  N   UNL     1       3.501   5.032  18.128  0.00  0.00    +0.000 N 
ATOM     19  C   UNL     1       4.559   4.333  17.506  0.00  0.00    +0.000 C 
ATOM     20  O   UNL     1       4.694   3.107  17.581  0.00  0.00    +0.000 OA
BRANCH  18  21
ATOM     21  C   UNL     1       2.564   4.332  18.992  0.00  0.00    +0.000 A 
ATOM     22  C   UNL     1       2.639   4.423  20.392  0.00  0.00    +0.000 A 
ATOM     23  C   UNL     1       1.796   3.682  21.228  0.00  0.00    +0.000 A 
ATOM     24  C   UNL     1       0.832   2.847  20.681  0.00  0.00    +0.000 A 
ATOM     25  C   UNL     1       0.694   2.780  19.299  0.00  0.00    +0.000 A 
ATOM     26  C   UNL     1       1.542   3.522  18.465  0.00  0.00    +0.000 A 
ENDBRANCH  18  21
ENDBRANCH  16  19
ENDBRANCH   1  16
TORSDOF 5
ENDMDL
MODEL 6
REMARK VINA RESULT:      -7.3      7.295     10.382
REMARK  Name = 
REMARK  6 active torsions:
REMARK  status: ('A' for Active; 'I' for Inactive)
REMARK    1  A    between atoms: C_1  and  N_2
REMARK    2  A    between atoms: N_2  and  C_19
REMARK    3  A    between atoms: C_3  and  C_5
REMARK    4  A    between atoms: C_5  and  C_6
REMARK    5  A    between atoms: C_9  and  N_10
REMARK    6  A    between atoms: N_13  and  C_14
REMARK                            x       y       z     vdW  Elec       q    Type
REMARK                         _______ _______ _______ _____ _____    ______ ____
ROOT
ATOM      1  C   UNL     1       0.142  10.042  18.783  0.00  0.00    +0.000 A 
ATOM      2  C   UNL     1      -0.642   9.443  17.797  0.00  0.00    +0.000 A 
ATOM      3  C   UNL     1      -1.746  10.106  17.270  0.00  0.00    +0.000 A 
ATOM      4  C   UNL     1      -2.132  11.369  17.732  0.00  0.00    +0.000 A 
ATOM      5  C   UNL     1      -1.338  11.986  18.703  0.00  0.00    +0.000 A 
ATOM      6  C   UNL     1      -0.209  11.328  19.219  0.00  0.00    +0.000 A 
ENDROOT
BRANCH   4   7
ATOM      7  N   UNL     1      -3.292  12.035  17.263  0.00  0.00    +0.000 N 
ATOM      8  C   UNL     1      -4.564  11.857  17.765  0.00  0.00    +0.000 C 
ATOM      9  O   UNL     1      -4.886  11.100  18.684  0.00  0.00    +0.000 OA
ATOM     10  N   UNL     1      -5.529  12.596  17.111  0.00  0.00    +0.000 N 
ATOM     11  H   UNL     1      -3.180  12.678  16.497  0.00  0.00    +0.000 HD
ATOM     12  H   UNL     1      -5.253  13.482  16.712  0.00  0.00    +0.000 HD
BRANCH  10  13
ATOM     13  C   UNL     1      -6.894  12.444  17.535  0.00  0.00    +0.000 C 
ATOM     14  C   UNL     1      -7.464  13.133  18.737  0.00  0.00    +0.000 C 
ATOM     15  C   UNL     1      -7.830  13.615  17.365  0.00  0.00    +0.000 C 
ENDBRANCH  10  13
ENDBRANCH   4   7
BRANCH   1  16
ATOM     16  C   UNL     1       1.303   9.301  19.414  0.00  0.00    +0.000 C 
BRANCH  16  19
ATOM     17  C   UNL     1       2.227   6.607  20.175  0.00  0.00    +0.000 C 
ATOM     18  N   UNL     1       2.596   7.194  18.883  0.00  0.00    +0.000 N 
ATOM     19  C   UNL     1       2.153   8.464  18.451  0.00  0.00    +0.000 C 
ATOM     20  O   UNL     1       2.341   8.892  17.308  0.00  0.00    +0.000 OA
BRANCH  18  21
ATOM     21  C   UNL     1       3.403   6.360  18.007  0.00  0.00    +0.000 A 
ATOM     22  C   UNL     1       4.544   6.858  17.356  0.00  0.00    +0.000 A 
ATOM     23  C   UNL     1       5.273   6.086  16.445  0.00  0.00    +0.000 A 
ATOM     24  C   UNL     1       4.892   4.778  16.181  0.00  0.00    +0.000 A 
ATOM     25  C   UNL     1       3.802   4.237  16.852  0.00  0.00    +0.000 A 
ATOM     26  C   UNL     1       3.074   5.015  17.763  0.00  0.00    +0.000 A 
ENDBRANCH  18  21
ENDBRANCH  16  19
ENDBRANCH   1  16
TORSDOF 5
ENDMDL
MODEL 7
REMARK VINA RESULT:      -7.2      4.924      7.786
REMARK  Name = 
REMARK  6 active torsions:
REMARK  status: ('A' for Active; 'I' for Inactive)
REMARK    1  A    between atoms: C_1  and  N_2
REMARK    2  A    between atoms: N_2  and  C_19
REMARK    3  A    between atoms: C_3  and  C_5
REMARK    4  A    between atoms: C_5  and  C_6
REMARK    5  A    between atoms: C_9  and  N_10
REMARK    6  A    between atoms: N_13  and  C_14
REMARK                            x       y       z     vdW  Elec       q    Type
REMARK                         _______ _______ _______ _____ _____    ______ ____
ROOT
ATOM      1  C   UNL     1       3.036   6.005  19.167  0.00  0.00    +0.000 A 
ATOM      2  C   UNL     1       2.375   5.107  18.330  0.00  0.00    +0.000 A 
ATOM      3  C   UNL     1       3.087   4.340  17.411  0.00  0.00    +0.000 A 
ATOM      4  C   UNL     1       4.472   4.468  17.267  0.00  0.00    +0.000 A 
ATOM      5  C   UNL     1       5.145   5.349  18.119  0.00  0.00    +0.000 A 
ATOM      6  C   UNL     1       4.431   6.106  19.063  0.00  0.00    +0.000 A 
ENDROOT
BRANCH   4   7
ATOM      7  N   UNL     1       5.211   3.752  16.293  0.00  0.00    +0.000 N 
ATOM      8  C   UNL     1       5.478   4.200  15.015  0.00  0.00    +0.000 C 
ATOM      9  O   UNL     1       5.120   5.274  14.530  0.00  0.00    +0.000 OA
ATOM     10  N   UNL     1       6.186   3.298  14.247  0.00  0.00    +0.000 N 
ATOM     11  H   UNL     1       5.555   2.841  16.548  0.00  0.00    +0.000 HD
ATOM     12  H   UNL     1       6.829   2.679  14.720  0.00  0.00    +0.000 HD
BRANCH  10  13
ATOM     13  C   UNL     1       6.475   3.658  12.885  0.00  0.00    +0.000 C 
ATOM     14  C   UNL     1       6.886   2.665  11.842  0.00  0.00    +0.000 C 
ATOM     15  C   UNL     1       5.501   3.238  11.813  0.00  0.00    +0.000 C 
ENDBRANCH  10  13
ENDBRANCH   4   7
BRANCH   1  16
ATOM     16  C   UNL     1       2.264   6.896  20.120  0.00  0.00    +0.000 C 
BRANCH  16  19
ATOM     17  C   UNL     1       0.574   8.711  21.712  0.00  0.00    +0.000 C 
ATOM     18  N   UNL     1       0.920   9.027  20.322  0.00  0.00    +0.000 N 
ATOM     19  C   UNL     1       1.753   8.213  19.525  0.00  0.00    +0.000 C 
ATOM     20  O   UNL     1       2.163   8.552  18.410  0.00  0.00    +0.000 OA
BRANCH  18  21
ATOM     21  C   UNL     1       0.411  10.287  19.805  0.00  0.00    +0.000 A 
ATOM     22  C   UNL     1       1.035  11.512  20.094  0.00  0.00    +0.000 A 
ATOM     23  C   UNL     1       0.499  12.734  19.673  0.00  0.00    +0.000 A 
ATOM     24  C   UNL     1      -0.669  12.760  18.923  0.00  0.00    +0.000 A 
ATOM     25  C   UNL     1      -1.279  11.562  18.571  0.00  0.00    +0.000 A 
ATOM     26  C   UNL     1      -0.739  10.340  18.997  0.00  0.00    +0.000 A 
ENDBRANCH  18  21
ENDBRANCH  16  19
ENDBRANCH   1  16
TORSDOF 5
ENDMDL
MODEL 8
REMARK VINA RESULT:      -7.2      5.005      8.025
REMARK  Name = 
REMARK  6 active torsions:
REMARK  status: ('A' for Active; 'I' for Inactive)
REMARK    1  A    between atoms: C_1  and  N_2
REMARK    2  A    between atoms: N_2  and  C_19
REMARK    3  A    between atoms: C_3  and  C_5
REMARK    4  A    between atoms: C_5  and  C_6
REMARK    5  A    between atoms: C_9  and  N_10
REMARK    6  A    between atoms: N_13  and  C_14
REMARK                            x       y       z     vdW  Elec       q    Type
REMARK                         _______ _______ _______ _____ _____    ______ ____
ROOT
ATOM      1  C   UNL     1       3.349   6.396  18.034  0.00  0.00    +0.000 A 
ATOM      2  C   UNL     1       4.318   6.998  17.231  0.00  0.00    +0.000 A 
ATOM      3  C   UNL     1       5.068   6.238  16.338  0.00  0.00    +0.000 A 
ATOM      4  C   UNL     1       4.909   4.851  16.241  0.00  0.00    +0.000 A 
ATOM      5  C   UNL     1       3.924   4.245  17.026  0.00  0.00    +0.000 A 
ATOM      6  C   UNL     1       3.149   5.014  17.910  0.00  0.00    +0.000 A 
ENDROOT
BRANCH   4   7
ATOM      7  N   UNL     1       5.708   4.046  15.393  0.00  0.00    +0.000 N 
ATOM      8  C   UNL     1       5.679   4.077  14.014  0.00  0.00    +0.000 C 
ATOM      9  O   UNL     1       4.962   4.798  13.316  0.00  0.00    +0.000 OA
ATOM     10  N   UNL     1       6.529   3.168  13.418  0.00  0.00    +0.000 N 
ATOM     11  H   UNL     1       6.336   3.392  15.830  0.00  0.00    +0.000 HD
ATOM     12  H   UNL     1       7.378   2.925  13.909  0.00  0.00    +0.000 HD
BRANCH  10  13
ATOM     13  C   UNL     1       6.537   3.095  11.983  0.00  0.00    +0.000 C 
ATOM     14  C   UNL     1       7.278   2.045  11.215  0.00  0.00    +0.000 C 
ATOM     15  C   UNL     1       5.784   1.968  11.320  0.00  0.00    +0.000 C 
ENDBRANCH  10  13
ENDBRANCH   4   7
BRANCH   1  16
ATOM     16  C   UNL     1       2.577   7.201  19.060  0.00  0.00    +0.000 C 
BRANCH  16  19
ATOM     17  C   UNL     1       1.058   8.964  20.869  0.00  0.00    +0.000 C 
ATOM     18  N   UNL     1       1.159   9.260  19.436  0.00  0.00    +0.000 N 
ATOM     19  C   UNL     1       1.901   8.471  18.530  0.00  0.00    +0.000 C 
ATOM     20  O   UNL     1       2.107   8.801  17.358  0.00  0.00    +0.000 OA
BRANCH  18  21
ATOM     21  C   UNL     1       0.499  10.474  18.985  0.00  0.00    +0.000 A 
ATOM     22  C   UNL     1       1.160  11.714  18.972  0.00  0.00    +0.000 A 
ATOM     23  C   UNL     1       0.503  12.899  18.622  0.00  0.00    +0.000 A 
ATOM     24  C   UNL     1      -0.833  12.870  18.248  0.00  0.00    +0.000 A 
ATOM     25  C   UNL     1      -1.498  11.651  18.194  0.00  0.00    +0.000 A 
ATOM     26  C   UNL     1      -0.837  10.467  18.547  0.00  0.00    +0.000 A 
ENDBRANCH  18  21
ENDBRANCH  16  19
ENDBRANCH   1  16
TORSDOF 5
ENDMDL
MODEL 9
REMARK VINA RESULT:      -7.2      6.557      9.471
REMARK  Name = 
REMARK  6 active torsions:
REMARK  status: ('A' for Active; 'I' for Inactive)
REMARK    1  A    between atoms: C_1  and  N_2
REMARK    2  A    between atoms: N_2  and  C_19
REMARK    3  A    between atoms: C_3  and  C_5
REMARK    4  A    between atoms: C_5  and  C_6
REMARK    5  A    between atoms: C_9  and  N_10
REMARK    6  A    between atoms: N_13  and  C_14
REMARK                            x       y       z     vdW  Elec       q    Type
REMARK                         _______ _______ _______ _____ _____    ______ ____
ROOT
ATOM      1  C   UNL     1       1.026   9.310  19.244  0.00  0.00    +0.000 A 
ATOM      2  C   UNL     1       0.385   9.808  20.378  0.00  0.00    +0.000 A 
ATOM      3  C   UNL     1      -0.788  10.549  20.260  0.00  0.00    +0.000 A 
ATOM      4  C   UNL     1      -1.341  10.853  19.012  0.00  0.00    +0.000 A 
ATOM      5  C   UNL     1      -0.717  10.338  17.872  0.00  0.00    +0.000 A 
ATOM      6  C   UNL     1       0.454   9.569  17.990  0.00  0.00    +0.000 A 
ENDROOT
BRANCH   4   7
ATOM      7  N   UNL     1      -2.493  11.664  18.862  0.00  0.00    +0.000 N 
ATOM      8  C   UNL     1      -3.655  11.279  18.226  0.00  0.00    +0.000 C 
ATOM      9  O   UNL     1      -3.867  10.187  17.695  0.00  0.00    +0.000 OA
ATOM     10  N   UNL     1      -4.618  12.266  18.181  0.00  0.00    +0.000 N 
ATOM     11  H   UNL     1      -2.455  12.598  19.237  0.00  0.00    +0.000 HD
ATOM     12  H   UNL     1      -4.644  12.933  18.939  0.00  0.00    +0.000 HD
BRANCH  10  13
ATOM     13  C   UNL     1      -5.850  11.972  17.500  0.00  0.00    +0.000 C 
ATOM     14  C   UNL     1      -7.200  12.217  18.099  0.00  0.00    +0.000 C 
ATOM     15  C   UNL     1      -6.693  13.127  17.020  0.00  0.00    +0.000 C 
ENDBRANCH  10  13
ENDBRANCH   4   7
BRANCH   1  16
ATOM     16  C   UNL     1       2.340   8.564  19.355  0.00  0.00    +0.000 C 
BRANCH  16  19
ATOM     17  C   UNL     1       3.822   6.748  17.568  0.00  0.00    +0.000 C 
ATOM     18  N   UNL     1       2.932   6.223  18.609  0.00  0.00    +0.000 N 
ATOM     19  C   UNL     1       2.225   7.044  19.514  0.00  0.00    +0.000 C 
ATOM     20  O   UNL     1       1.596   6.600  20.480  0.00  0.00    +0.000 OA
BRANCH  18  21
ATOM     21  C   UNL     1       2.858   4.775  18.718  0.00  0.00    +0.000 A 
ATOM     22  C   UNL     1       3.826   4.035  19.417  0.00  0.00    +0.000 A 
ATOM     23  C   UNL     1       3.807   2.636  19.450  0.00  0.00    +0.000 A 
ATOM     24  C   UNL     1       2.798   1.938  18.802  0.00  0.00    +0.000 A 
ATOM     25  C   UNL     1       1.792   2.643  18.150  0.00  0.00    +0.000 A 
ATOM     26  C   UNL     1       1.816   4.044  18.118  0.00  0.00    +0.000 A 
ENDBRANCH  18  21
ENDBRANCH  16  19
ENDBRANCH   1  16
TORSDOF 5
ENDMDL
