MODEL 1
REMARK VINA RESULT:      -7.8      0.000      0.000
REMARK  Name = 
REMARK  7 active torsions:
REMARK  status: ('A' for Active; 'I' for Inactive)
REMARK    1  A    between atoms: O_1  and  C_2
REMARK    2  A    between atoms: C_5  and  C_6
REMARK    3  A    between atoms: C_6  and  N_7
REMARK    4  A    between atoms: N_7  and  C_8
REMARK    5  A    between atoms: C_8  and  C_9
REMARK    6  A    between atoms: N_12  and  C_13
REMARK    7  A    between atoms: C_13  and  C_14
REMARK                            x       y       z     vdW  Elec       q    Type
REMARK                         _______ _______ _______ _____ _____    ______ ____
ROOT
ATOM      1  C   UNL     1       6.935   6.988  17.731  0.00  0.00    +0.000 C 
ATOM      2  C   UNL     1       6.251   6.249  16.572  0.00  0.00    +0.000 C 
ATOM      3  C   UNL     1       5.045   5.460  17.080  0.00  0.00    +0.000 C 
ATOM      4  N   UNL     1       5.403   4.517  18.155  0.00  0.00    +0.000 NA
ATOM      5  C   UNL     1       6.084   5.217  19.261  0.00  0.00    +0.000 C 
ATOM      6  C   UNL     1       7.350   5.936  18.764  0.00  0.00    +0.000 C 
ENDROOT
BRANCH   1   7
ATOM      7  C   UNL     1       8.074   7.918  17.275  0.00  0.00    +0.000 C 
BRANCH   7   8
ATOM      8  N   UNL     1       7.870   9.168  17.995  0.00  0.00    +0.000 NA
ATOM      9  H   UNL     1       7.610   9.915  17.353  0.00  0.00    +0.000 HD
BRANCH   8  10
ATOM     10  C   UNL     1       8.960   9.639  18.828  0.00  0.00    +0.000 C 
BRANCH  10  14
ATOM     11  C   UNL     1      10.406  13.415  17.338  0.00  0.00    +0.000 A 
ATOM     12  C   UNL     1      11.313  12.417  17.663  0.00  0.00    +0.000 A 
ATOM     13  C   UNL     1      10.830  11.180  18.104  0.00  0.00    +0.000 A 
ATOM     14  C   UNL     1       9.449  10.944  18.227  0.00  0.00    +0.000 A 
ATOM     15  C   UNL     1       8.556  11.970  17.893  0.00  0.00    +0.000 A 
ATOM     16  C   UNL     1       9.033  13.201  17.444  0.00  0.00    +0.000 A 
BRANCH  11  17
ATOM     17  O   UNL     1      10.828  14.645  16.920  0.00  0.00    +0.000 OA
ATOM     18  H   UNL     1      10.131  15.293  17.128  0.00  0.00    +0.000 HD
ENDBRANCH  11  17
ENDBRANCH  10  14
ENDBRANCH   8  10
ENDBRANCH   7   8
ENDBRANCH   1   7
BRANCH   4  19
ATOM     19  C   UNL     1       4.215   3.780  18.648  0.00  0.00    +0.000 C 
BRANCH  19  20
ATOM     20  C   UNL     1       2.940   4.663  18.745  0.00  0.00    +0.000 C 
ATOM     21  C   UNL     1       1.731   4.041  18.033  0.00  0.00    +0.000 C 
ATOM     22  C   UNL     1       1.163   2.848  18.793  0.00  0.00    +0.000 C 
ATOM     23  C   UNL     1       0.727   3.251  20.195  0.00  0.00    +0.000 C 
ATOM     24  C   UNL     1       1.822   3.969  20.982  0.00  0.00    +0.000 C 
ATOM     25  C   UNL     1       2.578   5.035  20.194  0.00  0.00    +0.000 C 
ENDBRANCH  19  20
ENDBRANCH   4  19
TORSDOF 7
ENDMDL
MODEL 2
REMARK VINA RESULT:      -7.5      0.958      1.550
REMARK  Name = 
REMARK  7 active torsions:
REMARK  status: ('A' for Active; 'I' for Inactive)
REMARK    1  A    between atoms: O_1  and  C_2
REMARK    2  A    between atoms: C_5  and  C_6
REMARK    3  A    between atoms: C_6  and  N_7
REMARK    4  A    between atoms: N_7  and  C_8
REMARK    5  A    between atoms: C_8  and  C_9
REMARK    6  A    between atoms: N_12  and  C_13
REMARK    7  A    between atoms: C_13  and  C_14
REMARK                            x       y       z     vdW  Elec       q    Type
REMARK                         _______ _______ _______ _____ _____    ______ ____
ROOT
ATOM      1  C   UNL     1       7.195   7.389  18.019  0.00  0.00    +0.000 C 
ATOM      2  C   UNL     1       6.161   7.064  16.932  0.00  0.00    +0.000 C 
ATOM      3  C   UNL     1       4.995   6.274  17.524  0.00  0.00    +0.000 C 
ATOM      4  N   UNL     1       5.437   5.042  18.201  0.00  0.00    +0.000 NA
ATOM      5  C   UNL     1       6.450   5.344  19.230  0.00  0.00    +0.000 C 
ATOM      6  C   UNL     1       7.666   6.060  18.616  0.00  0.00    +0.000 C 
ENDROOT
BRANCH   1   7
ATOM      7  C   UNL     1       8.330   8.306  17.530  0.00  0.00    +0.000 C 
BRANCH   7   8
ATOM      8  N   UNL     1       8.128   9.578  18.210  0.00  0.00    +0.000 NA
ATOM      9  H   UNL     1       7.922  10.316  17.540  0.00  0.00    +0.000 HD
BRANCH   8  10
ATOM     10  C   UNL     1       9.189  10.037  19.086  0.00  0.00    +0.000 C 
BRANCH  10  14
ATOM     11  C   UNL     1      10.754  13.532  17.110  0.00  0.00    +0.000 A 
ATOM     12  C   UNL     1       9.408  13.482  17.446  0.00  0.00    +0.000 A 
ATOM     13  C   UNL     1       8.920  12.362  18.126  0.00  0.00    +0.000 A 
ATOM     14  C   UNL     1       9.771  11.292  18.462  0.00  0.00    +0.000 A 
ATOM     15  C   UNL     1      11.124  11.370  18.111  0.00  0.00    +0.000 A 
ATOM     16  C   UNL     1      11.616  12.489  17.441  0.00  0.00    +0.000 A 
BRANCH  11  17
ATOM     17  O   UNL     1      11.274  14.597  16.431  0.00  0.00    +0.000 OA
ATOM     18  H   UNL     1      11.812  14.255  15.694  0.00  0.00    +0.000 HD
ENDBRANCH  11  17
ENDBRANCH  10  14
ENDBRANCH   8  10
ENDBRANCH   7   8
ENDBRANCH   1   7
BRANCH   4  19
ATOM     19  C   UNL     1       4.293   4.303  18.787  0.00  0.00    +0.000 C 
BRANCH  19  20
ATOM     20  C   UNL     1       3.351   3.680  17.719  0.00  0.00    +0.000 C 
ATOM     21  C   UNL     1       3.292   2.149  17.800  0.00  0.00    +0.000 C 
ATOM     22  C   UNL     1       2.507   1.665  19.014  0.00  0.00    +0.000 C 
ATOM     23  C   UNL     1       1.079   2.190  18.987  0.00  0.00    +0.000 C 
ATOM     24  C   UNL     1       0.999   3.707  18.815  0.00  0.00    +0.000 C 
ATOM     25  C   UNL     1       1.933   4.277  17.752  0.00  0.00    +0.000 C 
ENDBRANCH  19  20
ENDBRANCH   4  19
TORSDOF 7
ENDMDL
MODEL 3
REMARK VINA RESULT:      -7.5      0.784      1.060
REMARK  Name = 
REMARK  7 active torsions:
REMARK  status: ('A' for Active; 'I' for Inactive)
REMARK    1  A    between atoms: O_1  and  C_2
REMARK    2  A    between atoms: C_5  and  C_6
REMARK    3  A    between atoms: C_6  and  N_7
REMARK    4  A    between atoms: N_7  and  C_8
REMARK    5  A    between atoms: C_8  and  C_9
REMARK    6  A    between atoms: N_12  and  C_13
REMARK    7  A    between atoms: C_13  and  C_14
REMARK                            x       y       z     vdW  Elec       q    Type
REMARK                         _______ _______ _______ _____ _____    ______ ____
ROOT
ATOM      1  C   UNL     1       7.091   7.323  17.933  0.00  0.00    +0.000 C 
ATOM      2  C   UNL     1       6.056   6.896  16.882  0.00  0.00    +0.000 C 
ATOM      3  C   UNL     1       4.925   6.105  17.538  0.00  0.00    +0.000 C 
ATOM      4  N   UNL     1       5.419   4.933  18.283  0.00  0.00    +0.000 NA
ATOM      5  C   UNL     1       6.432   5.332  19.277  0.00  0.00    +0.000 C 
ATOM      6  C   UNL     1       7.615   6.050  18.603  0.00  0.00    +0.000 C 
ENDROOT
BRANCH   1   7
ATOM      7  C   UNL     1       8.188   8.247  17.372  0.00  0.00    +0.000 C 
BRANCH   7   8
ATOM      8  N   UNL     1       8.082   9.485  18.130  0.00  0.00    +0.000 NA
ATOM      9  H   UNL     1       8.020  10.286  17.504  0.00  0.00    +0.000 HD
BRANCH   8  10
ATOM     10  C   UNL     1       9.115   9.750  19.113  0.00  0.00    +0.000 C 
BRANCH  10  14
ATOM     11  C   UNL     1      10.427  13.759  18.230  0.00  0.00    +0.000 A 
ATOM     12  C   UNL     1       9.643  13.529  19.351  0.00  0.00    +0.000 A 
ATOM     13  C   UNL     1       9.260  12.218  19.652  0.00  0.00    +0.000 A 
ATOM     14  C   UNL     1       9.651  11.142  18.833  0.00  0.00    +0.000 A 
ATOM     15  C   UNL     1      10.442  11.405  17.707  0.00  0.00    +0.000 A 
ATOM     16  C   UNL     1      10.834  12.709  17.409  0.00  0.00    +0.000 A 
BRANCH  11  17
ATOM     17  O   UNL     1      10.813  15.022  17.884  0.00  0.00    +0.000 OA
ATOM     18  H   UNL     1      11.427  14.958  17.130  0.00  0.00    +0.000 HD
ENDBRANCH  11  17
ENDBRANCH  10  14
ENDBRANCH   8  10
ENDBRANCH   7   8
ENDBRANCH   1   7
BRANCH   4  19
ATOM     19  C   UNL     1       4.308   4.193  18.930  0.00  0.00    +0.000 C 
BRANCH  19  20
ATOM     20  C   UNL     1       2.918   4.849  18.701  0.00  0.00    +0.000 C 
ATOM     21  C   UNL     1       1.979   3.973  17.860  0.00  0.00    +0.000 C 
ATOM     22  C   UNL     1       1.466   2.766  18.636  0.00  0.00    +0.000 C 
ATOM     23  C   UNL     1       0.712   3.199  19.886  0.00  0.00    +0.000 C 
ATOM     24  C   UNL     1       1.511   4.155  20.769  0.00  0.00    +0.000 C 
ATOM     25  C   UNL     1       2.231   5.268  20.013  0.00  0.00    +0.000 C 
ENDBRANCH  19  20
ENDBRANCH   4  19
TORSDOF 7
ENDMDL
MODEL 4
REMARK VINA RESULT:      -7.4      1.088      1.181
REMARK  Name = 
REMARK  7 active torsions:
REMARK  status: ('A' for Active; 'I' for Inactive)
REMARK    1  A    between atoms: O_1  and  C_2
REMARK    2  A    between atoms: C_5  and  C_6
REMARK    3  A    between atoms: C_6  and  N_7
REMARK    4  A    between atoms: N_7  and  C_8
REMARK    5  A    between atoms: C_8  and  C_9
REMARK    6  A    between atoms: N_12  and  C_13
REMARK    7  A    between atoms: C_13  and  C_14
REMARK                            x       y       z     vdW  Elec       q    Type
REMARK                         _______ _______ _______ _____ _____    ______ ____
ROOT
ATOM      1  C   UNL     1       7.024   7.113  17.791  0.00  0.00    +0.000 C 
ATOM      2  C   UNL     1       5.726   7.101  16.971  0.00  0.00    +0.000 C 
ATOM      3  C   UNL     1       4.658   6.267  17.677  0.00  0.00    +0.000 C 
ATOM      4  N   UNL     1       5.109   4.891  17.951  0.00  0.00    +0.000 NA
ATOM      5  C   UNL     1       6.370   4.895  18.716  0.00  0.00    +0.000 C 
ATOM      6  C   UNL     1       7.472   5.658  17.962  0.00  0.00    +0.000 C 
ENDROOT
BRANCH   1   7
ATOM      7  C   UNL     1       8.103   8.049  17.215  0.00  0.00    +0.000 C 
BRANCH   7   8
ATOM      8  N   UNL     1       8.070   9.243  18.048  0.00  0.00    +0.000 NA
ATOM      9  H   UNL     1       8.132  10.083  17.475  0.00  0.00    +0.000 HD
BRANCH   8  10
ATOM     10  C   UNL     1       9.053   9.338  19.109  0.00  0.00    +0.000 C 
BRANCH  10  14
ATOM     11  C   UNL     1      10.751  13.300  19.096  0.00  0.00    +0.000 A 
ATOM     12  C   UNL     1      10.660  12.591  17.906  0.00  0.00    +0.000 A 
ATOM     13  C   UNL     1      10.068  11.324  17.915  0.00  0.00    +0.000 A 
ATOM     14  C   UNL     1       9.575  10.764  19.107  0.00  0.00    +0.000 A 
ATOM     15  C   UNL     1       9.680  11.502  20.293  0.00  0.00    +0.000 A 
ATOM     16  C   UNL     1      10.261  12.768  20.287  0.00  0.00    +0.000 A 
BRANCH  11  17
ATOM     17  O   UNL     1      11.336  14.533  19.141  0.00  0.00    +0.000 OA
ATOM     18  H   UNL     1      12.112  14.480  19.728  0.00  0.00    +0.000 HD
ENDBRANCH  11  17
ENDBRANCH  10  14
ENDBRANCH   8  10
ENDBRANCH   7   8
ENDBRANCH   1   7
BRANCH   4  19
ATOM     19  C   UNL     1       4.066   4.107  18.656  0.00  0.00    +0.000 C 
BRANCH  19  20
ATOM     20  C   UNL     1       2.682   4.815  18.687  0.00  0.00    +0.000 C 
ATOM     21  C   UNL     1       1.606   4.048  17.907  0.00  0.00    +0.000 C 
ATOM     22  C   UNL     1       1.160   2.782  18.630  0.00  0.00    +0.000 C 
ATOM     23  C   UNL     1       0.601   3.107  20.008  0.00  0.00    +0.000 C 
ATOM     24  C   UNL     1       1.548   3.953  20.857  0.00  0.00    +0.000 C 
ATOM     25  C   UNL     1       2.198   5.118  20.116  0.00  0.00    +0.000 C 
ENDBRANCH  19  20
ENDBRANCH   4  19
TORSDOF 7
ENDMDL
MODEL 5
REMARK VINA RESULT:      -7.1      4.128      6.804
REMARK  Name = 
REMARK  7 active torsions:
REMARK  status: ('A' for Active; 'I' for Inactive)
REMARK    1  A    between atoms: O_1  and  C_2
REMARK    2  A    between atoms: C_5  and  C_6
REMARK    3  A    between atoms: C_6  and  N_7
REMARK    4  A    between atoms: N_7  and  C_8
REMARK    5  A    between atoms: C_8  and  C_9
REMARK    6  A    between atoms: N_12  and  C_13
REMARK    7  A    between atoms: C_13  and  C_14
REMARK                            x       y       z     vdW  Elec       q    Type
REMARK                         _______ _______ _______ _____ _____    ______ ____
ROOT
ATOM      1  C   UNL     1       1.845   5.113  18.400  0.00  0.00    +0.000 C 
ATOM      2  C   UNL     1       2.075   4.948  19.909  0.00  0.00    +0.000 C 
ATOM      3  C   UNL     1       1.571   6.177  20.663  0.00  0.00    +0.000 C 
ATOM      4  N   UNL     1       2.189   7.425  20.180  0.00  0.00    +0.000 NA
ATOM      5  C   UNL     1       1.994   7.578  18.727  0.00  0.00    +0.000 C 
ATOM      6  C   UNL     1       2.583   6.381  17.960  0.00  0.00    +0.000 C 
ENDROOT
BRANCH   1   7
ATOM      7  C   UNL     1       2.198   3.855  17.585  0.00  0.00    +0.000 C 
BRANCH   7   8
ATOM      8  N   UNL     1       3.554   3.501  17.979  0.00  0.00    +0.000 NA
ATOM      9  H   UNL     1       3.833   4.016  18.813  0.00  0.00    +0.000 HD
BRANCH   8  10
ATOM     10  C   UNL     1       4.594   3.648  16.980  0.00  0.00    +0.000 C 
BRANCH  10  14
ATOM     11  C   UNL     1       7.567   6.411  18.430  0.00  0.00    +0.000 A 
ATOM     12  C   UNL     1       7.340   6.306  17.065  0.00  0.00    +0.000 A 
ATOM     13  C   UNL     1       6.343   5.439  16.608  0.00  0.00    +0.000 A 
ATOM     14  C   UNL     1       5.580   4.673  17.510  0.00  0.00    +0.000 A 
ATOM     15  C   UNL     1       5.832   4.799  18.882  0.00  0.00    +0.000 A 
ATOM     16  C   UNL     1       6.819   5.669  19.341  0.00  0.00    +0.000 A 
BRANCH  11  17
ATOM     17  O   UNL     1       8.541   7.231  18.923  0.00  0.00    +0.000 OA
ATOM     18  H   UNL     1       9.407   6.858  18.676  0.00  0.00    +0.000 HD
ENDBRANCH  11  17
ENDBRANCH  10  14
ENDBRANCH   8  10
ENDBRANCH   7   8
ENDBRANCH   1   7
BRANCH   4  19
ATOM     19  C   UNL     1       1.669   8.607  20.910  0.00  0.00    +0.000 C 
BRANCH  19  20
ATOM     20  C   UNL     1       0.120   8.728  20.859  0.00  0.00    +0.000 C 
ATOM     21  C   UNL     1      -0.529   8.646  22.247  0.00  0.00    +0.000 C 
ATOM     22  C   UNL     1      -0.292   9.906  23.071  0.00  0.00    +0.000 C 
ATOM     23  C   UNL     1      -0.848  11.134  22.364  0.00  0.00    +0.000 C 
ATOM     24  C   UNL     1      -0.345  11.280  20.928  0.00  0.00    +0.000 C 
ATOM     25  C   UNL     1      -0.356   9.989  20.116  0.00  0.00    +0.000 C 
ENDBRANCH  19  20
ENDBRANCH   4  19
TORSDOF 7
ENDMDL
MODEL 6
REMARK VINA RESULT:      -7.1      0.846      1.566
REMARK  Name = 
REMARK  7 active torsions:
REMARK  status: ('A' for Active; 'I' for Inactive)
REMARK    1  A    between atoms: O_1  and  C_2
REMARK    2  A    between atoms: C_5  and  C_6
REMARK    3  A    between atoms: C_6  and  N_7
REMARK    4  A    between atoms: N_7  and  C_8
REMARK    5  A    between atoms: C_8  and  C_9
REMARK    6  A    between atoms: N_12  and  C_13
REMARK    7  A    between atoms: C_13  and  C_14
REMARK                            x       y       z     vdW  Elec       q    Type
REMARK                         _______ _______ _______ _____ _____    ______ ____
ROOT
ATOM      1  C   UNL     1       6.941   7.048  17.827  0.00  0.00    +0.000 C 
ATOM      2  C   UNL     1       5.762   7.308  16.879  0.00  0.00    +0.000 C 
ATOM      3  C   UNL     1       4.513   6.578  17.370  0.00  0.00    +0.000 C 
ATOM      4  N   UNL     1       4.735   5.131  17.534  0.00  0.00    +0.000 NA
ATOM      5  C   UNL     1       5.883   4.874  18.424  0.00  0.00    +0.000 C 
ATOM      6  C   UNL     1       7.162   5.534  17.880  0.00  0.00    +0.000 C 
ENDROOT
BRANCH   1   7
ATOM      7  C   UNL     1       8.199   7.864  17.477  0.00  0.00    +0.000 C 
BRANCH   7   8
ATOM      8  N   UNL     1       7.946   9.209  17.977  0.00  0.00    +0.000 NA
ATOM      9  H   UNL     1       7.888   9.874  17.207  0.00  0.00    +0.000 HD
BRANCH   8  10
ATOM     10  C   UNL     1       8.867   9.732  18.967  0.00  0.00    +0.000 C 
BRANCH  10  14
ATOM     11  C   UNL     1      10.540  13.237  17.099  0.00  0.00    +0.000 A 
ATOM     12  C   UNL     1       9.173  13.173  17.330  0.00  0.00    +0.000 A 
ATOM     13  C   UNL     1       8.647  12.049  17.975  0.00  0.00    +0.000 A 
ATOM     14  C   UNL     1       9.481  10.992  18.383  0.00  0.00    +0.000 A 
ATOM     15  C   UNL     1      10.857  11.084  18.138  0.00  0.00    +0.000 A 
ATOM     16  C   UNL     1      11.386  12.206  17.502  0.00  0.00    +0.000 A 
BRANCH  11  17
ATOM     17  O   UNL     1      11.098  14.305  16.457  0.00  0.00    +0.000 OA
ATOM     18  H   UNL     1      12.064  14.263  16.580  0.00  0.00    +0.000 HD
ENDBRANCH  11  17
ENDBRANCH  10  14
ENDBRANCH   8  10
ENDBRANCH   7   8
ENDBRANCH   1   7
BRANCH   4  19
ATOM     19  C   UNL     1       3.517   4.447  18.033  0.00  0.00    +0.000 C 
BRANCH  19  20
ATOM     20  C   UNL     1       3.579   4.110  19.549  0.00  0.00    +0.000 C 
ATOM     21  C   UNL     1       2.633   4.978  20.389  0.00  0.00    +0.000 C 
ATOM     22  C   UNL     1       1.171   4.594  20.194  0.00  0.00    +0.000 C 
ATOM     23  C   UNL     1       0.932   3.139  20.571  0.00  0.00    +0.000 C 
ATOM     24  C   UNL     1       1.882   2.172  19.864  0.00  0.00    +0.000 C 
ATOM     25  C   UNL     1       3.341   2.618  19.839  0.00  0.00    +0.000 C 
ENDBRANCH  19  20
ENDBRANCH   4  19
TORSDOF 7
ENDMDL
MODEL 7
REMARK VINA RESULT:      -7.1      4.242      6.898
REMARK  Name = 
REMARK  7 active torsions:
REMARK  status: ('A' for Active; 'I' for Inactive)
REMARK    1  A    between atoms: O_1  and  C_2
REMARK    2  A    between atoms: C_5  and  C_6
REMARK    3  A    between atoms: C_6  and  N_7
REMARK    4  A    between atoms: N_7  and  C_8
REMARK    5  A    between atoms: C_8  and  C_9
REMARK    6  A    between atoms: N_12  and  C_13
REMARK    7  A    between atoms: C_13  and  C_14
REMARK                            x       y       z     vdW  Elec       q    Type
REMARK                         _______ _______ _______ _____ _____    ______ ____
ROOT
ATOM      1  C   UNL     1       2.402   4.155  19.601  0.00  0.00    +0.000 C 
ATOM      2  C   UNL     1       1.944   4.371  18.151  0.00  0.00    +0.000 C 
ATOM      3  C   UNL     1       2.904   3.683  17.182  0.00  0.00    +0.000 C 
ATOM      4  N   UNL     1       4.297   4.131  17.356  0.00  0.00    +0.000 NA
ATOM      5  C   UNL     1       4.734   3.950  18.753  0.00  0.00    +0.000 C 
ATOM      6  C   UNL     1       3.820   4.719  19.723  0.00  0.00    +0.000 C 
ENDROOT
BRANCH   1   7
ATOM      7  C   UNL     1       1.408   4.699  20.644  0.00  0.00    +0.000 C 
BRANCH   7   8
ATOM      8  N   UNL     1       1.912   6.013  21.017  0.00  0.00    +0.000 NA
ATOM      9  H   UNL     1       2.440   5.963  21.887  0.00  0.00    +0.000 HD
BRANCH   8  10
ATOM     10  C   UNL     1       0.944   7.087  21.130  0.00  0.00    +0.000 C 
BRANCH  10  14
ATOM     11  C   UNL     1       1.930  10.150  18.263  0.00  0.00    +0.000 A 
ATOM     12  C   UNL     1       1.134  10.467  19.355  0.00  0.00    +0.000 A 
ATOM     13  C   UNL     1       0.857   9.476  20.302  0.00  0.00    +0.000 A 
ATOM     14  C   UNL     1       1.365   8.172  20.156  0.00  0.00    +0.000 A 
ATOM     15  C   UNL     1       2.165   7.881  19.043  0.00  0.00    +0.000 A 
ATOM     16  C   UNL     1       2.451   8.868  18.102  0.00  0.00    +0.000 A 
BRANCH  11  17
ATOM     17  O   UNL     1       2.215  11.078  17.303  0.00  0.00    +0.000 OA
ATOM     18  H   UNL     1       2.630  10.620  16.550  0.00  0.00    +0.000 HD
ENDBRANCH  11  17
ENDBRANCH  10  14
ENDBRANCH   8  10
ENDBRANCH   7   8
ENDBRANCH   1   7
BRANCH   4  19
ATOM     19  C   UNL     1       5.213   3.434  16.421  0.00  0.00    +0.000 C 
BRANCH  19  20
ATOM     20  C   UNL     1       6.158   4.399  15.653  0.00  0.00    +0.000 C 
ATOM     21  C   UNL     1       5.450   5.680  15.191  0.00  0.00    +0.000 C 
ATOM     22  C   UNL     1       5.155   6.626  16.350  0.00  0.00    +0.000 C 
ATOM     23  C   UNL     1       6.436   7.028  17.067  0.00  0.00    +0.000 C 
ATOM     24  C   UNL     1       7.284   5.832  17.500  0.00  0.00    +0.000 C 
ATOM     25  C   UNL     1       7.433   4.742  16.442  0.00  0.00    +0.000 C 
ENDBRANCH  19  20
ENDBRANCH   4  19
TORSDOF 7
ENDMDL
MODEL 8
REMARK VINA RESULT:      -7.0      1.452      1.947
REMARK  Name = 
REMARK  7 active torsions:
REMARK  status: ('A' for Active; 'I' for Inactive)
REMARK    1  A    between atoms: O_1  and  C_2
REMARK    2  A    between atoms: C_5  and  C_6
REMARK    3  A    between atoms: C_6  and  N_7
REMARK    4  A    between atoms: N_7  and  C_8
REMARK    5  A    between atoms: C_8  and  C_9
REMARK    6  A    between atoms: N_12  and  C_13
REMARK    7  A    between atoms: C_13  and  C_14
REMARK                            x       y       z     vdW  Elec       q    Type
REMARK                         _______ _______ _______ _____ _____    ______ ____
ROOT
ATOM      1  C   UNL     1       6.100   6.676  17.830  0.00  0.00    +0.000 C 
ATOM      2  C   UNL     1       4.790   6.905  17.062  0.00  0.00    +0.000 C 
ATOM      3  C   UNL     1       3.592   6.776  18.002  0.00  0.00    +0.000 C 
ATOM      4  N   UNL     1       3.562   5.478  18.699  0.00  0.00    +0.000 NA
ATOM      5  C   UNL     1       4.828   5.240  19.418  0.00  0.00    +0.000 C 
ATOM      6  C   UNL     1       6.027   5.279  18.455  0.00  0.00    +0.000 C 
ENDROOT
BRANCH   1   7
ATOM      7  C   UNL     1       7.359   6.930  16.981  0.00  0.00    +0.000 C 
BRANCH   7   8
ATOM      8  N   UNL     1       7.796   8.276  17.322  0.00  0.00    +0.000 NA
ATOM      9  H   UNL     1       8.376   8.665  16.580  0.00  0.00    +0.000 HD
BRANCH   8  10
ATOM     10  C   UNL     1       8.489   8.449  18.584  0.00  0.00    +0.000 C 
BRANCH  10  14
ATOM     11  C   UNL     1       9.476  12.625  18.984  0.00  0.00    +0.000 A 
ATOM     12  C   UNL     1       9.856  11.735  19.979  0.00  0.00    +0.000 A 
ATOM     13  C   UNL     1       9.569  10.376  19.817  0.00  0.00    +0.000 A 
ATOM     14  C   UNL     1       8.899   9.908  18.672  0.00  0.00    +0.000 A 
ATOM     15  C   UNL     1       8.527  10.829  17.684  0.00  0.00    +0.000 A 
ATOM     16  C   UNL     1       8.819  12.183  17.837  0.00  0.00    +0.000 A 
BRANCH  11  17
ATOM     17  O   UNL     1       9.718  13.963  19.103  0.00  0.00    +0.000 OA
ATOM     18  H   UNL     1       9.998  14.142  20.019  0.00  0.00    +0.000 HD
ENDBRANCH  11  17
ENDBRANCH  10  14
ENDBRANCH   8  10
ENDBRANCH   7   8
ENDBRANCH   1   7
BRANCH   4  19
ATOM     19  C   UNL     1       2.405   5.383  19.621  0.00  0.00    +0.000 C 
BRANCH  19  20
ATOM     20  C   UNL     1       1.424   4.233  19.261  0.00  0.00    +0.000 C 
ATOM     21  C   UNL     1       1.356   3.961  17.753  0.00  0.00    +0.000 C 
ATOM     22  C   UNL     1       2.614   3.275  17.232  0.00  0.00    +0.000 C 
ATOM     23  C   UNL     1       2.844   1.947  17.939  0.00  0.00    +0.000 C 
ATOM     24  C   UNL     1       2.842   2.068  19.462  0.00  0.00    +0.000 C 
ATOM     25  C   UNL     1       1.720   2.933  20.030  0.00  0.00    +0.000 C 
ENDBRANCH  19  20
ENDBRANCH   4  19
TORSDOF 7
ENDMDL
MODEL 9
REMARK VINA RESULT:      -7.0      6.198      8.556
REMARK  Name = 
REMARK  7 active torsions:
REMARK  status: ('A' for Active; 'I' for Inactive)
REMARK    1  A    between atoms: O_1  and  C_2
REMARK    2  A    between atoms: C_5  and  C_6
REMARK    3  A    between atoms: C_6  and  N_7
REMARK    4  A    between atoms: N_7  and  C_8
REMARK    5  A    between atoms: C_8  and  C_9
REMARK    6  A    between atoms: N_12  and  C_13
REMARK    7  A    between atoms: C_13  and  C_14
REMARK                            x       y       z     vdW  Elec       q    Type
REMARK                         _______ _______ _______ _____ _____    ______ ____
ROOT
ATOM      1  C   UNL     1       1.664   8.632  20.270  0.00  0.00    +0.000 C 
ATOM      2  C   UNL     1       1.413   7.204  20.775  0.00  0.00    +0.000 C 
ATOM      3  C   UNL     1       2.465   6.248  20.214  0.00  0.00    +0.000 C 
ATOM      4  N   UNL     1       2.519   6.274  18.741  0.00  0.00    +0.000 NA
ATOM      5  C   UNL     1       2.734   7.647  18.249  0.00  0.00    +0.000 C 
ATOM      6  C   UNL     1       1.623   8.591  18.740  0.00  0.00    +0.000 C 
ENDROOT
BRANCH   1   7
ATOM      7  C   UNL     1       0.730   9.679  20.906  0.00  0.00    +0.000 C 
BRANCH   7   8
ATOM      8  N   UNL     1      -0.433   9.747  20.032  0.00  0.00    +0.000 NA
ATOM      9  H   UNL     1      -0.300   9.162  19.209  0.00  0.00    +0.000 HD
BRANCH   8  10
ATOM     10  C   UNL     1      -0.857  11.063  19.596  0.00  0.00    +0.000 C 
BRANCH  10  14
ATOM     11  C   UNL     1      -3.563  10.627  16.270  0.00  0.00    +0.000 A 
ATOM     12  C   UNL     1      -2.377   9.907  16.284  0.00  0.00    +0.000 A 
ATOM     13  C   UNL     1      -1.527  10.023  17.389  0.00  0.00    +0.000 A 
ATOM     14  C   UNL     1      -1.856  10.860  18.471  0.00  0.00    +0.000 A 
ATOM     15  C   UNL     1      -3.060  11.575  18.429  0.00  0.00    +0.000 A 
ATOM     16  C   UNL     1      -3.914  11.455  17.334  0.00  0.00    +0.000 A 
BRANCH  11  17
ATOM     17  O   UNL     1      -4.417  10.561  15.207  0.00  0.00    +0.000 OA
ATOM     18  H   UNL     1      -5.330  10.577  15.548  0.00  0.00    +0.000 HD
ENDBRANCH  11  17
ENDBRANCH  10  14
ENDBRANCH   8  10
ENDBRANCH   7   8
ENDBRANCH   1   7
BRANCH   4  19
ATOM     19  C   UNL     1       3.561   5.356  18.220  0.00  0.00    +0.000 C 
BRANCH  19  20
ATOM     20  C   UNL     1       2.982   4.178  17.388  0.00  0.00    +0.000 C 
ATOM     21  C   UNL     1       3.733   2.860  17.621  0.00  0.00    +0.000 C 
ATOM     22  C   UNL     1       3.433   2.259  18.989  0.00  0.00    +0.000 C 
ATOM     23  C   UNL     1       1.945   1.987  19.152  0.00  0.00    +0.000 C 
ATOM     24  C   UNL     1       1.074   3.207  18.855  0.00  0.00    +0.000 C 
ATOM     25  C   UNL     1       1.471   3.981  17.601  0.00  0.00    +0.000 C 
ENDBRANCH  19  20
ENDBRANCH   4  19
TORSDOF 7
ENDMDL
