MODEL 1
REMARK VINA RESULT:      -9.2      0.000      0.000
REMARK  Name = 
REMARK  3 active torsions:
REMARK  status: ('A' for Active; 'I' for Inactive)
REMARK    1  A    between atoms: N_12  and  C_13
REMARK    2  A    between atoms: C_13  and  C_14
REMARK    3  A    between atoms: C_14  and  N_15
REMARK                            x       y       z     vdW  Elec       q    Type
REMARK                         _______ _______ _______ _____ _____    ______ ____
ROOT
ATOM      1  C   UNL     1       2.086   3.886  20.120  0.00  0.00    +0.000 A 
ATOM      2  C   UNL     1       1.568   3.114  19.087  0.00  0.00    +0.000 A 
ATOM      3  C   UNL     1       2.230   3.074  17.866  0.00  0.00    +0.000 A 
ATOM      4  C   UNL     1       3.403   3.797  17.648  0.00  0.00    +0.000 A 
ATOM      5  N   UNL     1       4.019   3.722  16.461  0.00  0.00    +0.000 NA
ATOM      6  C   UNL     1       5.157   4.441  16.267  0.00  0.00    +0.000 A 
ATOM      7  C   UNL     1       5.676   5.236  17.307  0.00  0.00    +0.000 A 
ATOM      8  N   UNL     1       5.057   5.293  18.518  0.00  0.00    +0.000 NA
ATOM      9  C   UNL     1       3.930   4.577  18.693  0.00  0.00    +0.000 A 
ATOM     10  C   UNL     1       3.262   4.612  19.906  0.00  0.00    +0.000 A 
ATOM     11  C   UNL     1       6.821   6.000  17.013  0.00  0.00    +0.000 A 
ATOM     12  N   UNL     1       7.224   6.987  17.917  0.00  0.00    +0.000 N 
ATOM     13  N   UNL     1       7.462   5.936  15.822  0.00  0.00    +0.000 NA
ATOM     14  C   UNL     1       6.973   5.152  14.857  0.00  0.00    +0.000 A 
ATOM     15  C   UNL     1       7.631   5.110  13.634  0.00  0.00    +0.000 A 
ATOM     16  C   UNL     1       7.152   4.349  12.563  0.00  0.00    +0.000 A 
ATOM     17  C   UNL     1       5.988   3.611  12.715  0.00  0.00    +0.000 A 
ATOM     18  C   UNL     1       5.320   3.634  13.937  0.00  0.00    +0.000 A 
ATOM     19  C   UNL     1       5.804   4.399  15.025  0.00  0.00    +0.000 A 
ATOM     20  H   UNL     1       7.215   6.729  18.900  0.00  0.00    +0.000 HD
ENDROOT
BRANCH  12  21
ATOM     21  C   UNL     1       8.179   7.986  17.471  0.00  0.00    +0.000 C 
BRANCH  21  22
ATOM     22  C   UNL     1       7.847   9.379  18.059  0.00  0.00    +0.000 C 
BRANCH  22  23
ATOM     23  N   UNL     1       8.982  10.318  18.228  0.00  0.00    +0.000 NA
ATOM     24  C   UNL     1       8.660  11.657  17.714  0.00  0.00    +0.000 C 
ATOM     25  C   UNL     1       9.843  12.613  17.871  0.00  0.00    +0.000 C 
ATOM     26  C   UNL     1      10.293  12.706  19.322  0.00  0.00    +0.000 C 
ATOM     27  C   UNL     1      10.546  11.315  19.886  0.00  0.00    +0.000 C 
ATOM     28  C   UNL     1       9.346  10.392  19.658  0.00  0.00    +0.000 C 
ENDBRANCH  22  23
ENDBRANCH  21  22
ENDBRANCH  12  21
TORSDOF 3
ENDMDL
MODEL 2
REMARK VINA RESULT:      -9.0      0.647      1.039
REMARK  Name = 
REMARK  3 active torsions:
REMARK  status: ('A' for Active; 'I' for Inactive)
REMARK    1  A    between atoms: N_12  and  C_13
REMARK    2  A    between atoms: C_13  and  C_14
REMARK    3  A    between atoms: C_14  and  N_15
REMARK                            x       y       z     vdW  Elec       q    Type
REMARK                         _______ _______ _______ _____ _____    ______ ____
ROOT
ATOM      1  C   UNL     1       1.751   4.373  20.296  0.00  0.00    +0.000 A 
ATOM      2  C   UNL     1       1.279   3.518  19.308  0.00  0.00    +0.000 A 
ATOM      3  C   UNL     1       1.982   3.395  18.116  0.00  0.00    +0.000 A 
ATOM      4  C   UNL     1       3.154   4.117  17.884  0.00  0.00    +0.000 A 
ATOM      5  N   UNL     1       3.810   3.962  16.727  0.00  0.00    +0.000 NA
ATOM      6  C   UNL     1       4.946   4.681  16.517  0.00  0.00    +0.000 A 
ATOM      7  C   UNL     1       5.419   5.560  17.511  0.00  0.00    +0.000 A 
ATOM      8  N   UNL     1       4.758   5.699  18.692  0.00  0.00    +0.000 NA
ATOM      9  C   UNL     1       3.634   4.982  18.883  0.00  0.00    +0.000 A 
ATOM     10  C   UNL     1       2.925   5.099  20.068  0.00  0.00    +0.000 A 
ATOM     11  C   UNL     1       6.564   6.316  17.198  0.00  0.00    +0.000 A 
ATOM     12  N   UNL     1       6.923   7.375  18.037  0.00  0.00    +0.000 N 
ATOM     13  N   UNL     1       7.246   6.173  16.037  0.00  0.00    +0.000 NA
ATOM     14  C   UNL     1       6.800   5.311  15.119  0.00  0.00    +0.000 A 
ATOM     15  C   UNL     1       7.501   5.186  13.925  0.00  0.00    +0.000 A 
ATOM     16  C   UNL     1       7.069   4.340  12.900  0.00  0.00    +0.000 A 
ATOM     17  C   UNL     1       5.908   3.598  13.068  0.00  0.00    +0.000 A 
ATOM     18  C   UNL     1       5.199   3.703  14.262  0.00  0.00    +0.000 A 
ATOM     19  C   UNL     1       5.636   4.556  15.304  0.00  0.00    +0.000 A 
ATOM     20  H   UNL     1       6.883   7.192  19.036  0.00  0.00    +0.000 HD
ENDROOT
BRANCH  12  21
ATOM     21  C   UNL     1       7.881   8.352  17.549  0.00  0.00    +0.000 C 
BRANCH  21  22
ATOM     22  C   UNL     1       8.796   8.858  18.690  0.00  0.00    +0.000 C 
BRANCH  22  23
ATOM     23  N   UNL     1       8.904  10.327  18.855  0.00  0.00    +0.000 NA
ATOM     24  C   UNL     1       9.260  10.694  20.233  0.00  0.00    +0.000 C 
ATOM     25  C   UNL     1       9.347  12.211  20.401  0.00  0.00    +0.000 C 
ATOM     26  C   UNL     1      10.343  12.822  19.426  0.00  0.00    +0.000 C 
ATOM     27  C   UNL     1      10.030  12.376  18.004  0.00  0.00    +0.000 C 
ATOM     28  C   UNL     1       9.910  10.852  17.909  0.00  0.00    +0.000 C 
ENDBRANCH  22  23
ENDBRANCH  21  22
ENDBRANCH  12  21
TORSDOF 3
ENDMDL
MODEL 3
REMARK VINA RESULT:      -8.7      1.040      4.629
REMARK  Name = 
REMARK  3 active torsions:
REMARK  status: ('A' for Active; 'I' for Inactive)
REMARK    1  A    between atoms: N_12  and  C_13
REMARK    2  A    between atoms: C_13  and  C_14
REMARK    3  A    between atoms: C_14  and  N_15
REMARK                            x       y       z     vdW  Elec       q    Type
REMARK                         _______ _______ _______ _____ _____    ______ ____
ROOT
ATOM      1  C   UNL     1       7.487   4.044  11.571  0.00  0.00    +0.000 A 
ATOM      2  C   UNL     1       6.514   3.065  11.718  0.00  0.00    +0.000 A 
ATOM      3  C   UNL     1       5.769   3.010  12.890  0.00  0.00    +0.000 A 
ATOM      4  C   UNL     1       5.980   3.915  13.930  0.00  0.00    +0.000 A 
ATOM      5  N   UNL     1       5.234   3.837  15.040  0.00  0.00    +0.000 NA
ATOM      6  C   UNL     1       5.461   4.724  16.045  0.00  0.00    +0.000 A 
ATOM      7  C   UNL     1       6.458   5.709  15.906  0.00  0.00    +0.000 A 
ATOM      8  N   UNL     1       7.200   5.795  14.769  0.00  0.00    +0.000 NA
ATOM      9  C   UNL     1       6.964   4.908  13.784  0.00  0.00    +0.000 A 
ATOM     10  C   UNL     1       7.702   4.954  12.612  0.00  0.00    +0.000 A 
ATOM     11  C   UNL     1       6.678   6.551  17.013  0.00  0.00    +0.000 A 
ATOM     12  N   UNL     1       7.812   7.368  17.022  0.00  0.00    +0.000 N 
ATOM     13  N   UNL     1       5.933   6.493  18.141  0.00  0.00    +0.000 NA
ATOM     14  C   UNL     1       4.971   5.572  18.243  0.00  0.00    +0.000 A 
ATOM     15  C   UNL     1       4.224   5.513  19.415  0.00  0.00    +0.000 A 
ATOM     16  C   UNL     1       3.233   4.547  19.611  0.00  0.00    +0.000 A 
ATOM     17  C   UNL     1       2.978   3.616  18.615  0.00  0.00    +0.000 A 
ATOM     18  C   UNL     1       3.709   3.667  17.431  0.00  0.00    +0.000 A 
ATOM     19  C   UNL     1       4.711   4.645  17.226  0.00  0.00    +0.000 A 
ATOM     20  H   UNL     1       8.021   7.860  16.157  0.00  0.00    +0.000 HD
ENDROOT
BRANCH  12  21
ATOM     21  C   UNL     1       8.220   7.972  18.279  0.00  0.00    +0.000 C 
BRANCH  21  22
ATOM     22  C   UNL     1       8.254   9.516  18.174  0.00  0.00    +0.000 C 
BRANCH  22  23
ATOM     23  N   UNL     1       9.452  10.194  18.723  0.00  0.00    +0.000 NA
ATOM     24  C   UNL     1       9.974  11.208  17.796  0.00  0.00    +0.000 C 
ATOM     25  C   UNL     1      11.223  11.887  18.360  0.00  0.00    +0.000 C 
ATOM     26  C   UNL     1      10.948  12.516  19.719  0.00  0.00    +0.000 C 
ATOM     27  C   UNL     1      10.327  11.491  20.659  0.00  0.00    +0.000 C 
ATOM     28  C   UNL     1       9.110  10.814  20.020  0.00  0.00    +0.000 C 
ENDBRANCH  22  23
ENDBRANCH  21  22
ENDBRANCH  12  21
TORSDOF 3
ENDMDL
MODEL 4
REMARK VINA RESULT:      -8.2      3.294      6.144
REMARK  Name = 
REMARK  3 active torsions:
REMARK  status: ('A' for Active; 'I' for Inactive)
REMARK    1  A    between atoms: N_12  and  C_13
REMARK    2  A    between atoms: C_13  and  C_14
REMARK    3  A    between atoms: C_14  and  N_15
REMARK                            x       y       z     vdW  Elec       q    Type
REMARK                         _______ _______ _______ _____ _____    ______ ____
ROOT
ATOM      1  C   UNL     1       0.568  11.045  19.217  0.00  0.00    +0.000 A 
ATOM      2  C   UNL     1      -0.058  10.498  20.330  0.00  0.00    +0.000 A 
ATOM      3  C   UNL     1       0.248   9.199  20.718  0.00  0.00    +0.000 A 
ATOM      4  C   UNL     1       1.168   8.425  20.009  0.00  0.00    +0.000 A 
ATOM      5  N   UNL     1       1.445   7.181  20.421  0.00  0.00    +0.000 NA
ATOM      6  C   UNL     1       2.339   6.440  19.713  0.00  0.00    +0.000 A 
ATOM      7  C   UNL     1       2.964   6.987  18.574  0.00  0.00    +0.000 A 
ATOM      8  N   UNL     1       2.692   8.258  18.172  0.00  0.00    +0.000 NA
ATOM      9  C   UNL     1       1.803   8.977  18.883  0.00  0.00    +0.000 A 
ATOM     10  C   UNL     1       1.491  10.273  18.504  0.00  0.00    +0.000 A 
ATOM     11  C   UNL     1       3.828   6.140  17.856  0.00  0.00    +0.000 A 
ATOM     12  N   UNL     1       4.272   6.543  16.593  0.00  0.00    +0.000 N 
ATOM     13  N   UNL     1       4.127   4.881  18.256  0.00  0.00    +0.000 NA
ATOM     14  C   UNL     1       3.549   4.391  19.356  0.00  0.00    +0.000 A 
ATOM     15  C   UNL     1       3.851   3.091  19.746  0.00  0.00    +0.000 A 
ATOM     16  C   UNL     1       3.250   2.496  20.859  0.00  0.00    +0.000 A 
ATOM     17  C   UNL     1       2.324   3.211  21.602  0.00  0.00    +0.000 A 
ATOM     18  C   UNL     1       2.016   4.519  21.232  0.00  0.00    +0.000 A 
ATOM     19  C   UNL     1       2.625   5.128  20.109  0.00  0.00    +0.000 A 
ATOM     20  H   UNL     1       4.574   7.510  16.509  0.00  0.00    +0.000 HD
ENDROOT
BRANCH  12  21
ATOM     21  C   UNL     1       4.873   5.550  15.720  0.00  0.00    +0.000 C 
BRANCH  21  22
ATOM     22  C   UNL     1       6.332   5.925  15.367  0.00  0.00    +0.000 C 
BRANCH  22  23
ATOM     23  N   UNL     1       7.305   5.936  16.486  0.00  0.00    +0.000 NA
ATOM     24  C   UNL     1       7.118   7.105  17.357  0.00  0.00    +0.000 C 
ATOM     25  C   UNL     1       8.140   7.121  18.495  0.00  0.00    +0.000 C 
ATOM     26  C   UNL     1       8.076   5.842  19.318  0.00  0.00    +0.000 C 
ATOM     27  C   UNL     1       8.184   4.624  18.410  0.00  0.00    +0.000 C 
ATOM     28  C   UNL     1       7.167   4.689  17.265  0.00  0.00    +0.000 C 
ENDBRANCH  22  23
ENDBRANCH  21  22
ENDBRANCH  12  21
TORSDOF 3
ENDMDL
MODEL 5
REMARK VINA RESULT:      -8.1      4.176      7.102
REMARK  Name = 
REMARK  3 active torsions:
REMARK  status: ('A' for Active; 'I' for Inactive)
REMARK    1  A    between atoms: N_12  and  C_13
REMARK    2  A    between atoms: C_13  and  C_14
REMARK    3  A    between atoms: C_14  and  N_15
REMARK                            x       y       z     vdW  Elec       q    Type
REMARK                         _______ _______ _______ _____ _____    ______ ____
ROOT
ATOM      1  C   UNL     1       1.162  10.774  18.691  0.00  0.00    +0.000 A 
ATOM      2  C   UNL     1       0.496  10.430  19.860  0.00  0.00    +0.000 A 
ATOM      3  C   UNL     1       0.674   9.162  20.400  0.00  0.00    +0.000 A 
ATOM      4  C   UNL     1       1.505   8.221  19.791  0.00  0.00    +0.000 A 
ATOM      5  N   UNL     1       1.660   7.012  20.349  0.00  0.00    +0.000 NA
ATOM      6  C   UNL     1       2.468   6.107  19.736  0.00  0.00    +0.000 A 
ATOM      7  C   UNL     1       3.134   6.448  18.542  0.00  0.00    +0.000 A 
ATOM      8  N   UNL     1       2.987   7.683  17.990  0.00  0.00    +0.000 NA
ATOM      9  C   UNL     1       2.181   8.568  18.609  0.00  0.00    +0.000 A 
ATOM     10  C   UNL     1       1.996   9.834  18.077  0.00  0.00    +0.000 A 
ATOM     11  C   UNL     1       3.902   5.440  17.932  0.00  0.00    +0.000 A 
ATOM     12  N   UNL     1       4.371   5.643  16.631  0.00  0.00    +0.000 N 
ATOM     13  N   UNL     1       4.077   4.214  18.480  0.00  0.00    +0.000 NA
ATOM     14  C   UNL     1       3.463   3.919  19.629  0.00  0.00    +0.000 A 
ATOM     15  C   UNL     1       3.638   2.651  20.172  0.00  0.00    +0.000 A 
ATOM     16  C   UNL     1       2.991   2.255  21.346  0.00  0.00    +0.000 A 
ATOM     17  C   UNL     1       2.148   3.143  21.997  0.00  0.00    +0.000 A 
ATOM     18  C   UNL     1       1.969   4.422  21.473  0.00  0.00    +0.000 A 
ATOM     19  C   UNL     1       2.626   4.828  20.287  0.00  0.00    +0.000 A 
ATOM     20  H   UNL     1       4.768   6.558  16.433  0.00  0.00    +0.000 HD
ENDROOT
BRANCH  12  21
ATOM     21  C   UNL     1       4.862   4.498  15.884  0.00  0.00    +0.000 C 
BRANCH  21  22
ATOM     22  C   UNL     1       6.407   4.503  15.803  0.00  0.00    +0.000 C 
BRANCH  22  23
ATOM     23  N   UNL     1       7.004   4.295  14.462  0.00  0.00    +0.000 NA
ATOM     24  C   UNL     1       6.020   3.763  13.507  0.00  0.00    +0.000 C 
ATOM     25  C   UNL     1       6.649   3.529  12.132  0.00  0.00    +0.000 C 
ATOM     26  C   UNL     1       7.273   4.804  11.582  0.00  0.00    +0.000 C 
ATOM     27  C   UNL     1       8.230   5.406  12.603  0.00  0.00    +0.000 C 
ATOM     28  C   UNL     1       7.557   5.573  13.969  0.00  0.00    +0.000 C 
ENDBRANCH  22  23
ENDBRANCH  21  22
ENDBRANCH  12  21
TORSDOF 3
ENDMDL
MODEL 6
REMARK VINA RESULT:      -7.9      4.306      7.530
REMARK  Name = 
REMARK  3 active torsions:
REMARK  status: ('A' for Active; 'I' for Inactive)
REMARK    1  A    between atoms: N_12  and  C_13
REMARK    2  A    between atoms: C_13  and  C_14
REMARK    3  A    between atoms: C_14  and  N_15
REMARK                            x       y       z     vdW  Elec       q    Type
REMARK                         _______ _______ _______ _____ _____    ______ ____
ROOT
ATOM      1  C   UNL     1       6.272   5.606  14.579  0.00  0.00    +0.000 A 
ATOM      2  C   UNL     1       6.609   4.292  14.881  0.00  0.00    +0.000 A 
ATOM      3  C   UNL     1       6.027   3.672  15.980  0.00  0.00    +0.000 A 
ATOM      4  C   UNL     1       5.114   4.342  16.795  0.00  0.00    +0.000 A 
ATOM      5  N   UNL     1       4.565   3.706  17.838  0.00  0.00    +0.000 NA
ATOM      6  C   UNL     1       3.683   4.378  18.625  0.00  0.00    +0.000 A 
ATOM      7  C   UNL     1       3.351   5.716  18.331  0.00  0.00    +0.000 A 
ATOM      8  N   UNL     1       3.897   6.350  17.258  0.00  0.00    +0.000 NA
ATOM      9  C   UNL     1       4.771   5.671  16.491  0.00  0.00    +0.000 A 
ATOM     10  C   UNL     1       5.357   6.281  15.393  0.00  0.00    +0.000 A 
ATOM     11  C   UNL     1       2.481   6.366  19.225  0.00  0.00    +0.000 A 
ATOM     12  N   UNL     1       2.321   7.751  19.123  0.00  0.00    +0.000 N 
ATOM     13  N   UNL     1       1.911   5.742  20.283  0.00  0.00    +0.000 NA
ATOM     14  C   UNL     1       2.213   4.464  20.528  0.00  0.00    +0.000 A 
ATOM     15  C   UNL     1       1.633   3.841  21.628  0.00  0.00    +0.000 A 
ATOM     16  C   UNL     1       1.938   2.521  21.973  0.00  0.00    +0.000 A 
ATOM     17  C   UNL     1       2.842   1.803  21.205  0.00  0.00    +0.000 A 
ATOM     18  C   UNL     1       3.424   2.408  20.094  0.00  0.00    +0.000 A 
ATOM     19  C   UNL     1       3.116   3.743  19.737  0.00  0.00    +0.000 A 
ATOM     20  H   UNL     1       2.207   8.124  18.185  0.00  0.00    +0.000 HD
ENDROOT
BRANCH  12  21
ATOM     21  C   UNL     1       1.706   8.461  20.232  0.00  0.00    +0.000 C 
BRANCH  21  22
ATOM     22  C   UNL     1       0.800   9.609  19.727  0.00  0.00    +0.000 C 
BRANCH  22  23
ATOM     23  N   UNL     1      -0.213  10.125  20.678  0.00  0.00    +0.000 NA
ATOM     24  C   UNL     1       0.229   9.981  22.073  0.00  0.00    +0.000 C 
ATOM     25  C   UNL     1      -0.831  10.494  23.049  0.00  0.00    +0.000 C 
ATOM     26  C   UNL     1      -1.192  11.945  22.765  0.00  0.00    +0.000 C 
ATOM     27  C   UNL     1      -1.569  12.118  21.299  0.00  0.00    +0.000 C 
ATOM     28  C   UNL     1      -0.491  11.544  20.374  0.00  0.00    +0.000 C 
ENDBRANCH  22  23
ENDBRANCH  21  22
ENDBRANCH  12  21
TORSDOF 3
ENDMDL
MODEL 7
REMARK VINA RESULT:      -7.7      1.162      4.719
REMARK  Name = 
REMARK  3 active torsions:
REMARK  status: ('A' for Active; 'I' for Inactive)
REMARK    1  A    between atoms: N_12  and  C_13
REMARK    2  A    between atoms: C_13  and  C_14
REMARK    3  A    between atoms: C_14  and  N_15
REMARK                            x       y       z     vdW  Elec       q    Type
REMARK                         _______ _______ _______ _____ _____    ______ ____
ROOT
ATOM      1  C   UNL     1       7.493   4.083  11.559  0.00  0.00    +0.000 A 
ATOM      2  C   UNL     1       6.619   3.028  11.783  0.00  0.00    +0.000 A 
ATOM      3  C   UNL     1       5.947   2.943  12.997  0.00  0.00    +0.000 A 
ATOM      4  C   UNL     1       6.134   3.892  14.001  0.00  0.00    +0.000 A 
ATOM      5  N   UNL     1       5.458   3.782  15.153  0.00  0.00    +0.000 NA
ATOM      6  C   UNL     1       5.660   4.714  16.123  0.00  0.00    +0.000 A 
ATOM      7  C   UNL     1       6.559   5.778  15.904  0.00  0.00    +0.000 A 
ATOM      8  N   UNL     1       7.228   5.895  14.725  0.00  0.00    +0.000 NA
ATOM      9  C   UNL     1       7.017   4.962  13.776  0.00  0.00    +0.000 A 
ATOM     10  C   UNL     1       7.684   5.038  12.564  0.00  0.00    +0.000 A 
ATOM     11  C   UNL     1       6.764   6.667  16.975  0.00  0.00    +0.000 A 
ATOM     12  N   UNL     1       7.820   7.579  16.901  0.00  0.00    +0.000 N 
ATOM     13  N   UNL     1       6.088   6.577  18.146  0.00  0.00    +0.000 NA
ATOM     14  C   UNL     1       5.218   5.580  18.323  0.00  0.00    +0.000 A 
ATOM     15  C   UNL     1       4.544   5.491  19.536  0.00  0.00    +0.000 A 
ATOM     16  C   UNL     1       3.653   4.450  19.811  0.00  0.00    +0.000 A 
ATOM     17  C   UNL     1       3.427   3.471  18.855  0.00  0.00    +0.000 A 
ATOM     18  C   UNL     1       4.085   3.550  17.630  0.00  0.00    +0.000 A 
ATOM     19  C   UNL     1       4.985   4.606  17.345  0.00  0.00    +0.000 A 
ATOM     20  H   UNL     1       7.938   8.062  16.014  0.00  0.00    +0.000 HD
ENDROOT
BRANCH  12  21
ATOM     21  C   UNL     1       8.241   8.252  18.118  0.00  0.00    +0.000 C 
BRANCH  21  22
ATOM     22  C   UNL     1       7.837   9.745  18.101  0.00  0.00    +0.000 C 
BRANCH  22  23
ATOM     23  N   UNL     1       8.853  10.715  18.575  0.00  0.00    +0.000 NA
ATOM     24  C   UNL     1       9.299  10.410  19.942  0.00  0.00    +0.000 C 
ATOM     25  C   UNL     1      10.329  11.429  20.432  0.00  0.00    +0.000 C 
ATOM     26  C   UNL     1      11.528  11.500  19.497  0.00  0.00    +0.000 C 
ATOM     27  C   UNL     1      11.067  11.731  18.064  0.00  0.00    +0.000 C 
ATOM     28  C   UNL     1      10.003  10.710  17.648  0.00  0.00    +0.000 C 
ENDBRANCH  22  23
ENDBRANCH  21  22
ENDBRANCH  12  21
TORSDOF 3
ENDMDL
MODEL 8
REMARK VINA RESULT:      -7.7      4.012      7.225
REMARK  Name = 
REMARK  3 active torsions:
REMARK  status: ('A' for Active; 'I' for Inactive)
REMARK    1  A    between atoms: N_12  and  C_13
REMARK    2  A    between atoms: C_13  and  C_14
REMARK    3  A    between atoms: C_14  and  N_15
REMARK                            x       y       z     vdW  Elec       q    Type
REMARK                         _______ _______ _______ _____ _____    ______ ____
ROOT
ATOM      1  C   UNL     1       1.077  10.902  18.586  0.00  0.00    +0.000 A 
ATOM      2  C   UNL     1       0.243  10.474  19.611  0.00  0.00    +0.000 A 
ATOM      3  C   UNL     1       0.400   9.195  20.131  0.00  0.00    +0.000 A 
ATOM      4  C   UNL     1       1.374   8.324  19.643  0.00  0.00    +0.000 A 
ATOM      5  N   UNL     1       1.501   7.102  20.178  0.00  0.00    +0.000 NA
ATOM      6  C   UNL     1       2.452   6.266  19.683  0.00  0.00    +0.000 A 
ATOM      7  C   UNL     1       3.289   6.691  18.632  0.00  0.00    +0.000 A 
ATOM      8  N   UNL     1       3.167   7.940  18.105  0.00  0.00    +0.000 NA
ATOM      9  C   UNL     1       2.219   8.755  18.606  0.00  0.00    +0.000 A 
ATOM     10  C   UNL     1       2.055  10.032  18.093  0.00  0.00    +0.000 A 
ATOM     11  C   UNL     1       4.206   5.750  18.129  0.00  0.00    +0.000 A 
ATOM     12  N   UNL     1       4.876   6.032  16.935  0.00  0.00    +0.000 N 
ATOM     13  N   UNL     1       4.355   4.512  18.658  0.00  0.00    +0.000 NA
ATOM     14  C   UNL     1       3.574   4.138  19.675  0.00  0.00    +0.000 A 
ATOM     15  C   UNL     1       3.727   2.858  20.197  0.00  0.00    +0.000 A 
ATOM     16  C   UNL     1       2.915   2.380  21.229  0.00  0.00    +0.000 A 
ATOM     17  C   UNL     1       1.924   3.197  21.755  0.00  0.00    +0.000 A 
ATOM     18  C   UNL     1       1.764   4.485  21.252  0.00  0.00    +0.000 A 
ATOM     19  C   UNL     1       2.587   4.975  20.209  0.00  0.00    +0.000 A 
ATOM     20  H   UNL     1       5.247   6.974  16.838  0.00  0.00    +0.000 HD
ENDROOT
BRANCH  12  21
ATOM     21  C   UNL     1       5.550   4.946  16.245  0.00  0.00    +0.000 C 
BRANCH  21  22
ATOM     22  C   UNL     1       6.613   5.485  15.258  0.00  0.00    +0.000 C 
BRANCH  22  23
ATOM     23  N   UNL     1       6.471   5.076  13.840  0.00  0.00    +0.000 NA
ATOM     24  C   UNL     1       7.764   5.085  13.141  0.00  0.00    +0.000 C 
ATOM     25  C   UNL     1       7.606   4.685  11.673  0.00  0.00    +0.000 C 
ATOM     26  C   UNL     1       6.950   3.318  11.537  0.00  0.00    +0.000 C 
ATOM     27  C   UNL     1       5.651   3.276  12.330  0.00  0.00    +0.000 C 
ATOM     28  C   UNL     1       5.865   3.731  13.777  0.00  0.00    +0.000 C 
ENDBRANCH  22  23
ENDBRANCH  21  22
ENDBRANCH  12  21
TORSDOF 3
ENDMDL
MODEL 9
REMARK VINA RESULT:      -7.7      4.361      7.517
REMARK  Name = 
REMARK  3 active torsions:
REMARK  status: ('A' for Active; 'I' for Inactive)
REMARK    1  A    between atoms: N_12  and  C_13
REMARK    2  A    between atoms: C_13  and  C_14
REMARK    3  A    between atoms: C_14  and  N_15
REMARK                            x       y       z     vdW  Elec       q    Type
REMARK                         _______ _______ _______ _____ _____    ______ ____
ROOT
ATOM      1  C   UNL     1       6.466   5.548  14.445  0.00  0.00    +0.000 A 
ATOM      2  C   UNL     1       6.853   4.278  14.855  0.00  0.00    +0.000 A 
ATOM      3  C   UNL     1       6.270   3.717  15.984  0.00  0.00    +0.000 A 
ATOM      4  C   UNL     1       5.306   4.403  16.724  0.00  0.00    +0.000 A 
ATOM      5  N   UNL     1       4.758   3.823  17.800  0.00  0.00    +0.000 NA
ATOM      6  C   UNL     1       3.826   4.511  18.512  0.00  0.00    +0.000 A 
ATOM      7  C   UNL     1       3.443   5.805  18.108  0.00  0.00    +0.000 A 
ATOM      8  N   UNL     1       3.988   6.382  17.003  0.00  0.00    +0.000 NA
ATOM      9  C   UNL     1       4.912   5.687  16.310  0.00  0.00    +0.000 A 
ATOM     10  C   UNL     1       5.500   6.239  15.183  0.00  0.00    +0.000 A 
ATOM     11  C   UNL     1       2.520   6.480  18.929  0.00  0.00    +0.000 A 
ATOM     12  N   UNL     1       2.301   7.844  18.717  0.00  0.00    +0.000 N 
ATOM     13  N   UNL     1       1.950   5.912  20.018  0.00  0.00    +0.000 NA
ATOM     14  C   UNL     1       2.303   4.672  20.368  0.00  0.00    +0.000 A 
ATOM     15  C   UNL     1       1.723   4.107  21.498  0.00  0.00    +0.000 A 
ATOM     16  C   UNL     1       2.076   2.833  21.951  0.00  0.00    +0.000 A 
ATOM     17  C   UNL     1       3.032   2.102  21.262  0.00  0.00    +0.000 A 
ATOM     18  C   UNL     1       3.616   2.648  20.121  0.00  0.00    +0.000 A 
ATOM     19  C   UNL     1       3.258   3.936  19.656  0.00  0.00    +0.000 A 
ATOM     20  H   UNL     1       2.196   8.140  17.750  0.00  0.00    +0.000 HD
ENDROOT
BRANCH  12  21
ATOM     21  C   UNL     1       1.625   8.607  19.752  0.00  0.00    +0.000 C 
BRANCH  21  22
ATOM     22  C   UNL     1       1.328  10.050  19.281  0.00  0.00    +0.000 C 
BRANCH  22  23
ATOM     23  N   UNL     1      -0.095  10.396  19.052  0.00  0.00    +0.000 NA
ATOM     24  C   UNL     1      -0.299  11.851  19.004  0.00  0.00    +0.000 C 
ATOM     25  C   UNL     1      -1.773  12.200  18.791  0.00  0.00    +0.000 C 
ATOM     26  C   UNL     1      -2.319  11.555  17.525  0.00  0.00    +0.000 C 
ATOM     27  C   UNL     1      -2.034  10.059  17.529  0.00  0.00    +0.000 C 
ATOM     28  C   UNL     1      -0.553   9.773  17.793  0.00  0.00    +0.000 C 
ENDBRANCH  22  23
ENDBRANCH  21  22
ENDBRANCH  12  21
TORSDOF 3
ENDMDL
