MODEL 1
REMARK VINA RESULT:      -7.1      0.000      0.000
REMARK  Name = 
REMARK  3 active torsions:
REMARK  status: ('A' for Active; 'I' for Inactive)
REMARK    1  A    between atoms: C_1  and  N_2
REMARK    2  A    between atoms: C_4  and  C_5
REMARK    3  A    between atoms: C_5  and  C_7
REMARK                            x       y       z     vdW  Elec       q    Type
REMARK                         _______ _______ _______ _____ _____    ______ ____
ROOT
ATOM      1  C   UNL     1       3.776   6.399  18.100  0.00  0.00    +0.000 C 
ATOM      2  N   UNL     1       3.608   4.962  18.040  0.00  0.00    +0.000 N 
ATOM      3  C   UNL     1       4.246   4.013  17.233  0.00  0.00    +0.000 C 
ATOM      4  C   UNL     1       5.233   4.063  16.323  0.00  0.00    +0.000 C 
ATOM      5  S   UNL     1       3.591   2.336  17.494  0.00  0.00    +0.000 S 
ATOM      6  C   UNL     1       2.519   2.982  18.762  0.00  0.00    +0.000 A 
ATOM      7  C   UNL     1       1.634   2.237  19.531  0.00  0.00    +0.000 A 
ATOM      8  C   UNL     1       0.860   2.898  20.482  0.00  0.00    +0.000 A 
ATOM      9  C   UNL     1       0.982   4.282  20.651  0.00  0.00    +0.000 A 
ATOM     10  C   UNL     1       1.881   5.020  19.872  0.00  0.00    +0.000 A 
ATOM     11  C   UNL     1       2.660   4.375  18.911  0.00  0.00    +0.000 A 
ENDROOT
BRANCH   4  12
ATOM     12  C   UNL     1       6.101   5.186  15.865  0.00  0.00    +0.000 C 
ATOM     13  O   UNL     1       6.053   5.567  14.697  0.00  0.00    +0.000 OA
BRANCH  12  14
ATOM     14  C   UNL     1       6.891   5.910  16.867  0.00  0.00    +0.000 A 
ATOM     15  C   UNL     1       7.217   7.255  16.835  0.00  0.00    +0.000 A 
ATOM     16  C   UNL     1       7.915   7.683  18.002  0.00  0.00    +0.000 A 
ATOM     17  C   UNL     1       8.156   6.639  18.866  0.00  0.00    +0.000 A 
ATOM     18  S   UNL     1       7.565   5.157  18.254  0.00  0.00    +0.000 S 
ENDBRANCH  12  14
ENDBRANCH   4  12
TORSDOF 2
ENDMDL
MODEL 2
REMARK VINA RESULT:      -6.9      2.259      3.334
REMARK  Name = 
REMARK  3 active torsions:
REMARK  status: ('A' for Active; 'I' for Inactive)
REMARK    1  A    between atoms: C_1  and  N_2
REMARK    2  A    between atoms: C_4  and  C_5
REMARK    3  A    between atoms: C_5  and  C_7
REMARK                            x       y       z     vdW  Elec       q    Type
REMARK                         _______ _______ _______ _____ _____    ______ ____
ROOT
ATOM      1  C   UNL     1       4.479   7.004  17.253  0.00  0.00    +0.000 C 
ATOM      2  N   UNL     1       4.251   5.665  17.754  0.00  0.00    +0.000 N 
ATOM      3  C   UNL     1       4.813   4.447  17.354  0.00  0.00    +0.000 C 
ATOM      4  C   UNL     1       5.758   4.092  16.467  0.00  0.00    +0.000 C 
ATOM      5  S   UNL     1       4.105   3.035  18.257  0.00  0.00    +0.000 S 
ATOM      6  C   UNL     1       3.120   4.172  19.209  0.00  0.00    +0.000 A 
ATOM      7  C   UNL     1       2.243   3.826  20.230  0.00  0.00    +0.000 A 
ATOM      8  C   UNL     1       1.541   4.841  20.876  0.00  0.00    +0.000 A 
ATOM      9  C   UNL     1       1.726   6.176  20.498  0.00  0.00    +0.000 A 
ATOM     10  C   UNL     1       2.615   6.511  19.471  0.00  0.00    +0.000 A 
ATOM     11  C   UNL     1       3.322   5.507  18.810  0.00  0.00    +0.000 A 
ENDROOT
BRANCH   4  12
ATOM     12  C   UNL     1       6.648   4.906  15.590  0.00  0.00    +0.000 C 
ATOM     13  O   UNL     1       7.364   5.778  16.078  0.00  0.00    +0.000 OA
BRANCH  12  14
ATOM     14  C   UNL     1       6.755   4.541  14.174  0.00  0.00    +0.000 A 
ATOM     15  C   UNL     1       5.998   3.586  13.516  0.00  0.00    +0.000 A 
ATOM     16  C   UNL     1       6.272   3.529  12.118  0.00  0.00    +0.000 A 
ATOM     17  C   UNL     1       7.274   4.400  11.758  0.00  0.00    +0.000 A 
ATOM     18  S   UNL     1       7.890   5.255  13.103  0.00  0.00    +0.000 S 
ENDBRANCH  12  14
ENDBRANCH   4  12
TORSDOF 2
ENDMDL
MODEL 3
REMARK VINA RESULT:      -6.7      2.247      3.278
REMARK  Name = 
REMARK  3 active torsions:
REMARK  status: ('A' for Active; 'I' for Inactive)
REMARK    1  A    between atoms: C_1  and  N_2
REMARK    2  A    between atoms: C_4  and  C_5
REMARK    3  A    between atoms: C_5  and  C_7
REMARK                            x       y       z     vdW  Elec       q    Type
REMARK                         _______ _______ _______ _____ _____    ______ ____
ROOT
ATOM      1  C   UNL     1       4.333   7.035  17.088  0.00  0.00    +0.000 C 
ATOM      2  N   UNL     1       4.327   5.750  17.754  0.00  0.00    +0.000 N 
ATOM      3  C   UNL     1       5.078   4.598  17.495  0.00  0.00    +0.000 C 
ATOM      4  C   UNL     1       6.067   4.292  16.639  0.00  0.00    +0.000 C 
ATOM      5  S   UNL     1       4.611   3.214  18.579  0.00  0.00    +0.000 S 
ATOM      6  C   UNL     1       3.455   4.287  19.406  0.00  0.00    +0.000 A 
ATOM      7  C   UNL     1       2.646   3.935  20.480  0.00  0.00    +0.000 A 
ATOM      8  C   UNL     1       1.789   4.896  21.010  0.00  0.00    +0.000 A 
ATOM      9  C   UNL     1       1.754   6.186  20.468  0.00  0.00    +0.000 A 
ATOM     10  C   UNL     1       2.577   6.529  19.388  0.00  0.00    +0.000 A 
ATOM     11  C   UNL     1       3.437   5.577  18.841  0.00  0.00    +0.000 A 
ENDROOT
BRANCH   4  12
ATOM     12  C   UNL     1       6.812   5.123  15.649  0.00  0.00    +0.000 C 
ATOM     13  O   UNL     1       7.516   6.056  16.032  0.00  0.00    +0.000 OA
BRANCH  12  14
ATOM     14  C   UNL     1       6.802   4.709  14.242  0.00  0.00    +0.000 A 
ATOM     15  C   UNL     1       7.679   5.133  13.258  0.00  0.00    +0.000 A 
ATOM     16  C   UNL     1       7.470   4.477  12.010  0.00  0.00    +0.000 A 
ATOM     17  C   UNL     1       6.401   3.613  12.059  0.00  0.00    +0.000 A 
ATOM     18  S   UNL     1       5.646   3.620  13.592  0.00  0.00    +0.000 S 
ENDBRANCH  12  14
ENDBRANCH   4  12
TORSDOF 2
ENDMDL
MODEL 4
REMARK VINA RESULT:      -6.4      2.131      3.243
REMARK  Name = 
REMARK  3 active torsions:
REMARK  status: ('A' for Active; 'I' for Inactive)
REMARK    1  A    between atoms: C_1  and  N_2
REMARK    2  A    between atoms: C_4  and  C_5
REMARK    3  A    between atoms: C_5  and  C_7
REMARK                            x       y       z     vdW  Elec       q    Type
REMARK                         _______ _______ _______ _____ _____    ______ ____
ROOT
ATOM      1  C   UNL     1       5.734   3.906  18.723  0.00  0.00    +0.000 C 
ATOM      2  N   UNL     1       4.467   4.607  18.752  0.00  0.00    +0.000 N 
ATOM      3  C   UNL     1       4.050   5.742  18.047  0.00  0.00    +0.000 C 
ATOM      4  C   UNL     1       4.601   6.514  17.096  0.00  0.00    +0.000 C 
ATOM      5  S   UNL     1       2.377   6.273  18.527  0.00  0.00    +0.000 S 
ATOM      6  C   UNL     1       2.275   4.872  19.620  0.00  0.00    +0.000 A 
ATOM      7  C   UNL     1       1.180   4.535  20.407  0.00  0.00    +0.000 A 
ATOM      8  C   UNL     1       1.264   3.403  21.215  0.00  0.00    +0.000 A 
ATOM      9  C   UNL     1       2.430   2.629  21.224  0.00  0.00    +0.000 A 
ATOM     10  C   UNL     1       3.525   2.977  20.424  0.00  0.00    +0.000 A 
ATOM     11  C   UNL     1       3.460   4.110  19.613  0.00  0.00    +0.000 A 
ENDROOT
BRANCH   4  12
ATOM     12  C   UNL     1       5.890   6.403  16.354  0.00  0.00    +0.000 C 
ATOM     13  O   UNL     1       6.874   7.039  16.728  0.00  0.00    +0.000 OA
BRANCH  12  14
ATOM     14  C   UNL     1       5.992   5.414  15.276  0.00  0.00    +0.000 A 
ATOM     15  C   UNL     1       5.008   4.518  14.893  0.00  0.00    +0.000 A 
ATOM     16  C   UNL     1       5.374   3.750  13.749  0.00  0.00    +0.000 A 
ATOM     17  C   UNL     1       6.651   4.039  13.326  0.00  0.00    +0.000 A 
ATOM     18  S   UNL     1       7.403   5.207  14.322  0.00  0.00    +0.000 S 
ENDBRANCH  12  14
ENDBRANCH   4  12
TORSDOF 2
ENDMDL
MODEL 5
REMARK VINA RESULT:      -6.3      3.707      4.833
REMARK  Name = 
REMARK  3 active torsions:
REMARK  status: ('A' for Active; 'I' for Inactive)
REMARK    1  A    between atoms: C_1  and  N_2
REMARK    2  A    between atoms: C_4  and  C_5
REMARK    3  A    between atoms: C_5  and  C_7
REMARK                            x       y       z     vdW  Elec       q    Type
REMARK                         _______ _______ _______ _____ _____    ______ ____
ROOT
ATOM      1  C   UNL     1       2.042   6.185  20.690  0.00  0.00    +0.000 C 
ATOM      2  N   UNL     1       1.916   7.348  19.837  0.00  0.00    +0.000 N 
ATOM      3  C   UNL     1       2.427   7.585  18.555  0.00  0.00    +0.000 C 
ATOM      4  C   UNL     1       3.119   6.851  17.668  0.00  0.00    +0.000 C 
ATOM      5  S   UNL     1       2.051   9.264  17.965  0.00  0.00    +0.000 S 
ATOM      6  C   UNL     1       1.136   9.557  19.464  0.00  0.00    +0.000 A 
ATOM      7  C   UNL     1       0.455  10.726  19.783  0.00  0.00    +0.000 A 
ATOM      8  C   UNL     1      -0.211  10.796  21.004  0.00  0.00    +0.000 A 
ATOM      9  C   UNL     1      -0.190   9.705  21.881  0.00  0.00    +0.000 A 
ATOM     10  C   UNL     1       0.497   8.532  21.546  0.00  0.00    +0.000 A 
ATOM     11  C   UNL     1       1.173   8.447  20.330  0.00  0.00    +0.000 A 
ENDROOT
BRANCH   4  12
ATOM     12  C   UNL     1       3.558   5.426  17.690  0.00  0.00    +0.000 C 
ATOM     13  O   UNL     1       2.724   4.523  17.670  0.00  0.00    +0.000 OA
BRANCH  12  14
ATOM     14  C   UNL     1       4.992   5.136  17.584  0.00  0.00    +0.000 A 
ATOM     15  C   UNL     1       5.669   4.762  16.435  0.00  0.00    +0.000 A 
ATOM     16  C   UNL     1       7.076   4.644  16.635  0.00  0.00    +0.000 A 
ATOM     17  C   UNL     1       7.427   4.874  17.945  0.00  0.00    +0.000 A 
ATOM     18  S   UNL     1       6.064   5.200  18.923  0.00  0.00    +0.000 S 
ENDBRANCH  12  14
ENDBRANCH   4  12
TORSDOF 2
ENDMDL
MODEL 6
REMARK VINA RESULT:      -6.2      2.473      3.868
REMARK  Name = 
REMARK  3 active torsions:
REMARK  status: ('A' for Active; 'I' for Inactive)
REMARK    1  A    between atoms: C_1  and  N_2
REMARK    2  A    between atoms: C_4  and  C_5
REMARK    3  A    between atoms: C_5  and  C_7
REMARK                            x       y       z     vdW  Elec       q    Type
REMARK                         _______ _______ _______ _____ _____    ______ ____
ROOT
ATOM      1  C   UNL     1       5.417   3.640  18.553  0.00  0.00    +0.000 C 
ATOM      2  N   UNL     1       4.778   4.918  18.318  0.00  0.00    +0.000 N 
ATOM      3  C   UNL     1       5.083   5.920  17.390  0.00  0.00    +0.000 C 
ATOM      4  C   UNL     1       5.975   6.039  16.392  0.00  0.00    +0.000 C 
ATOM      5  S   UNL     1       4.015   7.381  17.579  0.00  0.00    +0.000 S 
ATOM      6  C   UNL     1       3.132   6.534  18.873  0.00  0.00    +0.000 A 
ATOM      7  C   UNL     1       2.042   7.036  19.574  0.00  0.00    +0.000 A 
ATOM      8  C   UNL     1       1.466   6.244  20.564  0.00  0.00    +0.000 A 
ATOM      9  C   UNL     1       1.980   4.971  20.836  0.00  0.00    +0.000 A 
ATOM     10  C   UNL     1       3.076   4.476  20.120  0.00  0.00    +0.000 A 
ATOM     11  C   UNL     1       3.669   5.258  19.129  0.00  0.00    +0.000 A 
ENDROOT
BRANCH   4  12
ATOM     12  C   UNL     1       6.968   5.078  15.833  0.00  0.00    +0.000 C 
ATOM     13  O   UNL     1       7.868   4.636  16.545  0.00  0.00    +0.000 OA
BRANCH  12  14
ATOM     14  C   UNL     1       6.755   4.566  14.475  0.00  0.00    +0.000 A 
ATOM     15  C   UNL     1       5.739   3.716  14.071  0.00  0.00    +0.000 A 
ATOM     16  C   UNL     1       5.745   3.474  12.666  0.00  0.00    +0.000 A 
ATOM     17  C   UNL     1       6.802   4.098  12.044  0.00  0.00    +0.000 A 
ATOM     18  S   UNL     1       7.787   4.943  13.157  0.00  0.00    +0.000 S 
ENDBRANCH  12  14
ENDBRANCH   4  12
TORSDOF 2
ENDMDL
MODEL 7
REMARK VINA RESULT:      -6.1      3.498      5.662
REMARK  Name = 
REMARK  3 active torsions:
REMARK  status: ('A' for Active; 'I' for Inactive)
REMARK    1  A    between atoms: C_1  and  N_2
REMARK    2  A    between atoms: C_4  and  C_5
REMARK    3  A    between atoms: C_5  and  C_7
REMARK                            x       y       z     vdW  Elec       q    Type
REMARK                         _______ _______ _______ _____ _____    ______ ____
ROOT
ATOM      1  C   UNL     1       2.312   6.115  20.901  0.00  0.00    +0.000 C 
ATOM      2  N   UNL     1       2.101   7.173  19.936  0.00  0.00    +0.000 N 
ATOM      3  C   UNL     1       2.575   7.305  18.626  0.00  0.00    +0.000 C 
ATOM      4  C   UNL     1       3.295   6.524  17.803  0.00  0.00    +0.000 C 
ATOM      5  S   UNL     1       2.089   8.889  17.875  0.00  0.00    +0.000 S 
ATOM      6  C   UNL     1       1.183   9.282  19.356  0.00  0.00    +0.000 A 
ATOM      7  C   UNL     1       0.438  10.436  19.569  0.00  0.00    +0.000 A 
ATOM      8  C   UNL     1      -0.210  10.594  20.791  0.00  0.00    +0.000 A 
ATOM      9  C   UNL     1      -0.108   9.604  21.776  0.00  0.00    +0.000 A 
ATOM     10  C   UNL     1       0.642   8.444  21.547  0.00  0.00    +0.000 A 
ATOM     11  C   UNL     1       1.302   8.273  20.331  0.00  0.00    +0.000 A 
ENDROOT
BRANCH   4  12
ATOM     12  C   UNL     1       3.820   5.137  17.961  0.00  0.00    +0.000 C 
ATOM     13  O   UNL     1       5.027   4.920  17.873  0.00  0.00    +0.000 OA
BRANCH  12  14
ATOM     14  C   UNL     1       2.887   4.081  18.370  0.00  0.00    +0.000 A 
ATOM     15  C   UNL     1       1.557   3.977  18.001  0.00  0.00    +0.000 A 
ATOM     16  C   UNL     1       0.940   2.786  18.484  0.00  0.00    +0.000 A 
ATOM     17  C   UNL     1       1.800   2.043  19.259  0.00  0.00    +0.000 A 
ATOM     18  S   UNL     1       3.326   2.796  19.419  0.00  0.00    +0.000 S 
ENDBRANCH  12  14
ENDBRANCH   4  12
TORSDOF 2
ENDMDL
MODEL 8
REMARK VINA RESULT:      -6.1      2.196      6.007
REMARK  Name = 
REMARK  3 active torsions:
REMARK  status: ('A' for Active; 'I' for Inactive)
REMARK    1  A    between atoms: C_1  and  N_2
REMARK    2  A    between atoms: C_4  and  C_5
REMARK    3  A    between atoms: C_5  and  C_7
REMARK                            x       y       z     vdW  Elec       q    Type
REMARK                         _______ _______ _______ _____ _____    ______ ____
ROOT
ATOM      1  C   UNL     1       5.415   3.598  19.287  0.00  0.00    +0.000 C 
ATOM      2  N   UNL     1       5.273   4.722  18.386  0.00  0.00    +0.000 N 
ATOM      3  C   UNL     1       4.252   5.027  17.479  0.00  0.00    +0.000 C 
ATOM      4  C   UNL     1       3.068   4.469  17.173  0.00  0.00    +0.000 C 
ATOM      5  S   UNL     1       4.613   6.526  16.515  0.00  0.00    +0.000 S 
ATOM      6  C   UNL     1       6.117   6.730  17.445  0.00  0.00    +0.000 A 
ATOM      7  C   UNL     1       7.027   7.769  17.297  0.00  0.00    +0.000 A 
ATOM      8  C   UNL     1       8.163   7.779  18.104  0.00  0.00    +0.000 A 
ATOM      9  C   UNL     1       8.370   6.761  19.042  0.00  0.00    +0.000 A 
ATOM     10  C   UNL     1       7.443   5.722  19.183  0.00  0.00    +0.000 A 
ATOM     11  C   UNL     1       6.303   5.693  18.380  0.00  0.00    +0.000 A 
ENDROOT
BRANCH   4  12
ATOM     12  C   UNL     1       2.341   3.307  17.759  0.00  0.00    +0.000 C 
ATOM     13  O   UNL     1       2.103   2.316  17.070  0.00  0.00    +0.000 OA
BRANCH  12  14
ATOM     14  C   UNL     1       2.055   3.316  19.197  0.00  0.00    +0.000 A 
ATOM     15  C   UNL     1       1.851   2.205  19.999  0.00  0.00    +0.000 A 
ATOM     16  C   UNL     1       1.689   2.537  21.375  0.00  0.00    +0.000 A 
ATOM     17  C   UNL     1       1.713   3.897  21.579  0.00  0.00    +0.000 A 
ATOM     18  S   UNL     1       1.904   4.758  20.115  0.00  0.00    +0.000 S 
ENDBRANCH  12  14
ENDBRANCH   4  12
TORSDOF 2
ENDMDL
MODEL 9
REMARK VINA RESULT:      -6.1      4.910      7.222
REMARK  Name = 
REMARK  3 active torsions:
REMARK  status: ('A' for Active; 'I' for Inactive)
REMARK    1  A    between atoms: C_1  and  N_2
REMARK    2  A    between atoms: C_4  and  C_5
REMARK    3  A    between atoms: C_5  and  C_7
REMARK                            x       y       z     vdW  Elec       q    Type
REMARK                         _______ _______ _______ _____ _____    ______ ____
ROOT
ATOM      1  C   UNL     1       1.720   8.967  17.917  0.00  0.00    +0.000 C 
ATOM      2  N   UNL     1       1.341   9.205  19.294  0.00  0.00    +0.000 N 
ATOM      3  C   UNL     1       1.384   8.348  20.400  0.00  0.00    +0.000 C 
ATOM      4  C   UNL     1       1.826   7.096  20.604  0.00  0.00    +0.000 C 
ATOM      5  S   UNL     1       0.697   9.123  21.896  0.00  0.00    +0.000 S 
ATOM      6  C   UNL     1       0.447  10.624  20.971  0.00  0.00    +0.000 A 
ATOM      7  C   UNL     1      -0.071  11.810  21.476  0.00  0.00    +0.000 A 
ATOM      8  C   UNL     1      -0.207  12.897  20.615  0.00  0.00    +0.000 A 
ATOM      9  C   UNL     1       0.177  12.784  19.274  0.00  0.00    +0.000 A 
ATOM     10  C   UNL     1       0.701  11.585  18.779  0.00  0.00    +0.000 A 
ATOM     11  C   UNL     1       0.838  10.485  19.626  0.00  0.00    +0.000 A 
ENDROOT
BRANCH   4  12
ATOM     12  C   UNL     1       2.529   6.136  19.706  0.00  0.00    +0.000 C 
ATOM     13  O   UNL     1       3.636   6.415  19.249  0.00  0.00    +0.000 OA
BRANCH  12  14
ATOM     14  C   UNL     1       1.941   4.807  19.508  0.00  0.00    +0.000 A 
ATOM     15  C   UNL     1       1.347   4.022  20.482  0.00  0.00    +0.000 A 
ATOM     16  C   UNL     1       0.784   2.821  19.959  0.00  0.00    +0.000 A 
ATOM     17  C   UNL     1       1.016   2.694  18.609  0.00  0.00    +0.000 A 
ATOM     18  S   UNL     1       1.928   4.002  17.993  0.00  0.00    +0.000 S 
ENDBRANCH  12  14
ENDBRANCH   4  12
TORSDOF 2
ENDMDL
