MODEL 1
REMARK VINA RESULT:      -7.8      0.000      0.000
REMARK  Name = 
REMARK  7 active torsions:
REMARK  status: ('A' for Active; 'I' for Inactive)
REMARK    1  A    between atoms: C_1  and  C_2
REMARK    2  A    between atoms: C_2  and  N_3
REMARK    3  A    between atoms: C_11  and  S_12
REMARK    4  A    between atoms: S_12  and  N_15
REMARK    5  A    between atoms: N_15  and  C_16
REMARK    6  A    between atoms: C_16  and  C_17
REMARK    7  A    between atoms: C_21  and  C_22
REMARK                            x       y       z     vdW  Elec       q    Type
REMARK                         _______ _______ _______ _____ _____    ______ ____
ROOT
ATOM      1  N   UNL     1       5.664   4.480  14.920  0.00  0.00    +0.000 N 
ATOM      2  C   UNL     1       6.847   5.121  15.359  0.00  0.00    +0.000 C 
ATOM      3  O   UNL     1       7.759   5.513  14.648  0.00  0.00    +0.000 OA
ATOM      4  C   UNL     1       6.660   5.178  16.799  0.00  0.00    +0.000 A 
ATOM      5  C   UNL     1       7.485   5.705  17.788  0.00  0.00    +0.000 A 
ATOM      6  C   UNL     1       7.039   5.583  19.113  0.00  0.00    +0.000 A 
ATOM      7  C   UNL     1       5.803   4.977  19.433  0.00  0.00    +0.000 A 
ATOM      8  C   UNL     1       4.949   4.470  18.417  0.00  0.00    +0.000 A 
ATOM      9  C   UNL     1       3.661   3.872  18.488  0.00  0.00    +0.000 A 
ATOM     10  C   UNL     1       3.012   3.412  17.312  0.00  0.00    +0.000 A 
ATOM     11  C   UNL     1       3.588   3.547  16.035  0.00  0.00    +0.000 A 
ATOM     12  C   UNL     1       4.829   4.160  15.993  0.00  0.00    +0.000 A 
ATOM     13  C   UNL     1       5.447   4.599  17.145  0.00  0.00    +0.000 A 
ENDROOT
BRANCH   9  14
ATOM     14  S   UNL     1       2.806   3.701  20.043  0.00  0.00    +0.000 S 
ATOM     15  O   UNL     1       1.406   3.445  19.756  0.00  0.00    +0.000 OA
ATOM     16  O   UNL     1       3.581   2.811  20.888  0.00  0.00    +0.000 OA
BRANCH  14  17
ATOM     17  N   UNL     1       2.891   5.253  20.740  0.00  0.00    +0.000 NA
ATOM     18  H   UNL     1       3.693   5.792  20.413  0.00  0.00    +0.000 HD
BRANCH  17  19
ATOM     19  C   UNL     1       1.618   5.918  21.000  0.00  0.00    +0.000 C 
BRANCH  19  20
ATOM     20  C   UNL     1       1.362   7.192  20.194  0.00  0.00    +0.000 C 
ATOM     21  C   UNL     1       1.127   8.464  21.018  0.00  0.00    +0.000 C 
ATOM     22  C   UNL     1       0.573   9.557  20.093  0.00  0.00    +0.000 C 
ATOM     23  N   UNL     1       1.483   9.801  18.968  0.00  0.00    +0.000 N 
ATOM     24  C   UNL     1       1.860  11.040  18.472  0.00  0.00    +0.000 C 
ATOM     25  C   UNL     1       1.413  12.306  19.163  0.00  0.00    +0.000 C 
ATOM     26  O   UNL     1       2.580  11.148  17.474  0.00  0.00    +0.000 OA
ATOM     27  C   UNL     1       1.855   8.609  18.197  0.00  0.00    +0.000 C 
ATOM     28  C   UNL     1       2.399   7.499  19.106  0.00  0.00    +0.000 C 
ENDBRANCH  19  20
ENDBRANCH  17  19
ENDBRANCH  14  17
ENDBRANCH   9  14
BRANCH   1  30
ATOM     29  C   UNL     1       6.565   3.515  12.826  0.00  0.00    +0.000 C 
ATOM     30  C   UNL     1       5.401   4.200  13.523  0.00  0.00    +0.000 C 
ENDBRANCH   1  30
TORSDOF 5
ENDMDL
MODEL 2
REMARK VINA RESULT:      -7.7      1.603      1.961
REMARK  Name = 
REMARK  7 active torsions:
REMARK  status: ('A' for Active; 'I' for Inactive)
REMARK    1  A    between atoms: C_1  and  C_2
REMARK    2  A    between atoms: C_2  and  N_3
REMARK    3  A    between atoms: C_11  and  S_12
REMARK    4  A    between atoms: S_12  and  N_15
REMARK    5  A    between atoms: N_15  and  C_16
REMARK    6  A    between atoms: C_16  and  C_17
REMARK    7  A    between atoms: C_21  and  C_22
REMARK                            x       y       z     vdW  Elec       q    Type
REMARK                         _______ _______ _______ _____ _____    ______ ____
ROOT
ATOM      1  N   UNL     1       5.685   4.570  14.988  0.00  0.00    +0.000 N 
ATOM      2  C   UNL     1       6.901   5.121  15.456  0.00  0.00    +0.000 C 
ATOM      3  O   UNL     1       7.863   5.430  14.769  0.00  0.00    +0.000 OA
ATOM      4  C   UNL     1       6.677   5.214  16.889  0.00  0.00    +0.000 A 
ATOM      5  C   UNL     1       7.510   5.688  17.897  0.00  0.00    +0.000 A 
ATOM      6  C   UNL     1       7.016   5.620  19.209  0.00  0.00    +0.000 A 
ATOM      7  C   UNL     1       5.727   5.119  19.498  0.00  0.00    +0.000 A 
ATOM      8  C   UNL     1       4.867   4.666  18.461  0.00  0.00    +0.000 A 
ATOM      9  C   UNL     1       3.534   4.173  18.499  0.00  0.00    +0.000 A 
ATOM     10  C   UNL     1       2.886   3.749  17.309  0.00  0.00    +0.000 A 
ATOM     11  C   UNL     1       3.509   3.820  16.049  0.00  0.00    +0.000 A 
ATOM     12  C   UNL     1       4.795   4.332  16.039  0.00  0.00    +0.000 A 
ATOM     13  C   UNL     1       5.411   4.737  17.204  0.00  0.00    +0.000 A 
ENDROOT
BRANCH   9  14
ATOM     14  S   UNL     1       2.621   4.093  20.029  0.00  0.00    +0.000 S 
ATOM     15  O   UNL     1       1.241   3.779  19.708  0.00  0.00    +0.000 OA
ATOM     16  O   UNL     1       3.383   3.288  20.967  0.00  0.00    +0.000 OA
BRANCH  14  17
ATOM     17  N   UNL     1       2.641   5.693  20.612  0.00  0.00    +0.000 NA
ATOM     18  H   UNL     1       3.369   5.854  21.309  0.00  0.00    +0.000 HD
BRANCH  17  19
ATOM     19  C   UNL     1       2.305   6.738  19.650  0.00  0.00    +0.000 C 
BRANCH  19  20
ATOM     20  C   UNL     1       1.832   8.061  20.251  0.00  0.00    +0.000 C 
ATOM     21  C   UNL     1       1.097   9.004  19.289  0.00  0.00    +0.000 C 
ATOM     22  C   UNL     1       0.984  10.388  19.944  0.00  0.00    +0.000 C 
ATOM     23  N   UNL     1       0.304  10.300  21.240  0.00  0.00    +0.000 N 
ATOM     24  C   UNL     1      -0.681  11.155  21.711  0.00  0.00    +0.000 C 
ATOM     25  C   UNL     1      -1.230  12.247  20.823  0.00  0.00    +0.000 C 
ATOM     26  O   UNL     1      -1.151  11.043  22.848  0.00  0.00    +0.000 OA
ATOM     27  C   UNL     1       0.875   9.327  22.180  0.00  0.00    +0.000 C 
ATOM     28  C   UNL     1       1.009   7.939  21.539  0.00  0.00    +0.000 C 
ENDBRANCH  19  20
ENDBRANCH  17  19
ENDBRANCH  14  17
ENDBRANCH   9  14
BRANCH   1  30
ATOM     29  C   UNL     1       6.260   3.121  13.065  0.00  0.00    +0.000 C 
ATOM     30  C   UNL     1       5.442   4.291  13.588  0.00  0.00    +0.000 C 
ENDBRANCH   1  30
TORSDOF 5
ENDMDL
MODEL 3
REMARK VINA RESULT:      -7.7      3.867      5.405
REMARK  Name = 
REMARK  7 active torsions:
REMARK  status: ('A' for Active; 'I' for Inactive)
REMARK    1  A    between atoms: C_1  and  C_2
REMARK    2  A    between atoms: C_2  and  N_3
REMARK    3  A    between atoms: C_11  and  S_12
REMARK    4  A    between atoms: S_12  and  N_15
REMARK    5  A    between atoms: N_15  and  C_16
REMARK    6  A    between atoms: C_16  and  C_17
REMARK    7  A    between atoms: C_21  and  C_22
REMARK                            x       y       z     vdW  Elec       q    Type
REMARK                         _______ _______ _______ _____ _____    ______ ____
ROOT
ATOM      1  N   UNL     1       4.104   5.271  17.255  0.00  0.00    +0.000 N 
ATOM      2  C   UNL     1       3.988   4.002  17.868  0.00  0.00    +0.000 C 
ATOM      3  O   UNL     1       4.496   2.963  17.474  0.00  0.00    +0.000 OA
ATOM      4  C   UNL     1       3.158   4.284  19.027  0.00  0.00    +0.000 A 
ATOM      5  C   UNL     1       2.699   3.433  20.027  0.00  0.00    +0.000 A 
ATOM      6  C   UNL     1       1.876   4.002  21.012  0.00  0.00    +0.000 A 
ATOM      7  C   UNL     1       1.547   5.376  21.008  0.00  0.00    +0.000 A 
ATOM      8  C   UNL     1       2.045   6.247  20.002  0.00  0.00    +0.000 A 
ATOM      9  C   UNL     1       1.892   7.649  19.818  0.00  0.00    +0.000 A 
ATOM     10  C   UNL     1       2.475   8.298  18.697  0.00  0.00    +0.000 A 
ATOM     11  C   UNL     1       3.242   7.604  17.743  0.00  0.00    +0.000 A 
ATOM     12  C   UNL     1       3.399   6.247  17.965  0.00  0.00    +0.000 A 
ATOM     13  C   UNL     1       2.824   5.631  19.057  0.00  0.00    +0.000 A 
ENDROOT
BRANCH   9  14
ATOM     14  S   UNL     1       0.993   8.643  20.993  0.00  0.00    +0.000 S 
ATOM     15  O   UNL     1      -0.320   8.050  21.165  0.00  0.00    +0.000 OA
ATOM     16  O   UNL     1       1.863   8.899  22.127  0.00  0.00    +0.000 OA
BRANCH  14  17
ATOM     17  N   UNL     1       0.762  10.130  20.194  0.00  0.00    +0.000 NA
ATOM     18  H   UNL     1       0.073  10.076  19.444  0.00  0.00    +0.000 HD
BRANCH  17  19
ATOM     19  C   UNL     1       0.854  11.331  21.020  0.00  0.00    +0.000 C 
BRANCH  19  20
ATOM     20  C   UNL     1      -0.475  12.009  21.347  0.00  0.00    +0.000 C 
ATOM     21  C   UNL     1      -1.550  11.930  20.256  0.00  0.00    +0.000 C 
ATOM     22  C   UNL     1      -2.676  12.916  20.598  0.00  0.00    +0.000 C 
ATOM     23  N   UNL     1      -3.232  12.635  21.926  0.00  0.00    +0.000 N 
ATOM     24  C   UNL     1      -4.577  12.609  22.264  0.00  0.00    +0.000 C 
ATOM     25  C   UNL     1      -5.634  12.778  21.199  0.00  0.00    +0.000 C 
ATOM     26  O   UNL     1      -4.951  12.430  23.428  0.00  0.00    +0.000 OA
ATOM     27  C   UNL     1      -2.249  12.574  23.014  0.00  0.00    +0.000 C 
ATOM     28  C   UNL     1      -1.107  11.603  22.685  0.00  0.00    +0.000 C 
ENDBRANCH  19  20
ENDBRANCH  17  19
ENDBRANCH  14  17
ENDBRANCH   9  14
BRANCH   1  30
ATOM     29  C   UNL     1       6.343   5.701  16.291  0.00  0.00    +0.000 C 
ATOM     30  C   UNL     1       4.860   5.484  16.038  0.00  0.00    +0.000 C 
ENDBRANCH   1  30
TORSDOF 5
ENDMDL
MODEL 4
REMARK VINA RESULT:      -7.6      4.414     10.135
REMARK  Name = 
REMARK  7 active torsions:
REMARK  status: ('A' for Active; 'I' for Inactive)
REMARK    1  A    between atoms: C_1  and  C_2
REMARK    2  A    between atoms: C_2  and  N_3
REMARK    3  A    between atoms: C_11  and  S_12
REMARK    4  A    between atoms: S_12  and  N_15
REMARK    5  A    between atoms: N_15  and  C_16
REMARK    6  A    between atoms: C_16  and  C_17
REMARK    7  A    between atoms: C_21  and  C_22
REMARK                            x       y       z     vdW  Elec       q    Type
REMARK                         _______ _______ _______ _____ _____    ______ ____
ROOT
ATOM      1  N   UNL     1      -4.908  12.520  19.155  0.00  0.00    +0.000 N 
ATOM      2  C   UNL     1      -5.165  11.911  17.904  0.00  0.00    +0.000 C 
ATOM      3  O   UNL     1      -6.213  11.964  17.279  0.00  0.00    +0.000 OA
ATOM      4  C   UNL     1      -3.900  11.261  17.604  0.00  0.00    +0.000 A 
ATOM      5  C   UNL     1      -3.524  10.504  16.499  0.00  0.00    +0.000 A 
ATOM      6  C   UNL     1      -2.223   9.976  16.509  0.00  0.00    +0.000 A 
ATOM      7  C   UNL     1      -1.326  10.218  17.573  0.00  0.00    +0.000 A 
ATOM      8  C   UNL     1      -1.704  11.020  18.683  0.00  0.00    +0.000 A 
ATOM      9  C   UNL     1      -0.973  11.437  19.830  0.00  0.00    +0.000 A 
ATOM     10  C   UNL     1      -1.593  12.228  20.834  0.00  0.00    +0.000 A 
ATOM     11  C   UNL     1      -2.930  12.656  20.733  0.00  0.00    +0.000 A 
ATOM     12  C   UNL     1      -3.606  12.261  19.592  0.00  0.00    +0.000 A 
ATOM     13  C   UNL     1      -2.991  11.490  18.628  0.00  0.00    +0.000 A 
ENDROOT
BRANCH   9  14
ATOM     14  S   UNL     1       0.745  11.007  20.038  0.00  0.00    +0.000 S 
ATOM     15  O   UNL     1       1.461  11.453  18.857  0.00  0.00    +0.000 OA
ATOM     16  O   UNL     1       1.153  11.413  21.371  0.00  0.00    +0.000 OA
BRANCH  14  17
ATOM     17  N   UNL     1       0.756   9.304  20.009  0.00  0.00    +0.000 NA
ATOM     18  H   UNL     1      -0.180   8.899  20.009  0.00  0.00    +0.000 HD
BRANCH  17  19
ATOM     19  C   UNL     1       1.826   8.676  19.239  0.00  0.00    +0.000 C 
BRANCH  19  20
ATOM     20  C   UNL     1       1.822   7.148  19.229  0.00  0.00    +0.000 C 
ATOM     21  C   UNL     1       2.797   6.486  18.246  0.00  0.00    +0.000 C 
ATOM     22  C   UNL     1       2.443   4.997  18.126  0.00  0.00    +0.000 C 
ATOM     23  N   UNL     1       2.473   4.345  19.440  0.00  0.00    +0.000 N 
ATOM     24  C   UNL     1       3.035   3.111  19.731  0.00  0.00    +0.000 C 
ATOM     25  C   UNL     1       3.795   2.350  18.670  0.00  0.00    +0.000 C 
ATOM     26  O   UNL     1       2.953   2.608  20.856  0.00  0.00    +0.000 OA
ATOM     27  C   UNL     1       1.656   4.989  20.476  0.00  0.00    +0.000 C 
ATOM     28  C   UNL     1       1.986   6.483  20.601  0.00  0.00    +0.000 C 
ENDBRANCH  19  20
ENDBRANCH  17  19
ENDBRANCH  14  17
ENDBRANCH   9  14
BRANCH   1  30
ATOM     29  C   UNL     1      -6.618  12.503  20.945  0.00  0.00    +0.000 C 
ATOM     30  C   UNL     1      -5.904  13.297  19.863  0.00  0.00    +0.000 C 
ENDBRANCH   1  30
TORSDOF 5
ENDMDL
MODEL 5
REMARK VINA RESULT:      -7.5      4.459     10.122
REMARK  Name = 
REMARK  7 active torsions:
REMARK  status: ('A' for Active; 'I' for Inactive)
REMARK    1  A    between atoms: C_1  and  C_2
REMARK    2  A    between atoms: C_2  and  N_3
REMARK    3  A    between atoms: C_11  and  S_12
REMARK    4  A    between atoms: S_12  and  N_15
REMARK    5  A    between atoms: N_15  and  C_16
REMARK    6  A    between atoms: C_16  and  C_17
REMARK    7  A    between atoms: C_21  and  C_22
REMARK                            x       y       z     vdW  Elec       q    Type
REMARK                         _______ _______ _______ _____ _____    ______ ____
ROOT
ATOM      1  N   UNL     1      -4.896  12.551  19.258  0.00  0.00    +0.000 N 
ATOM      2  C   UNL     1      -5.206  11.934  18.024  0.00  0.00    +0.000 C 
ATOM      3  O   UNL     1      -6.280  11.984  17.444  0.00  0.00    +0.000 OA
ATOM      4  C   UNL     1      -3.956  11.281  17.673  0.00  0.00    +0.000 A 
ATOM      5  C   UNL     1      -3.628  10.516  16.558  0.00  0.00    +0.000 A 
ATOM      6  C   UNL     1      -2.328   9.987  16.516  0.00  0.00    +0.000 A 
ATOM      7  C   UNL     1      -1.386  10.235  17.539  0.00  0.00    +0.000 A 
ATOM      8  C   UNL     1      -1.716  11.044  18.659  0.00  0.00    +0.000 A 
ATOM      9  C   UNL     1      -0.936  11.467  19.771  0.00  0.00    +0.000 A 
ATOM     10  C   UNL     1      -1.511  12.266  20.795  0.00  0.00    +0.000 A 
ATOM     11  C   UNL     1      -2.851  12.694  20.749  0.00  0.00    +0.000 A 
ATOM     12  C   UNL     1      -3.576  12.293  19.641  0.00  0.00    +0.000 A 
ATOM     13  C   UNL     1      -3.004  11.515  18.656  0.00  0.00    +0.000 A 
ENDROOT
BRANCH   9  14
ATOM     14  S   UNL     1       0.789  11.037  19.908  0.00  0.00    +0.000 S 
ATOM     15  O   UNL     1       1.460  11.505  18.710  0.00  0.00    +0.000 OA
ATOM     16  O   UNL     1       1.245  11.420  21.232  0.00  0.00    +0.000 OA
BRANCH  14  17
ATOM     17  N   UNL     1       0.801   9.335  19.848  0.00  0.00    +0.000 NA
ATOM     18  H   UNL     1      -0.132   8.927  19.913  0.00  0.00    +0.000 HD
BRANCH  17  19
ATOM     19  C   UNL     1       1.809   8.723  18.987  0.00  0.00    +0.000 C 
BRANCH  19  20
ATOM     20  C   UNL     1       2.253   7.317  19.386  0.00  0.00    +0.000 C 
ATOM     21  C   UNL     1       1.470   6.674  20.538  0.00  0.00    +0.000 C 
ATOM     22  C   UNL     1       2.233   5.433  21.023  0.00  0.00    +0.000 C 
ATOM     23  N   UNL     1       2.447   4.488  19.921  0.00  0.00    +0.000 N 
ATOM     24  C   UNL     1       2.278   3.112  19.974  0.00  0.00    +0.000 C 
ATOM     25  C   UNL     1       1.727   2.460  21.220  0.00  0.00    +0.000 C 
ATOM     26  O   UNL     1       2.549   2.386  19.012  0.00  0.00    +0.000 OA
ATOM     27  C   UNL     1       3.086   5.055  18.727  0.00  0.00    +0.000 C 
ATOM     28  C   UNL     1       2.346   6.306  18.236  0.00  0.00    +0.000 C 
ENDBRANCH  19  20
ENDBRANCH  17  19
ENDBRANCH  14  17
ENDBRANCH   9  14
BRANCH   1  30
ATOM     29  C   UNL     1      -6.091  14.714  19.409  0.00  0.00    +0.000 C 
ATOM     30  C   UNL     1      -5.860  13.334  20.004  0.00  0.00    +0.000 C 
ENDBRANCH   1  30
TORSDOF 5
ENDMDL
MODEL 6
REMARK VINA RESULT:      -7.5      4.461     10.053
REMARK  Name = 
REMARK  7 active torsions:
REMARK  status: ('A' for Active; 'I' for Inactive)
REMARK    1  A    between atoms: C_1  and  C_2
REMARK    2  A    between atoms: C_2  and  N_3
REMARK    3  A    between atoms: C_11  and  S_12
REMARK    4  A    between atoms: S_12  and  N_15
REMARK    5  A    between atoms: N_15  and  C_16
REMARK    6  A    between atoms: C_16  and  C_17
REMARK    7  A    between atoms: C_21  and  C_22
REMARK                            x       y       z     vdW  Elec       q    Type
REMARK                         _______ _______ _______ _____ _____    ______ ____
ROOT
ATOM      1  N   UNL     1      -4.897  12.481  19.210  0.00  0.00    +0.000 N 
ATOM      2  C   UNL     1      -5.197  11.864  17.972  0.00  0.00    +0.000 C 
ATOM      3  O   UNL     1      -6.271  11.904  17.391  0.00  0.00    +0.000 OA
ATOM      4  C   UNL     1      -3.939  11.228  17.621  0.00  0.00    +0.000 A 
ATOM      5  C   UNL     1      -3.600  10.471  16.504  0.00  0.00    +0.000 A 
ATOM      6  C   UNL     1      -2.294   9.958  16.462  0.00  0.00    +0.000 A 
ATOM      7  C   UNL     1      -1.356  10.214  17.488  0.00  0.00    +0.000 A 
ATOM      8  C   UNL     1      -1.698  11.015  18.610  0.00  0.00    +0.000 A 
ATOM      9  C   UNL     1      -0.925  11.443  19.725  0.00  0.00    +0.000 A 
ATOM     10  C   UNL     1      -1.511  12.231  20.751  0.00  0.00    +0.000 A 
ATOM     11  C   UNL     1      -2.856  12.643  20.704  0.00  0.00    +0.000 A 
ATOM     12  C   UNL     1      -3.575  12.237  19.593  0.00  0.00    +0.000 A 
ATOM     13  C   UNL     1      -2.992  11.470  18.607  0.00  0.00    +0.000 A 
ENDROOT
BRANCH   9  14
ATOM     14  S   UNL     1       0.805  11.033  19.862  0.00  0.00    +0.000 S 
ATOM     15  O   UNL     1       1.524  11.797  18.861  0.00  0.00    +0.000 OA
ATOM     16  O   UNL     1       1.171  11.090  21.266  0.00  0.00    +0.000 OA
BRANCH  14  17
ATOM     17  N   UNL     1       0.886   9.399  19.390  0.00  0.00    +0.000 NA
ATOM     18  H   UNL     1       0.044   8.873  19.627  0.00  0.00    +0.000 HD
BRANCH  17  19
ATOM     19  C   UNL     1       1.600   9.117  18.148  0.00  0.00    +0.000 C 
BRANCH  19  20
ATOM     20  C   UNL     1       2.332   7.778  18.097  0.00  0.00    +0.000 C 
ATOM     21  C   UNL     1       3.699   7.792  17.400  0.00  0.00    +0.000 C 
ATOM     22  C   UNL     1       4.141   6.344  17.148  0.00  0.00    +0.000 C 
ATOM     23  N   UNL     1       4.182   5.584  18.402  0.00  0.00    +0.000 N 
ATOM     24  C   UNL     1       5.184   4.713  18.803  0.00  0.00    +0.000 C 
ATOM     25  C   UNL     1       6.434   4.555  17.969  0.00  0.00    +0.000 C 
ATOM     26  O   UNL     1       5.101   4.062  19.849  0.00  0.00    +0.000 OA
ATOM     27  C   UNL     1       2.946   5.618  19.193  0.00  0.00    +0.000 C 
ATOM     28  C   UNL     1       2.479   7.058  19.444  0.00  0.00    +0.000 C 
ENDBRANCH  19  20
ENDBRANCH  17  19
ENDBRANCH  14  17
ENDBRANCH   9  14
BRANCH   1  30
ATOM     29  C   UNL     1      -6.731  12.390  20.870  0.00  0.00    +0.000 C 
ATOM     30  C   UNL     1      -5.871  13.249  19.956  0.00  0.00    +0.000 C 
ENDBRANCH   1  30
TORSDOF 5
ENDMDL
MODEL 7
REMARK VINA RESULT:      -7.5      1.404      1.680
REMARK  Name = 
REMARK  7 active torsions:
REMARK  status: ('A' for Active; 'I' for Inactive)
REMARK    1  A    between atoms: C_1  and  C_2
REMARK    2  A    between atoms: C_2  and  N_3
REMARK    3  A    between atoms: C_11  and  S_12
REMARK    4  A    between atoms: S_12  and  N_15
REMARK    5  A    between atoms: N_15  and  C_16
REMARK    6  A    between atoms: C_16  and  C_17
REMARK    7  A    between atoms: C_21  and  C_22
REMARK                            x       y       z     vdW  Elec       q    Type
REMARK                         _______ _______ _______ _____ _____    ______ ____
ROOT
ATOM      1  N   UNL     1       5.636   4.308  15.090  0.00  0.00    +0.000 N 
ATOM      2  C   UNL     1       6.861   4.868  15.523  0.00  0.00    +0.000 C 
ATOM      3  O   UNL     1       7.829   5.111  14.820  0.00  0.00    +0.000 OA
ATOM      4  C   UNL     1       6.635   5.063  16.945  0.00  0.00    +0.000 A 
ATOM      5  C   UNL     1       7.475   5.590  17.921  0.00  0.00    +0.000 A 
ATOM      6  C   UNL     1       6.977   5.621  19.233  0.00  0.00    +0.000 A 
ATOM      7  C   UNL     1       5.678   5.165  19.551  0.00  0.00    +0.000 A 
ATOM      8  C   UNL     1       4.812   4.658  18.546  0.00  0.00    +0.000 A 
ATOM      9  C   UNL     1       3.470   4.192  18.613  0.00  0.00    +0.000 A 
ATOM     10  C   UNL     1       2.817   3.699  17.452  0.00  0.00    +0.000 A 
ATOM     11  C   UNL     1       3.444   3.672  16.193  0.00  0.00    +0.000 A 
ATOM     12  C   UNL     1       4.739   4.159  16.152  0.00  0.00    +0.000 A 
ATOM     13  C   UNL     1       5.360   4.632  17.288  0.00  0.00    +0.000 A 
ENDROOT
BRANCH   9  14
ATOM     14  S   UNL     1       2.553   4.234  20.142  0.00  0.00    +0.000 S 
ATOM     15  O   UNL     1       1.158   3.984  19.831  0.00  0.00    +0.000 OA
ATOM     16  O   UNL     1       3.267   3.431  21.117  0.00  0.00    +0.000 OA
BRANCH  14  17
ATOM     17  N   UNL     1       2.664   5.855  20.651  0.00  0.00    +0.000 NA
ATOM     18  H   UNL     1       3.390   6.004  21.352  0.00  0.00    +0.000 HD
BRANCH  17  19
ATOM     19  C   UNL     1       2.406   6.873  19.637  0.00  0.00    +0.000 C 
BRANCH  19  20
ATOM     20  C   UNL     1       1.326   7.895  19.987  0.00  0.00    +0.000 C 
ATOM     21  C   UNL     1       1.154   8.197  21.481  0.00  0.00    +0.000 C 
ATOM     22  C   UNL     1      -0.156   8.972  21.682  0.00  0.00    +0.000 C 
ATOM     23  N   UNL     1      -0.167  10.199  20.878  0.00  0.00    +0.000 N 
ATOM     24  C   UNL     1      -0.585  11.453  21.298  0.00  0.00    +0.000 C 
ATOM     25  C   UNL     1      -0.988  11.679  22.736  0.00  0.00    +0.000 C 
ATOM     26  O   UNL     1      -0.623  12.418  20.528  0.00  0.00    +0.000 OA
ATOM     27  C   UNL     1       0.110  10.011  19.448  0.00  0.00    +0.000 C 
ATOM     28  C   UNL     1       1.409   9.225  19.227  0.00  0.00    +0.000 C 
ENDBRANCH  19  20
ENDBRANCH  17  19
ENDBRANCH  14  17
ENDBRANCH   9  14
BRANCH   1  30
ATOM     29  C   UNL     1       6.659   3.888  12.876  0.00  0.00    +0.000 C 
ATOM     30  C   UNL     1       5.390   3.938  13.711  0.00  0.00    +0.000 C 
ENDBRANCH   1  30
TORSDOF 5
ENDMDL
MODEL 8
REMARK VINA RESULT:      -7.5      3.788      6.320
REMARK  Name = 
REMARK  7 active torsions:
REMARK  status: ('A' for Active; 'I' for Inactive)
REMARK    1  A    between atoms: C_1  and  C_2
REMARK    2  A    between atoms: C_2  and  N_3
REMARK    3  A    between atoms: C_11  and  S_12
REMARK    4  A    between atoms: S_12  and  N_15
REMARK    5  A    between atoms: N_15  and  C_16
REMARK    6  A    between atoms: C_16  and  C_17
REMARK    7  A    between atoms: C_21  and  C_22
REMARK                            x       y       z     vdW  Elec       q    Type
REMARK                         _______ _______ _______ _____ _____    ______ ____
ROOT
ATOM      1  N   UNL     1       2.887   4.498  20.406  0.00  0.00    +0.000 N 
ATOM      2  C   UNL     1       3.830   4.133  19.416  0.00  0.00    +0.000 C 
ATOM      3  O   UNL     1       4.433   3.072  19.353  0.00  0.00    +0.000 OA
ATOM      4  C   UNL     1       3.857   5.304  18.557  0.00  0.00    +0.000 A 
ATOM      5  C   UNL     1       4.591   5.549  17.400  0.00  0.00    +0.000 A 
ATOM      6  C   UNL     1       4.421   6.807  16.799  0.00  0.00    +0.000 A 
ATOM      7  C   UNL     1       3.533   7.772  17.323  0.00  0.00    +0.000 A 
ATOM      8  C   UNL     1       2.761   7.504  18.485  0.00  0.00    +0.000 A 
ATOM      9  C   UNL     1       1.783   8.286  19.161  0.00  0.00    +0.000 A 
ATOM     10  C   UNL     1       1.160   7.801  20.341  0.00  0.00    +0.000 A 
ATOM     11  C   UNL     1       1.453   6.534  20.879  0.00  0.00    +0.000 A 
ATOM     12  C   UNL     1       2.386   5.784  20.184  0.00  0.00    +0.000 A 
ATOM     13  C   UNL     1       2.984   6.270  19.040  0.00  0.00    +0.000 A 
ENDROOT
BRANCH   9  14
ATOM     14  S   UNL     1       1.286   9.882  18.541  0.00  0.00    +0.000 S 
ATOM     15  O   UNL     1       2.452  10.513  17.951  0.00  0.00    +0.000 OA
ATOM     16  O   UNL     1       0.056   9.709  17.788  0.00  0.00    +0.000 OA
BRANCH  14  17
ATOM     17  N   UNL     1       0.896  10.771  19.939  0.00  0.00    +0.000 NA
ATOM     18  H   UNL     1       1.629  10.740  20.648  0.00  0.00    +0.000 HD
BRANCH  17  19
ATOM     19  C   UNL     1       0.124  11.994  19.736  0.00  0.00    +0.000 C 
BRANCH  19  20
ATOM     20  C   UNL     1      -0.752  12.425  20.912  0.00  0.00    +0.000 C 
ATOM     21  C   UNL     1      -1.983  13.266  20.551  0.00  0.00    +0.000 C 
ATOM     22  C   UNL     1      -2.557  13.878  21.836  0.00  0.00    +0.000 C 
ATOM     23  N   UNL     1      -2.883  12.833  22.814  0.00  0.00    +0.000 N 
ATOM     24  C   UNL     1      -4.035  12.758  23.582  0.00  0.00    +0.000 C 
ATOM     25  C   UNL     1      -5.152  13.755  23.380  0.00  0.00    +0.000 C 
ATOM     26  O   UNL     1      -4.194  11.876  24.431  0.00  0.00    +0.000 OA
ATOM     27  C   UNL     1      -1.788  11.907  23.125  0.00  0.00    +0.000 C 
ATOM     28  C   UNL     1      -1.191  11.295  21.851  0.00  0.00    +0.000 C 
ENDBRANCH  19  20
ENDBRANCH  17  19
ENDBRANCH  14  17
ENDBRANCH   9  14
BRANCH   1  30
ATOM     29  C   UNL     1       1.239   2.854  21.247  0.00  0.00    +0.000 C 
ATOM     30  C   UNL     1       2.526   3.622  21.501  0.00  0.00    +0.000 C 
ENDBRANCH   1  30
TORSDOF 5
ENDMDL
MODEL 9
REMARK VINA RESULT:      -7.4      3.680      5.197
REMARK  Name = 
REMARK  7 active torsions:
REMARK  status: ('A' for Active; 'I' for Inactive)
REMARK    1  A    between atoms: C_1  and  C_2
REMARK    2  A    between atoms: C_2  and  N_3
REMARK    3  A    between atoms: C_11  and  S_12
REMARK    4  A    between atoms: S_12  and  N_15
REMARK    5  A    between atoms: N_15  and  C_16
REMARK    6  A    between atoms: C_16  and  C_17
REMARK    7  A    between atoms: C_21  and  C_22
REMARK                            x       y       z     vdW  Elec       q    Type
REMARK                         _______ _______ _______ _____ _____    ______ ____
ROOT
ATOM      1  N   UNL     1       4.145   5.032  17.272  0.00  0.00    +0.000 N 
ATOM      2  C   UNL     1       3.923   3.795  17.922  0.00  0.00    +0.000 C 
ATOM      3  O   UNL     1       4.381   2.713  17.587  0.00  0.00    +0.000 OA
ATOM      4  C   UNL     1       3.061   4.171  19.031  0.00  0.00    +0.000 A 
ATOM      5  C   UNL     1       2.507   3.388  20.038  0.00  0.00    +0.000 A 
ATOM      6  C   UNL     1       1.680   4.043  20.964  0.00  0.00    +0.000 A 
ATOM      7  C   UNL     1       1.437   5.433  20.897  0.00  0.00    +0.000 A 
ATOM      8  C   UNL     1       2.033   6.234  19.886  0.00  0.00    +0.000 A 
ATOM      9  C   UNL     1       1.977   7.635  19.646  0.00  0.00    +0.000 A 
ATOM     10  C   UNL     1       2.648   8.205  18.532  0.00  0.00    +0.000 A 
ATOM     11  C   UNL     1       3.411   7.430  17.639  0.00  0.00    +0.000 A 
ATOM     12  C   UNL     1       3.472   6.075  17.914  0.00  0.00    +0.000 A 
ATOM     13  C   UNL     1       2.813   5.536  18.999  0.00  0.00    +0.000 A 
ENDROOT
BRANCH   9  14
ATOM     14  S   UNL     1       1.091   8.726  20.744  0.00  0.00    +0.000 S 
ATOM     15  O   UNL     1      -0.261   8.217  20.881  0.00  0.00    +0.000 OA
ATOM     16  O   UNL     1       1.928   8.974  21.904  0.00  0.00    +0.000 OA
BRANCH  14  17
ATOM     17  N   UNL     1       0.984  10.190  19.881  0.00  0.00    +0.000 NA
ATOM     18  H   UNL     1       1.788  10.799  20.029  0.00  0.00    +0.000 HD
BRANCH  17  19
ATOM     19  C   UNL     1       0.345  10.125  18.570  0.00  0.00    +0.000 C 
BRANCH  19  20
ATOM     20  C   UNL     1      -0.999  10.842  18.454  0.00  0.00    +0.000 C 
ATOM     21  C   UNL     1      -2.093  10.086  17.688  0.00  0.00    +0.000 C 
ATOM     22  C   UNL     1      -3.244  11.055  17.385  0.00  0.00    +0.000 C 
ATOM     23  N   UNL     1      -3.764  11.653  18.620  0.00  0.00    +0.000 N 
ATOM     24  C   UNL     1      -5.100  11.824  18.951  0.00  0.00    +0.000 C 
ATOM     25  C   UNL     1      -6.183  11.278  18.051  0.00  0.00    +0.000 C 
ATOM     26  O   UNL     1      -5.444  12.401  19.987  0.00  0.00    +0.000 OA
ATOM     27  C   UNL     1      -2.757  12.295  19.474  0.00  0.00    +0.000 C 
ATOM     28  C   UNL     1      -1.590  11.346  19.777  0.00  0.00    +0.000 C 
ENDBRANCH  19  20
ENDBRANCH  17  19
ENDBRANCH  14  17
ENDBRANCH   9  14
BRANCH   1  30
ATOM     29  C   UNL     1       6.442   5.325  16.398  0.00  0.00    +0.000 C 
ATOM     30  C   UNL     1       4.965   5.153  16.084  0.00  0.00    +0.000 C 
ENDBRANCH   1  30
TORSDOF 5
ENDMDL
