MODEL 1
REMARK VINA RESULT:      -7.6      0.000      0.000
REMARK  Name = 
REMARK  12 active torsions:
REMARK  status: ('A' for Active; 'I' for Inactive)
REMARK    1  A    between atoms: C_1  and  C_2
REMARK    2  A    between atoms: C_2  and  C_3
REMARK    3  A    between atoms: C_2  and  C_4
REMARK    4  A    between atoms: C_2  and  C_5
REMARK    5  A    between atoms: C_5  and  O_7
REMARK    6  A    between atoms: O_7  and  N_8
REMARK    7  A    between atoms: C_14  and  O_15
REMARK    8  A    between atoms: C_14  and  O_23
REMARK    9  A    between atoms: O_15  and  C_16
REMARK   10  A    between atoms: C_16  and  C_17
REMARK   11  A    between atoms: O_23  and  C_24
REMARK   12  A    between atoms: C_24  and  C_25
REMARK                            x       y       z     vdW  Elec       q    Type
REMARK                         _______ _______ _______ _____ _____    ______ ____
ROOT
ATOM      1  N   UNL     1      -0.662  12.724  22.371  0.00  0.00    +0.000 N 
ATOM      2  N   UNL     1      -1.905  12.493  23.044  0.00  0.00    +0.000 NA
ATOM      3  N   UNL     1      -1.996  11.238  23.280  0.00  0.00    +0.000 NA
ATOM      4  C   UNL     1      -0.660  10.732  23.050  0.00  0.00    +0.000 C 
ATOM      5  C   UNL     1      -0.166   9.376  22.753  0.00  0.00    +0.000 C 
ATOM      6  C   UNL     1      -0.357   8.828  21.353  0.00  0.00    +0.000 C 
ATOM      7  C   UNL     1       0.547   9.601  20.308  0.00  0.00    +0.000 C 
ATOM      8  C   UNL     1       1.051  10.621  21.470  0.00  0.00    +0.000 C 
ATOM      9  O   UNL     1       1.242   9.759  22.615  0.00  0.00    +0.000 OA
ATOM     10  C   UNL     1      -0.283  11.455  21.787  0.00  0.00    +0.000 C 
ENDROOT
BRANCH   1  11
ATOM     11  O   UNL     1      -0.549  13.865  21.518  0.00  0.00    +0.000 OA
BRANCH  11  12
ATOM     12  C   UNL     1       0.745  14.302  21.327  0.00  0.00    +0.000 C 
ATOM     13  O   UNL     1       1.569  14.502  22.217  0.00  0.00    +0.000 OA
BRANCH  12  15
ATOM     14  C   UNL     1       2.181  13.560  19.406  0.00  0.00    +0.000 C 
ATOM     15  C   UNL     1       1.047  14.507  19.831  0.00  0.00    +0.000 C 
ATOM     16  C   UNL     1       1.485  15.949  19.555  0.00  0.00    +0.000 C 
ATOM     17  C   UNL     1      -0.198  14.153  19.000  0.00  0.00    +0.000 C 
ENDBRANCH  12  15
ENDBRANCH  11  12
ENDBRANCH   1  11
BRANCH   7  18
ATOM     18  O   UNL     1       0.685  10.579  19.262  0.00  0.00    +0.000 OA
BRANCH  18  19
ATOM     19  C   UNL     1      -0.145  10.026  18.140  0.00  0.00    +0.000 C 
BRANCH  19  20
ATOM     20  C   UNL     1      -1.588  10.357  17.857  0.00  0.00    +0.000 A 
ATOM     21  C   UNL     1      -2.392  11.163  18.664  0.00  0.00    +0.000 A 
ATOM     22  C   UNL     1      -3.647  11.543  18.242  0.00  0.00    +0.000 A 
ATOM     23  C   UNL     1      -4.141  11.160  16.973  0.00  0.00    +0.000 A 
ATOM     24  C   UNL     1      -3.356  10.337  16.146  0.00  0.00    +0.000 A 
ATOM     25  C   UNL     1      -2.117   9.951  16.575  0.00  0.00    +0.000 A 
ENDBRANCH  19  20
ENDBRANCH  18  19
ENDBRANCH   7  18
BRANCH   7  26
ATOM     26  O   UNL     1       0.942   8.403  19.589  0.00  0.00    +0.000 OA
BRANCH  26  27
ATOM     27  C   UNL     1       1.941   7.622  20.335  0.00  0.00    +0.000 C 
BRANCH  27  28
ATOM     28  C   UNL     1       1.954   6.184  19.893  0.00  0.00    +0.000 A 
ATOM     29  C   UNL     1       2.495   5.840  18.633  0.00  0.00    +0.000 A 
ATOM     30  C   UNL     1       2.509   4.522  18.191  0.00  0.00    +0.000 A 
ATOM     31  C   UNL     1       2.006   3.516  19.012  0.00  0.00    +0.000 A 
ATOM     32  C   UNL     1       1.503   3.840  20.270  0.00  0.00    +0.000 A 
ATOM     33  C   UNL     1       1.478   5.167  20.720  0.00  0.00    +0.000 A 
ENDBRANCH  27  28
ENDBRANCH  26  27
ENDBRANCH   7  26
TORSDOF 9
ENDMDL
MODEL 2
REMARK VINA RESULT:      -7.4      5.813     10.116
REMARK  Name = 
REMARK  12 active torsions:
REMARK  status: ('A' for Active; 'I' for Inactive)
REMARK    1  A    between atoms: C_1  and  C_2
REMARK    2  A    between atoms: C_2  and  C_3
REMARK    3  A    between atoms: C_2  and  C_4
REMARK    4  A    between atoms: C_2  and  C_5
REMARK    5  A    between atoms: C_5  and  O_7
REMARK    6  A    between atoms: O_7  and  N_8
REMARK    7  A    between atoms: C_14  and  O_15
REMARK    8  A    between atoms: C_14  and  O_23
REMARK    9  A    between atoms: O_15  and  C_16
REMARK   10  A    between atoms: C_16  and  C_17
REMARK   11  A    between atoms: O_23  and  C_24
REMARK   12  A    between atoms: C_24  and  C_25
REMARK                            x       y       z     vdW  Elec       q    Type
REMARK                         _______ _______ _______ _____ _____    ______ ____
ROOT
ATOM      1  N   UNL     1       7.010   4.171  15.335  0.00  0.00    +0.000 N 
ATOM      2  N   UNL     1       7.765   5.251  14.771  0.00  0.00    +0.000 NA
ATOM      3  N   UNL     1       7.781   6.205  15.624  0.00  0.00    +0.000 NA
ATOM      4  C   UNL     1       7.318   5.595  16.853  0.00  0.00    +0.000 C 
ATOM      5  C   UNL     1       6.731   6.179  18.072  0.00  0.00    +0.000 C 
ATOM      6  C   UNL     1       5.285   6.632  18.032  0.00  0.00    +0.000 C 
ATOM      7  C   UNL     1       4.301   5.397  17.909  0.00  0.00    +0.000 C 
ATOM      8  C   UNL     1       5.564   4.380  17.790  0.00  0.00    +0.000 C 
ATOM      9  O   UNL     1       6.508   4.901  18.754  0.00  0.00    +0.000 OA
ATOM     10  C   UNL     1       6.171   4.762  16.355  0.00  0.00    +0.000 C 
ENDROOT
BRANCH   1  11
ATOM     11  O   UNL     1       6.368   3.252  14.449  0.00  0.00    +0.000 OA
BRANCH  11  12
ATOM     12  C   UNL     1       5.475   3.838  13.577  0.00  0.00    +0.000 C 
ATOM     13  O   UNL     1       4.564   4.601  13.893  0.00  0.00    +0.000 OA
BRANCH  12  15
ATOM     14  C   UNL     1       6.900   4.291  11.560  0.00  0.00    +0.000 C 
ATOM     15  C   UNL     1       5.764   3.421  12.123  0.00  0.00    +0.000 C 
ATOM     16  C   UNL     1       4.524   3.608  11.244  0.00  0.00    +0.000 C 
ATOM     17  C   UNL     1       6.232   1.956  12.089  0.00  0.00    +0.000 C 
ENDBRANCH  12  15
ENDBRANCH  11  12
ENDBRANCH   1  11
BRANCH   7  18
ATOM     18  O   UNL     1       3.439   4.566  17.114  0.00  0.00    +0.000 OA
BRANCH  18  19
ATOM     19  C   UNL     1       3.434   3.253  17.842  0.00  0.00    +0.000 C 
BRANCH  19  20
ATOM     20  C   UNL     1       2.735   2.965  19.146  0.00  0.00    +0.000 A 
ATOM     21  C   UNL     1       3.381   2.656  20.343  0.00  0.00    +0.000 A 
ATOM     22  C   UNL     1       2.668   2.569  21.520  0.00  0.00    +0.000 A 
ATOM     23  C   UNL     1       1.277   2.823  21.555  0.00  0.00    +0.000 A 
ATOM     24  C   UNL     1       0.600   3.123  20.359  0.00  0.00    +0.000 A 
ATOM     25  C   UNL     1       1.309   3.194  19.193  0.00  0.00    +0.000 A 
ENDBRANCH  19  20
ENDBRANCH  18  19
ENDBRANCH   7  18
BRANCH   7  26
ATOM     26  O   UNL     1       3.341   5.921  18.864  0.00  0.00    +0.000 OA
BRANCH  26  27
ATOM     27  C   UNL     1       2.398   6.858  18.234  0.00  0.00    +0.000 C 
BRANCH  27  28
ATOM     28  C   UNL     1       1.856   7.844  19.232  0.00  0.00    +0.000 A 
ATOM     29  C   UNL     1       1.462   9.133  18.807  0.00  0.00    +0.000 A 
ATOM     30  C   UNL     1       0.971  10.070  19.708  0.00  0.00    +0.000 A 
ATOM     31  C   UNL     1       0.836   9.728  21.051  0.00  0.00    +0.000 A 
ATOM     32  C   UNL     1       1.187   8.448  21.474  0.00  0.00    +0.000 A 
ATOM     33  C   UNL     1       1.691   7.501  20.574  0.00  0.00    +0.000 A 
ENDBRANCH  27  28
ENDBRANCH  26  27
ENDBRANCH   7  26
TORSDOF 9
ENDMDL
MODEL 3
REMARK VINA RESULT:      -7.3      5.806     10.119
REMARK  Name = 
REMARK  12 active torsions:
REMARK  status: ('A' for Active; 'I' for Inactive)
REMARK    1  A    between atoms: C_1  and  C_2
REMARK    2  A    between atoms: C_2  and  C_3
REMARK    3  A    between atoms: C_2  and  C_4
REMARK    4  A    between atoms: C_2  and  C_5
REMARK    5  A    between atoms: C_5  and  O_7
REMARK    6  A    between atoms: O_7  and  N_8
REMARK    7  A    between atoms: C_14  and  O_15
REMARK    8  A    between atoms: C_14  and  O_23
REMARK    9  A    between atoms: O_15  and  C_16
REMARK   10  A    between atoms: C_16  and  C_17
REMARK   11  A    between atoms: O_23  and  C_24
REMARK   12  A    between atoms: C_24  and  C_25
REMARK                            x       y       z     vdW  Elec       q    Type
REMARK                         _______ _______ _______ _____ _____    ______ ____
ROOT
ATOM      1  N   UNL     1       6.994   4.209  15.301  0.00  0.00    +0.000 N 
ATOM      2  N   UNL     1       7.770   5.250  14.696  0.00  0.00    +0.000 NA
ATOM      3  N   UNL     1       7.754   6.259  15.483  0.00  0.00    +0.000 NA
ATOM      4  C   UNL     1       7.243   5.733  16.731  0.00  0.00    +0.000 C 
ATOM      5  C   UNL     1       6.609   6.396  17.884  0.00  0.00    +0.000 C 
ATOM      6  C   UNL     1       5.166   6.841  17.758  0.00  0.00    +0.000 C 
ATOM      7  C   UNL     1       4.188   5.599  17.681  0.00  0.00    +0.000 C 
ATOM      8  C   UNL     1       5.454   4.579  17.680  0.00  0.00    +0.000 C 
ATOM      9  O   UNL     1       6.360   5.166  18.641  0.00  0.00    +0.000 OA
ATOM     10  C   UNL     1       6.115   4.865  16.246  0.00  0.00    +0.000 C 
ENDROOT
BRANCH   1  11
ATOM     11  O   UNL     1       6.385   3.231  14.455  0.00  0.00    +0.000 OA
BRANCH  11  12
ATOM     12  C   UNL     1       5.462   3.745  13.570  0.00  0.00    +0.000 C 
ATOM     13  O   UNL     1       4.507   4.459  13.869  0.00  0.00    +0.000 OA
BRANCH  12  15
ATOM     14  C   UNL     1       6.205   1.839  12.114  0.00  0.00    +0.000 C 
ATOM     15  C   UNL     1       5.780   3.317  12.125  0.00  0.00    +0.000 C 
ATOM     16  C   UNL     1       6.923   4.157  11.545  0.00  0.00    +0.000 C 
ATOM     17  C   UNL     1       4.519   3.450  11.257  0.00  0.00    +0.000 C 
ENDBRANCH  12  15
ENDBRANCH  11  12
ENDBRANCH   1  11
BRANCH   7  18
ATOM     18  O   UNL     1       3.356   4.714  16.911  0.00  0.00    +0.000 OA
BRANCH  18  19
ATOM     19  C   UNL     1       3.283   3.470  17.748  0.00  0.00    +0.000 C 
BRANCH  19  20
ATOM     20  C   UNL     1       2.571   3.330  19.069  0.00  0.00    +0.000 A 
ATOM     21  C   UNL     1       1.189   3.411  19.239  0.00  0.00    +0.000 A 
ATOM     22  C   UNL     1       0.616   3.109  20.456  0.00  0.00    +0.000 A 
ATOM     23  C   UNL     1       1.402   2.677  21.549  0.00  0.00    +0.000 A 
ATOM     24  C   UNL     1       2.799   2.599  21.407  0.00  0.00    +0.000 A 
ATOM     25  C   UNL     1       3.363   2.913  20.203  0.00  0.00    +0.000 A 
ENDBRANCH  19  20
ENDBRANCH  18  19
ENDBRANCH   7  18
BRANCH   7  26
ATOM     26  O   UNL     1       3.191   6.183  18.561  0.00  0.00    +0.000 OA
BRANCH  26  27
ATOM     27  C   UNL     1       2.800   7.533  18.125  0.00  0.00    +0.000 C 
BRANCH  27  28
ATOM     28  C   UNL     1       1.918   8.204  19.142  0.00  0.00    +0.000 A 
ATOM     29  C   UNL     1       1.771   7.638  20.429  0.00  0.00    +0.000 A 
ATOM     30  C   UNL     1       0.952   8.226  21.385  0.00  0.00    +0.000 A 
ATOM     31  C   UNL     1       0.283   9.409  21.084  0.00  0.00    +0.000 A 
ATOM     32  C   UNL     1       0.450   9.995  19.830  0.00  0.00    +0.000 A 
ATOM     33  C   UNL     1       1.267   9.404  18.858  0.00  0.00    +0.000 A 
ENDBRANCH  27  28
ENDBRANCH  26  27
ENDBRANCH   7  26
TORSDOF 9
ENDMDL
MODEL 4
REMARK VINA RESULT:      -7.1      4.360      7.695
REMARK  Name = 
REMARK  12 active torsions:
REMARK  status: ('A' for Active; 'I' for Inactive)
REMARK    1  A    between atoms: C_1  and  C_2
REMARK    2  A    between atoms: C_2  and  C_3
REMARK    3  A    between atoms: C_2  and  C_4
REMARK    4  A    between atoms: C_2  and  C_5
REMARK    5  A    between atoms: C_5  and  O_7
REMARK    6  A    between atoms: O_7  and  N_8
REMARK    7  A    between atoms: C_14  and  O_15
REMARK    8  A    between atoms: C_14  and  O_23
REMARK    9  A    between atoms: O_15  and  C_16
REMARK   10  A    between atoms: C_16  and  C_17
REMARK   11  A    between atoms: O_23  and  C_24
REMARK   12  A    between atoms: C_24  and  C_25
REMARK                            x       y       z     vdW  Elec       q    Type
REMARK                         _______ _______ _______ _____ _____    ______ ____
ROOT
ATOM      1  N   UNL     1       4.392   3.425  18.669  0.00  0.00    +0.000 N 
ATOM      2  N   UNL     1       4.863   2.605  19.745  0.00  0.00    +0.000 NA
ATOM      3  N   UNL     1       3.977   2.624  20.668  0.00  0.00    +0.000 NA
ATOM      4  C   UNL     1       2.807   3.188  20.031  0.00  0.00    +0.000 C 
ATOM      5  C   UNL     1       1.611   3.845  20.590  0.00  0.00    +0.000 C 
ATOM      6  C   UNL     1       1.736   5.272  21.084  0.00  0.00    +0.000 C 
ATOM      7  C   UNL     1       1.971   6.276  19.882  0.00  0.00    +0.000 C 
ATOM      8  C   UNL     1       2.037   5.035  18.834  0.00  0.00    +0.000 C 
ATOM      9  O   UNL     1       0.993   4.148  19.296  0.00  0.00    +0.000 OA
ATOM     10  C   UNL     1       3.412   4.319  19.247  0.00  0.00    +0.000 C 
ENDROOT
BRANCH   1  11
ATOM     11  O   UNL     1       5.353   4.027  17.798  0.00  0.00    +0.000 OA
BRANCH  11  12
ATOM     12  C   UNL     1       6.094   5.031  18.384  0.00  0.00    +0.000 C 
ATOM     13  O   UNL     1       6.364   5.114  19.580  0.00  0.00    +0.000 OA
BRANCH  12  15
ATOM     14  C   UNL     1       7.641   6.962  17.955  0.00  0.00    +0.000 C 
ATOM     15  C   UNL     1       6.562   6.058  17.336  0.00  0.00    +0.000 C 
ATOM     16  C   UNL     1       5.395   6.937  16.874  0.00  0.00    +0.000 C 
ATOM     17  C   UNL     1       7.191   5.326  16.139  0.00  0.00    +0.000 C 
ENDBRANCH  12  15
ENDBRANCH  11  12
ENDBRANCH   1  11
BRANCH   7  18
ATOM     18  O   UNL     1       2.853   7.102  19.103  0.00  0.00    +0.000 OA
BRANCH  18  19
ATOM     19  C   UNL     1       1.962   7.677  18.040  0.00  0.00    +0.000 C 
BRANCH  19  20
ATOM     20  C   UNL     1       1.477   9.102  17.966  0.00  0.00    +0.000 A 
ATOM     21  C   UNL     1       0.140   9.492  18.049  0.00  0.00    +0.000 A 
ATOM     22  C   UNL     1      -0.194  10.826  18.136  0.00  0.00    +0.000 A 
ATOM     23  C   UNL     1       0.801  11.830  18.179  0.00  0.00    +0.000 A 
ATOM     24  C   UNL     1       2.155  11.464  18.083  0.00  0.00    +0.000 A 
ATOM     25  C   UNL     1       2.481  10.141  17.983  0.00  0.00    +0.000 A 
ENDBRANCH  19  20
ENDBRANCH  18  19
ENDBRANCH   7  18
BRANCH   7  26
ATOM     26  O   UNL     1       1.066   7.288  20.400  0.00  0.00    +0.000 OA
BRANCH  26  27
ATOM     27  C   UNL     1       1.666   8.038  21.515  0.00  0.00    +0.000 C 
BRANCH  27  28
ATOM     28  C   UNL     1       0.814   9.216  21.903  0.00  0.00    +0.000 A 
ATOM     29  C   UNL     1      -0.225   9.053  22.847  0.00  0.00    +0.000 A 
ATOM     30  C   UNL     1      -1.037  10.119  23.215  0.00  0.00    +0.000 A 
ATOM     31  C   UNL     1      -0.809  11.378  22.667  0.00  0.00    +0.000 A 
ATOM     32  C   UNL     1       0.236  11.558  21.764  0.00  0.00    +0.000 A 
ATOM     33  C   UNL     1       1.054  10.487  21.381  0.00  0.00    +0.000 A 
ENDBRANCH  27  28
ENDBRANCH  26  27
ENDBRANCH   7  26
TORSDOF 9
ENDMDL
MODEL 5
REMARK VINA RESULT:      -6.9      4.324      7.642
REMARK  Name = 
REMARK  12 active torsions:
REMARK  status: ('A' for Active; 'I' for Inactive)
REMARK    1  A    between atoms: C_1  and  C_2
REMARK    2  A    between atoms: C_2  and  C_3
REMARK    3  A    between atoms: C_2  and  C_4
REMARK    4  A    between atoms: C_2  and  C_5
REMARK    5  A    between atoms: C_5  and  O_7
REMARK    6  A    between atoms: O_7  and  N_8
REMARK    7  A    between atoms: C_14  and  O_15
REMARK    8  A    between atoms: C_14  and  O_23
REMARK    9  A    between atoms: O_15  and  C_16
REMARK   10  A    between atoms: C_16  and  C_17
REMARK   11  A    between atoms: O_23  and  C_24
REMARK   12  A    between atoms: C_24  and  C_25
REMARK                            x       y       z     vdW  Elec       q    Type
REMARK                         _______ _______ _______ _____ _____    ______ ____
ROOT
ATOM      1  N   UNL     1       4.360   3.494  18.502  0.00  0.00    +0.000 N 
ATOM      2  N   UNL     1       4.872   2.739  19.606  0.00  0.00    +0.000 NA
ATOM      3  N   UNL     1       4.037   2.839  20.571  0.00  0.00    +0.000 NA
ATOM      4  C   UNL     1       2.844   3.383  19.957  0.00  0.00    +0.000 C 
ATOM      5  C   UNL     1       1.692   4.101  20.530  0.00  0.00    +0.000 C 
ATOM      6  C   UNL     1       1.867   5.556  20.918  0.00  0.00    +0.000 C 
ATOM      7  C   UNL     1       2.055   6.471  19.640  0.00  0.00    +0.000 C 
ATOM      8  C   UNL     1       2.045   5.160  18.678  0.00  0.00    +0.000 C 
ATOM      9  O   UNL     1       1.011   4.329  19.252  0.00  0.00    +0.000 OA
ATOM     10  C   UNL     1       3.427   4.446  19.067  0.00  0.00    +0.000 C 
ENDROOT
BRANCH   1  11
ATOM     11  O   UNL     1       5.283   4.016  17.544  0.00  0.00    +0.000 OA
BRANCH  11  12
ATOM     12  C   UNL     1       6.149   4.961  18.051  0.00  0.00    +0.000 C 
ATOM     13  O   UNL     1       6.574   4.994  19.204  0.00  0.00    +0.000 OA
BRANCH  12  15
ATOM     14  C   UNL     1       7.314   5.283  15.850  0.00  0.00    +0.000 C 
ATOM     15  C   UNL     1       6.539   5.990  16.974  0.00  0.00    +0.000 C 
ATOM     16  C   UNL     1       7.429   7.089  17.565  0.00  0.00    +0.000 C 
ATOM     17  C   UNL     1       5.269   6.600  16.358  0.00  0.00    +0.000 C 
ENDBRANCH  12  15
ENDBRANCH  11  12
ENDBRANCH   1  11
BRANCH   7  18
ATOM     18  O   UNL     1       2.910   7.223  18.761  0.00  0.00    +0.000 OA
BRANCH  18  19
ATOM     19  C   UNL     1       1.958   7.853  17.786  0.00  0.00    +0.000 C 
BRANCH  19  20
ATOM     20  C   UNL     1       1.438   9.267  17.841  0.00  0.00    +0.000 A 
ATOM     21  C   UNL     1       0.092   9.616  17.936  0.00  0.00    +0.000 A 
ATOM     22  C   UNL     1      -0.277  10.928  18.145  0.00  0.00    +0.000 A 
ATOM     23  C   UNL     1       0.692  11.945  18.305  0.00  0.00    +0.000 A 
ATOM     24  C   UNL     1       2.056  11.621  18.200  0.00  0.00    +0.000 A 
ATOM     25  C   UNL     1       2.417  10.322  17.979  0.00  0.00    +0.000 A 
ENDBRANCH  19  20
ENDBRANCH  18  19
ENDBRANCH   7  18
BRANCH   7  26
ATOM     26  O   UNL     1       1.198   7.534  20.133  0.00  0.00    +0.000 OA
BRANCH  26  27
ATOM     27  C   UNL     1       1.642   8.032  21.444  0.00  0.00    +0.000 C 
BRANCH  27  28
ATOM     28  C   UNL     1       0.790   9.180  21.912  0.00  0.00    +0.000 A 
ATOM     29  C   UNL     1       0.997  10.473  21.379  0.00  0.00    +0.000 A 
ATOM     30  C   UNL     1       0.235  11.556  21.801  0.00  0.00    +0.000 A 
ATOM     31  C   UNL     1      -0.768  11.364  22.747  0.00  0.00    +0.000 A 
ATOM     32  C   UNL     1      -1.004  10.088  23.252  0.00  0.00    +0.000 A 
ATOM     33  C   UNL     1      -0.236   8.992  22.837  0.00  0.00    +0.000 A 
ENDBRANCH  27  28
ENDBRANCH  26  27
ENDBRANCH   7  26
TORSDOF 9
ENDMDL
MODEL 6
REMARK VINA RESULT:      -6.9      4.404      8.519
REMARK  Name = 
REMARK  12 active torsions:
REMARK  status: ('A' for Active; 'I' for Inactive)
REMARK    1  A    between atoms: C_1  and  C_2
REMARK    2  A    between atoms: C_2  and  C_3
REMARK    3  A    between atoms: C_2  and  C_4
REMARK    4  A    between atoms: C_2  and  C_5
REMARK    5  A    between atoms: C_5  and  O_7
REMARK    6  A    between atoms: O_7  and  N_8
REMARK    7  A    between atoms: C_14  and  O_15
REMARK    8  A    between atoms: C_14  and  O_23
REMARK    9  A    between atoms: O_15  and  C_16
REMARK   10  A    between atoms: C_16  and  C_17
REMARK   11  A    between atoms: O_23  and  C_24
REMARK   12  A    between atoms: C_24  and  C_25
REMARK                            x       y       z     vdW  Elec       q    Type
REMARK                         _______ _______ _______ _____ _____    ______ ____
ROOT
ATOM      1  N   UNL     1       4.050   3.472  17.919  0.00  0.00    +0.000 N 
ATOM      2  N   UNL     1       4.419   3.042  16.603  0.00  0.00    +0.000 NA
ATOM      3  N   UNL     1       4.903   4.051  15.983  0.00  0.00    +0.000 NA
ATOM      4  C   UNL     1       5.141   5.030  17.021  0.00  0.00    +0.000 C 
ATOM      5  C   UNL     1       5.295   6.495  16.965  0.00  0.00    +0.000 C 
ATOM      6  C   UNL     1       4.054   7.346  16.779  0.00  0.00    +0.000 C 
ATOM      7  C   UNL     1       3.126   7.292  18.060  0.00  0.00    +0.000 C 
ATOM      8  C   UNL     1       4.115   6.204  18.754  0.00  0.00    +0.000 C 
ATOM      9  O   UNL     1       5.435   6.683  18.412  0.00  0.00    +0.000 OA
ATOM     10  C   UNL     1       3.885   4.908  17.838  0.00  0.00    +0.000 C 
ENDROOT
BRANCH   1  11
ATOM     11  O   UNL     1       3.017   2.761  18.605  0.00  0.00    +0.000 OA
BRANCH  11  12
ATOM     12  C   UNL     1       3.230   2.624  19.961  0.00  0.00    +0.000 C 
ATOM     13  O   UNL     1       4.244   2.164  20.481  0.00  0.00    +0.000 OA
BRANCH  12  15
ATOM     14  C   UNL     1       2.387   4.467  21.444  0.00  0.00    +0.000 C 
ATOM     15  C   UNL     1       2.021   3.136  20.766  0.00  0.00    +0.000 C 
ATOM     16  C   UNL     1       1.622   2.129  21.850  0.00  0.00    +0.000 C 
ATOM     17  C   UNL     1       0.841   3.400  19.816  0.00  0.00    +0.000 C 
ENDBRANCH  12  15
ENDBRANCH  11  12
ENDBRANCH   1  11
BRANCH   7  18
ATOM     18  O   UNL     1       1.956   6.794  18.731  0.00  0.00    +0.000 OA
BRANCH  18  19
ATOM     19  C   UNL     1       2.171   7.180  20.166  0.00  0.00    +0.000 C 
BRANCH  19  20
ATOM     20  C   UNL     1       1.257   8.042  20.998  0.00  0.00    +0.000 A 
ATOM     21  C   UNL     1      -0.122   7.861  21.112  0.00  0.00    +0.000 A 
ATOM     22  C   UNL     1      -0.850   8.595  22.023  0.00  0.00    +0.000 A 
ATOM     23  C   UNL     1      -0.222   9.522  22.888  0.00  0.00    +0.000 A 
ATOM     24  C   UNL     1       1.164   9.733  22.784  0.00  0.00    +0.000 A 
ATOM     25  C   UNL     1       1.880   9.012  21.870  0.00  0.00    +0.000 A 
ENDBRANCH  19  20
ENDBRANCH  18  19
ENDBRANCH   7  18
BRANCH   7  26
ATOM     26  O   UNL     1       2.822   8.712  18.041  0.00  0.00    +0.000 OA
BRANCH  26  27
ATOM     27  C   UNL     1       1.507   8.983  17.440  0.00  0.00    +0.000 C 
BRANCH  27  28
ATOM     28  C   UNL     1       0.746  10.014  18.228  0.00  0.00    +0.000 A 
ATOM     29  C   UNL     1       1.444  11.037  18.907  0.00  0.00    +0.000 A 
ATOM     30  C   UNL     1       0.770  11.996  19.654  0.00  0.00    +0.000 A 
ATOM     31  C   UNL     1      -0.621  11.967  19.716  0.00  0.00    +0.000 A 
ATOM     32  C   UNL     1      -1.321  10.983  19.020  0.00  0.00    +0.000 A 
ATOM     33  C   UNL     1      -0.648  10.009  18.271  0.00  0.00    +0.000 A 
ENDBRANCH  27  28
ENDBRANCH  26  27
ENDBRANCH   7  26
TORSDOF 9
ENDMDL
MODEL 7
REMARK VINA RESULT:      -6.9      4.392      8.473
REMARK  Name = 
REMARK  12 active torsions:
REMARK  status: ('A' for Active; 'I' for Inactive)
REMARK    1  A    between atoms: C_1  and  C_2
REMARK    2  A    between atoms: C_2  and  C_3
REMARK    3  A    between atoms: C_2  and  C_4
REMARK    4  A    between atoms: C_2  and  C_5
REMARK    5  A    between atoms: C_5  and  O_7
REMARK    6  A    between atoms: O_7  and  N_8
REMARK    7  A    between atoms: C_14  and  O_15
REMARK    8  A    between atoms: C_14  and  O_23
REMARK    9  A    between atoms: O_15  and  C_16
REMARK   10  A    between atoms: C_16  and  C_17
REMARK   11  A    between atoms: O_23  and  C_24
REMARK   12  A    between atoms: C_24  and  C_25
REMARK                            x       y       z     vdW  Elec       q    Type
REMARK                         _______ _______ _______ _____ _____    ______ ____
ROOT
ATOM      1  N   UNL     1       3.989   3.468  17.884  0.00  0.00    +0.000 N 
ATOM      2  N   UNL     1       4.260   3.054  16.539  0.00  0.00    +0.000 NA
ATOM      3  N   UNL     1       4.707   4.069  15.900  0.00  0.00    +0.000 NA
ATOM      4  C   UNL     1       5.025   5.032  16.932  0.00  0.00    +0.000 C 
ATOM      5  C   UNL     1       5.186   6.496  16.885  0.00  0.00    +0.000 C 
ATOM      6  C   UNL     1       3.942   7.357  16.800  0.00  0.00    +0.000 C 
ATOM      7  C   UNL     1       3.107   7.292  18.143  0.00  0.00    +0.000 C 
ATOM      8  C   UNL     1       4.134   6.187  18.750  0.00  0.00    +0.000 C 
ATOM      9  O   UNL     1       5.431   6.662  18.321  0.00  0.00    +0.000 OA
ATOM     10  C   UNL     1       3.830   4.905  17.834  0.00  0.00    +0.000 C 
ENDROOT
BRANCH   1  11
ATOM     11  O   UNL     1       3.002   2.754  18.632  0.00  0.00    +0.000 OA
BRANCH  11  12
ATOM     12  C   UNL     1       3.258   2.687  19.985  0.00  0.00    +0.000 C 
ATOM     13  O   UNL     1       4.297   2.273  20.496  0.00  0.00    +0.000 OA
BRANCH  12  15
ATOM     14  C   UNL     1       1.601   2.125  21.786  0.00  0.00    +0.000 C 
ATOM     15  C   UNL     1       2.063   3.213  20.803  0.00  0.00    +0.000 C 
ATOM     16  C   UNL     1       0.890   3.572  19.885  0.00  0.00    +0.000 C 
ATOM     17  C   UNL     1       2.498   4.437  21.626  0.00  0.00    +0.000 C 
ENDBRANCH  12  15
ENDBRANCH  11  12
ENDBRANCH   1  11
BRANCH   7  18
ATOM     18  O   UNL     1       1.984   6.791  18.889  0.00  0.00    +0.000 OA
BRANCH  18  19
ATOM     19  C   UNL     1       2.291   7.179  20.306  0.00  0.00    +0.000 C 
BRANCH  19  20
ATOM     20  C   UNL     1       1.385   7.952  21.231  0.00  0.00    +0.000 A 
ATOM     21  C   UNL     1       1.813   8.924  22.134  0.00  0.00    +0.000 A 
ATOM     22  C   UNL     1       0.897   9.693  22.820  0.00  0.00    +0.000 A 
ATOM     23  C   UNL     1      -0.492   9.544  22.604  0.00  0.00    +0.000 A 
ATOM     24  C   UNL     1      -0.950   8.562  21.708  0.00  0.00    +0.000 A 
ATOM     25  C   UNL     1      -0.039   7.793  21.041  0.00  0.00    +0.000 A 
ENDBRANCH  19  20
ENDBRANCH  18  19
ENDBRANCH   7  18
BRANCH   7  26
ATOM     26  O   UNL     1       2.814   8.714  18.166  0.00  0.00    +0.000 OA
BRANCH  26  27
ATOM     27  C   UNL     1       1.559   9.025  17.462  0.00  0.00    +0.000 C 
BRANCH  27  28
ATOM     28  C   UNL     1       0.733  10.020  18.230  0.00  0.00    +0.000 A 
ATOM     29  C   UNL     1      -0.677   9.995  18.124  0.00  0.00    +0.000 A 
ATOM     30  C   UNL     1      -1.467  10.909  18.810  0.00  0.00    +0.000 A 
ATOM     31  C   UNL     1      -0.865  11.853  19.639  0.00  0.00    +0.000 A 
ATOM     32  C   UNL     1       0.522  11.863  19.778  0.00  0.00    +0.000 A 
ATOM     33  C   UNL     1       1.326  10.949  19.084  0.00  0.00    +0.000 A 
ENDBRANCH  27  28
ENDBRANCH  26  27
ENDBRANCH   7  26
TORSDOF 9
ENDMDL
MODEL 8
REMARK VINA RESULT:      -6.9      4.382      7.848
REMARK  Name = 
REMARK  12 active torsions:
REMARK  status: ('A' for Active; 'I' for Inactive)
REMARK    1  A    between atoms: C_1  and  C_2
REMARK    2  A    between atoms: C_2  and  C_3
REMARK    3  A    between atoms: C_2  and  C_4
REMARK    4  A    between atoms: C_2  and  C_5
REMARK    5  A    between atoms: C_5  and  O_7
REMARK    6  A    between atoms: O_7  and  N_8
REMARK    7  A    between atoms: C_14  and  O_15
REMARK    8  A    between atoms: C_14  and  O_23
REMARK    9  A    between atoms: O_15  and  C_16
REMARK   10  A    between atoms: C_16  and  C_17
REMARK   11  A    between atoms: O_23  and  C_24
REMARK   12  A    between atoms: C_24  and  C_25
REMARK                            x       y       z     vdW  Elec       q    Type
REMARK                         _______ _______ _______ _____ _____    ______ ____
ROOT
ATOM      1  N   UNL     1       4.424   3.408  18.890  0.00  0.00    +0.000 N 
ATOM      2  N   UNL     1       4.815   2.522  19.946  0.00  0.00    +0.000 NA
ATOM      3  N   UNL     1       3.873   2.504  20.812  0.00  0.00    +0.000 NA
ATOM      4  C   UNL     1       2.753   3.123  20.136  0.00  0.00    +0.000 C 
ATOM      5  C   UNL     1       1.533   3.768  20.656  0.00  0.00    +0.000 C 
ATOM      6  C   UNL     1       1.646   5.163  21.237  0.00  0.00    +0.000 C 
ATOM      7  C   UNL     1       1.970   6.228  20.112  0.00  0.00    +0.000 C 
ATOM      8  C   UNL     1       2.085   5.047  19.001  0.00  0.00    +0.000 C 
ATOM      9  O   UNL     1       1.002   4.153  19.345  0.00  0.00    +0.000 OA
ATOM     10  C   UNL     1       3.422   4.285  19.457  0.00  0.00    +0.000 C 
ENDROOT
BRANCH   1  11
ATOM     11  O   UNL     1       5.445   4.042  18.117  0.00  0.00    +0.000 OA
BRANCH  11  12
ATOM     12  C   UNL     1       5.093   4.283  16.806  0.00  0.00    +0.000 C 
ATOM     13  O   UNL     1       4.236   3.671  16.173  0.00  0.00    +0.000 OA
BRANCH  12  15
ATOM     14  C   UNL     1       7.247   5.562  16.976  0.00  0.00    +0.000 C 
ATOM     15  C   UNL     1       5.916   5.443  16.215  0.00  0.00    +0.000 C 
ATOM     16  C   UNL     1       5.160   6.770  16.344  0.00  0.00    +0.000 C 
ATOM     17  C   UNL     1       6.240   5.149  14.741  0.00  0.00    +0.000 C 
ENDBRANCH  12  15
ENDBRANCH  11  12
ENDBRANCH   1  11
BRANCH   7  18
ATOM     18  O   UNL     1       2.910   7.081  19.437  0.00  0.00    +0.000 OA
BRANCH  18  19
ATOM     19  C   UNL     1       2.161   7.556  18.225  0.00  0.00    +0.000 C 
BRANCH  19  20
ATOM     20  C   UNL     1       1.594   8.937  18.019  0.00  0.00    +0.000 A 
ATOM     21  C   UNL     1       0.234   9.242  17.990  0.00  0.00    +0.000 A 
ATOM     22  C   UNL     1      -0.188  10.554  17.960  0.00  0.00    +0.000 A 
ATOM     23  C   UNL     1       0.738  11.623  17.992  0.00  0.00    +0.000 A 
ATOM     24  C   UNL     1       2.116  11.342  18.007  0.00  0.00    +0.000 A 
ATOM     25  C   UNL     1       2.529  10.040  18.023  0.00  0.00    +0.000 A 
ENDBRANCH  19  20
ENDBRANCH  18  19
ENDBRANCH   7  18
BRANCH   7  26
ATOM     26  O   UNL     1       1.049   7.225  20.629  0.00  0.00    +0.000 OA
BRANCH  26  27
ATOM     27  C   UNL     1       1.722   8.180  21.523  0.00  0.00    +0.000 C 
BRANCH  27  28
ATOM     28  C   UNL     1       0.805   9.309  21.910  0.00  0.00    +0.000 A 
ATOM     29  C   UNL     1       0.968  10.582  21.319  0.00  0.00    +0.000 A 
ATOM     30  C   UNL     1       0.146  11.648  21.666  0.00  0.00    +0.000 A 
ATOM     31  C   UNL     1      -0.875  11.455  22.593  0.00  0.00    +0.000 A 
ATOM     32  C   UNL     1      -1.068  10.194  23.154  0.00  0.00    +0.000 A 
ATOM     33  C   UNL     1      -0.239   9.117  22.815  0.00  0.00    +0.000 A 
ENDBRANCH  27  28
ENDBRANCH  26  27
ENDBRANCH   7  26
TORSDOF 9
ENDMDL
MODEL 9
REMARK VINA RESULT:      -6.8      1.075      1.534
REMARK  Name = 
REMARK  12 active torsions:
REMARK  status: ('A' for Active; 'I' for Inactive)
REMARK    1  A    between atoms: C_1  and  C_2
REMARK    2  A    between atoms: C_2  and  C_3
REMARK    3  A    between atoms: C_2  and  C_4
REMARK    4  A    between atoms: C_2  and  C_5
REMARK    5  A    between atoms: C_5  and  O_7
REMARK    6  A    between atoms: O_7  and  N_8
REMARK    7  A    between atoms: C_14  and  O_15
REMARK    8  A    between atoms: C_14  and  O_23
REMARK    9  A    between atoms: O_15  and  C_16
REMARK   10  A    between atoms: C_16  and  C_17
REMARK   11  A    between atoms: O_23  and  C_24
REMARK   12  A    between atoms: C_24  and  C_25
REMARK                            x       y       z     vdW  Elec       q    Type
REMARK                         _______ _______ _______ _____ _____    ______ ____
ROOT
ATOM      1  N   UNL     1      -0.679  12.692  22.568  0.00  0.00    +0.000 N 
ATOM      2  N   UNL     1      -1.973  12.442  23.130  0.00  0.00    +0.000 NA
ATOM      3  N   UNL     1      -2.100  11.177  23.275  0.00  0.00    +0.000 NA
ATOM      4  C   UNL     1      -0.757  10.661  23.112  0.00  0.00    +0.000 C 
ATOM      5  C   UNL     1      -0.263   9.317  22.763  0.00  0.00    +0.000 C 
ATOM      6  C   UNL     1      -0.356   8.866  21.319  0.00  0.00    +0.000 C 
ATOM      7  C   UNL     1       0.636   9.687  20.398  0.00  0.00    +0.000 C 
ATOM      8  C   UNL     1       1.065  10.619  21.659  0.00  0.00    +0.000 C 
ATOM      9  O   UNL     1       1.157   9.681  22.755  0.00  0.00    +0.000 OA
ATOM     10  C   UNL     1      -0.276  11.457  21.930  0.00  0.00    +0.000 C 
ENDROOT
BRANCH   1  11
ATOM     11  O   UNL     1      -0.485  13.884  21.803  0.00  0.00    +0.000 OA
BRANCH  11  12
ATOM     12  C   UNL     1      -0.266  15.013  22.562  0.00  0.00    +0.000 C 
ATOM     13  O   UNL     1      -0.166  15.042  23.787  0.00  0.00    +0.000 OA
BRANCH  12  15
ATOM     14  C   UNL     1       1.305  16.758  21.673  0.00  0.00    +0.000 C 
ATOM     15  C   UNL     1      -0.152  16.266  21.673  0.00  0.00    +0.000 C 
ATOM     16  C   UNL     1      -1.048  17.392  22.197  0.00  0.00    +0.000 C 
ATOM     17  C   UNL     1      -0.527  15.908  20.226  0.00  0.00    +0.000 C 
ENDBRANCH  12  15
ENDBRANCH  11  12
ENDBRANCH   1  11
BRANCH   7  18
ATOM     18  O   UNL     1       0.866  10.728  19.432  0.00  0.00    +0.000 OA
BRANCH  18  19
ATOM     19  C   UNL     1       0.067  10.293  18.237  0.00  0.00    +0.000 C 
BRANCH  19  20
ATOM     20  C   UNL     1      -1.412  10.502  18.036  0.00  0.00    +0.000 A 
ATOM     21  C   UNL     1      -2.191  11.411  18.751  0.00  0.00    +0.000 A 
ATOM     22  C   UNL     1      -3.499  11.649  18.387  0.00  0.00    +0.000 A 
ATOM     23  C   UNL     1      -4.075  11.010  17.264  0.00  0.00    +0.000 A 
ATOM     24  C   UNL     1      -3.315  10.079  16.534  0.00  0.00    +0.000 A 
ATOM     25  C   UNL     1      -2.023   9.836  16.908  0.00  0.00    +0.000 A 
ENDBRANCH  19  20
ENDBRANCH  18  19
ENDBRANCH   7  18
BRANCH   7  26
ATOM     26  O   UNL     1       1.066   8.530  19.632  0.00  0.00    +0.000 OA
BRANCH  26  27
ATOM     27  C   UNL     1       1.972   7.668  20.407  0.00  0.00    +0.000 C 
BRANCH  27  28
ATOM     28  C   UNL     1       1.959   6.255  19.891  0.00  0.00    +0.000 A 
ATOM     29  C   UNL     1       1.399   5.224  20.679  0.00  0.00    +0.000 A 
ATOM     30  C   UNL     1       1.385   3.907  20.235  0.00  0.00    +0.000 A 
ATOM     31  C   UNL     1       1.905   3.597  18.982  0.00  0.00    +0.000 A 
ATOM     32  C   UNL     1       2.426   4.612  18.182  0.00  0.00    +0.000 A 
ATOM     33  C   UNL     1       2.452   5.941  18.624  0.00  0.00    +0.000 A 
ENDBRANCH  27  28
ENDBRANCH  26  27
ENDBRANCH   7  26
TORSDOF 9
ENDMDL
