MODEL 1
REMARK VINA RESULT:      -7.3      0.000      0.000
REMARK  Name = 
REMARK  18 active torsions:
REMARK  status: ('A' for Active; 'I' for Inactive)
REMARK    1  A    between atoms: C_1  and  C_2
REMARK    2  A    between atoms: C_2  and  C_3
REMARK    3  A    between atoms: C_3  and  C_4
REMARK    4  A    between atoms: C_4  and  C_5
REMARK    5  A    between atoms: C_5  and  C_6
REMARK    6  A    between atoms: C_6  and  C_7
REMARK    7  A    between atoms: C_7  and  C_8
REMARK    8  A    between atoms: C_8  and  C_9
REMARK    9  A    between atoms: C_9  and  C_10
REMARK   10  A    between atoms: N_12  and  C_13
REMARK   11  A    between atoms: C_13  and  C_14
REMARK   12  A    between atoms: C_13  and  C_19
REMARK   13  A    between atoms: C_14  and  C_15
REMARK   14  A    between atoms: C_15  and  C_16
REMARK   15  A    between atoms: C_16  and  C_17
REMARK   16  A    between atoms: C_17  and  N_18
REMARK   17  A    between atoms: C_19  and  N_20
REMARK   18  A    between atoms: N_24  and  C_25
REMARK                            x       y       z     vdW  Elec       q    Type
REMARK                         _______ _______ _______ _____ _____    ______ ____
ROOT
ATOM      1  C   UNL     1       2.698   5.659  18.200  0.00  0.00    +0.000 C 
ENDROOT
BRANCH   1   4
ATOM      2  C   UNL     1       4.997   4.790  17.897  0.00  0.00    +0.000 C 
ATOM      3  O   UNL     1       5.189   4.685  19.106  0.00  0.00    +0.000 OA
ATOM      4  N   UNL     1       3.797   5.190  17.356  0.00  0.00    +0.000 N 
ATOM      5  H   UNL     1       3.716   5.307  16.352  0.00  0.00    +0.000 HD
BRANCH   2   6
ATOM      6  C   UNL     1       6.082   4.468  16.888  0.00  0.00    +0.000 C 
BRANCH   6   7
ATOM      7  C   UNL     1       6.764   5.710  16.320  0.00  0.00    +0.000 C 
BRANCH   7   8
ATOM      8  C   UNL     1       6.526   6.945  17.190  0.00  0.00    +0.000 C 
BRANCH   8   9
ATOM      9  C   UNL     1       7.816   7.401  17.867  0.00  0.00    +0.000 C 
BRANCH   9  10
ATOM     10  C   UNL     1       7.992   8.911  17.725  0.00  0.00    +0.000 C 
BRANCH  10  11
ATOM     11  C   UNL     1       8.886   9.471  18.827  0.00  0.00    +0.000 C 
BRANCH  11  12
ATOM     12  C   UNL     1       9.254  10.925  18.539  0.00  0.00    +0.000 C 
BRANCH  12  14
ATOM     13  C   UNL     1      10.545  11.830  20.494  0.00  0.00    +0.000 C 
ATOM     14  C   UNL     1      10.637  11.267  19.086  0.00  0.00    +0.000 C 
ENDBRANCH  12  14
ENDBRANCH  11  12
ENDBRANCH  10  11
ENDBRANCH   9  10
ENDBRANCH   8   9
ENDBRANCH   7   8
ENDBRANCH   6   7
ENDBRANCH   2   6
ENDBRANCH   1   4
BRANCH   1  15
ATOM     15  C   UNL     1       3.159   6.770  19.162  0.00  0.00    +0.000 C 
BRANCH  15  16
ATOM     16  N   UNL     1       2.127   7.733  19.505  0.00  0.00    +0.000 N 
ATOM     17  C   UNL     1       1.432   7.710  20.758  0.00  0.00    +0.000 C 
ATOM     18  C   UNL     1       0.698   9.035  20.701  0.00  0.00    +0.000 C 
ATOM     19  O   UNL     1       0.005   9.429  21.629  0.00  0.00    +0.000 OA
ATOM     20  N   UNL     1       0.923   9.622  19.472  0.00  0.00    +0.000 N 
ATOM     21  C   UNL     1       1.782   8.827  18.732  0.00  0.00    +0.000 C 
ATOM     22  O   UNL     1       2.248   9.020  17.617  0.00  0.00    +0.000 OA
BRANCH  20  23
ATOM     23  C   UNL     1       0.393  10.873  19.047  0.00  0.00    +0.000 A 
ATOM     24  C   UNL     1      -0.911  10.973  18.534  0.00  0.00    +0.000 A 
ATOM     25  C   UNL     1      -1.433  12.196  18.100  0.00  0.00    +0.000 A 
ATOM     26  C   UNL     1      -0.653  13.346  18.159  0.00  0.00    +0.000 A 
ATOM     27  C   UNL     1       0.641  13.265  18.666  0.00  0.00    +0.000 A 
ATOM     28 CL   UNL     1       1.622  14.678  18.714  0.00  0.00    +0.000 Cl
ATOM     29  C   UNL     1       1.156  12.048  19.117  0.00  0.00    +0.000 A 
ENDBRANCH  20  23
ENDBRANCH  15  16
ENDBRANCH   1  15
BRANCH   1  30
ATOM     30  C   UNL     1       2.097   4.470  18.980  0.00  0.00    +0.000 C 
BRANCH  30  31
ATOM     31  C   UNL     1       1.682   3.272  18.118  0.00  0.00    +0.000 C 
BRANCH  31  32
ATOM     32  C   UNL     1       2.099   1.920  18.705  0.00  0.00    +0.000 C 
BRANCH  32  33
ATOM     33  C   UNL     1       3.516   1.563  18.266  0.00  0.00    +0.000 C 
BRANCH  33  34
ATOM     34  N   UNL     1       4.440   1.654  19.387  0.00  0.00    +0.000 NA
ATOM     35  H   UNL     1       5.401   1.562  19.062  0.00  0.00    +0.000 HD
ATOM     36  H   UNL     1       4.277   0.877  20.026  0.00  0.00    +0.000 HD
ENDBRANCH  33  34
ENDBRANCH  32  33
ENDBRANCH  31  32
ENDBRANCH  30  31
ENDBRANCH   1  30
TORSDOF 17
ENDMDL
MODEL 2
REMARK VINA RESULT:      -7.1      2.800      4.872
REMARK  Name = 
REMARK  18 active torsions:
REMARK  status: ('A' for Active; 'I' for Inactive)
REMARK    1  A    between atoms: C_1  and  C_2
REMARK    2  A    between atoms: C_2  and  C_3
REMARK    3  A    between atoms: C_3  and  C_4
REMARK    4  A    between atoms: C_4  and  C_5
REMARK    5  A    between atoms: C_5  and  C_6
REMARK    6  A    between atoms: C_6  and  C_7
REMARK    7  A    between atoms: C_7  and  C_8
REMARK    8  A    between atoms: C_8  and  C_9
REMARK    9  A    between atoms: C_9  and  C_10
REMARK   10  A    between atoms: N_12  and  C_13
REMARK   11  A    between atoms: C_13  and  C_14
REMARK   12  A    between atoms: C_13  and  C_19
REMARK   13  A    between atoms: C_14  and  C_15
REMARK   14  A    between atoms: C_15  and  C_16
REMARK   15  A    between atoms: C_16  and  C_17
REMARK   16  A    between atoms: C_17  and  N_18
REMARK   17  A    between atoms: C_19  and  N_20
REMARK   18  A    between atoms: N_24  and  C_25
REMARK                            x       y       z     vdW  Elec       q    Type
REMARK                         _______ _______ _______ _____ _____    ______ ____
ROOT
ATOM      1  C   UNL     1       3.006   5.695  17.867  0.00  0.00    +0.000 C 
ENDROOT
BRANCH   1   4
ATOM      2  C   UNL     1       5.045   4.316  17.590  0.00  0.00    +0.000 C 
ATOM      3  O   UNL     1       4.948   3.828  18.713  0.00  0.00    +0.000 OA
ATOM      4  N   UNL     1       4.115   5.183  17.062  0.00  0.00    +0.000 N 
ATOM      5  H   UNL     1       4.276   5.593  16.149  0.00  0.00    +0.000 HD
BRANCH   2   6
ATOM      6  C   UNL     1       6.209   3.987  16.677  0.00  0.00    +0.000 C 
BRANCH   6   7
ATOM      7  C   UNL     1       6.788   5.213  15.974  0.00  0.00    +0.000 C 
BRANCH   7   8
ATOM      8  C   UNL     1       6.631   5.133  14.456  0.00  0.00    +0.000 C 
BRANCH   8   9
ATOM      9  C   UNL     1       6.215   3.732  14.016  0.00  0.00    +0.000 C 
BRANCH   9  10
ATOM     10  C   UNL     1       5.091   3.803  12.987  0.00  0.00    +0.000 C 
BRANCH  10  11
ATOM     11  C   UNL     1       5.338   2.842  11.828  0.00  0.00    +0.000 C 
BRANCH  11  12
ATOM     12  C   UNL     1       4.120   2.777  10.910  0.00  0.00    +0.000 C 
BRANCH  12  14
ATOM     13  C   UNL     1       2.826   4.197   9.291  0.00  0.00    +0.000 C 
ATOM     14  C   UNL     1       3.570   4.170  10.616  0.00  0.00    +0.000 C 
ENDBRANCH  12  14
ENDBRANCH  11  12
ENDBRANCH  10  11
ENDBRANCH   9  10
ENDBRANCH   8   9
ENDBRANCH   7   8
ENDBRANCH   6   7
ENDBRANCH   2   6
ENDBRANCH   1   4
BRANCH   1  15
ATOM     15  C   UNL     1       3.465   6.832  18.802  0.00  0.00    +0.000 C 
BRANCH  15  16
ATOM     16  N   UNL     1       2.399   7.716  19.239  0.00  0.00    +0.000 N 
ATOM     17  C   UNL     1       1.806   7.628  20.540  0.00  0.00    +0.000 C 
ATOM     18  C   UNL     1       0.980   8.900  20.564  0.00  0.00    +0.000 C 
ATOM     19  O   UNL     1       0.336   9.233  21.549  0.00  0.00    +0.000 OA
ATOM     20  N   UNL     1       1.069   9.516  19.332  0.00  0.00    +0.000 N 
ATOM     21  C   UNL     1       1.921   8.792  18.514  0.00  0.00    +0.000 C 
ATOM     22  O   UNL     1       2.285   9.032  17.371  0.00  0.00    +0.000 OA
BRANCH  20  23
ATOM     23  C   UNL     1       0.424  10.732  18.971  0.00  0.00    +0.000 A 
ATOM     24  C   UNL     1      -0.876  10.734  18.435  0.00  0.00    +0.000 A 
ATOM     25  C   UNL     1      -1.511  11.924  18.064  0.00  0.00    +0.000 A 
ATOM     26  C   UNL     1      -0.851  13.139  18.209  0.00  0.00    +0.000 A 
ATOM     27  C   UNL     1       0.436  13.156  18.740  0.00  0.00    +0.000 A 
ATOM     28 CL   UNL     1       1.269  14.654  18.895  0.00  0.00    +0.000 Cl
ATOM     29  C   UNL     1       1.063  11.971  19.128  0.00  0.00    +0.000 A 
ENDBRANCH  20  23
ENDBRANCH  15  16
ENDBRANCH   1  15
BRANCH   1  30
ATOM     30  C   UNL     1       2.371   4.543  18.674  0.00  0.00    +0.000 C 
BRANCH  30  31
ATOM     31  C   UNL     1       1.375   3.677  17.894  0.00  0.00    +0.000 C 
BRANCH  31  32
ATOM     32  C   UNL     1       0.838   2.487  18.695  0.00  0.00    +0.000 C 
BRANCH  32  33
ATOM     33  C   UNL     1       1.980   1.760  19.401  0.00  0.00    +0.000 C 
BRANCH  33  34
ATOM     34  N   UNL     1       3.010   1.373  18.448  0.00  0.00    +0.000 NA
ATOM     35  H   UNL     1       3.153   0.365  18.472  0.00  0.00    +0.000 HD
ATOM     36  H   UNL     1       3.897   1.796  18.717  0.00  0.00    +0.000 HD
ENDBRANCH  33  34
ENDBRANCH  32  33
ENDBRANCH  31  32
ENDBRANCH  30  31
ENDBRANCH   1  30
TORSDOF 17
ENDMDL
MODEL 3
REMARK VINA RESULT:      -7.1      4.015      8.549
REMARK  Name = 
REMARK  18 active torsions:
REMARK  status: ('A' for Active; 'I' for Inactive)
REMARK    1  A    between atoms: C_1  and  C_2
REMARK    2  A    between atoms: C_2  and  C_3
REMARK    3  A    between atoms: C_3  and  C_4
REMARK    4  A    between atoms: C_4  and  C_5
REMARK    5  A    between atoms: C_5  and  C_6
REMARK    6  A    between atoms: C_6  and  C_7
REMARK    7  A    between atoms: C_7  and  C_8
REMARK    8  A    between atoms: C_8  and  C_9
REMARK    9  A    between atoms: C_9  and  C_10
REMARK   10  A    between atoms: N_12  and  C_13
REMARK   11  A    between atoms: C_13  and  C_14
REMARK   12  A    between atoms: C_13  and  C_19
REMARK   13  A    between atoms: C_14  and  C_15
REMARK   14  A    between atoms: C_15  and  C_16
REMARK   15  A    between atoms: C_16  and  C_17
REMARK   16  A    between atoms: C_17  and  N_18
REMARK   17  A    between atoms: C_19  and  N_20
REMARK   18  A    between atoms: N_24  and  C_25
REMARK                            x       y       z     vdW  Elec       q    Type
REMARK                         _______ _______ _______ _____ _____    ______ ____
ROOT
ATOM      1  C   UNL     1       3.357   5.355  19.962  0.00  0.00    +0.000 C 
ENDROOT
BRANCH   1   4
ATOM      2  C   UNL     1       2.330   7.455  19.145  0.00  0.00    +0.000 C 
ATOM      3  O   UNL     1       2.135   7.880  20.281  0.00  0.00    +0.000 OA
ATOM      4  N   UNL     1       2.978   6.268  18.885  0.00  0.00    +0.000 N 
ATOM      5  H   UNL     1       3.064   5.945  17.927  0.00  0.00    +0.000 HD
BRANCH   2   6
ATOM      6  C   UNL     1       1.878   8.223  17.919  0.00  0.00    +0.000 C 
BRANCH   6   7
ATOM      7  C   UNL     1       2.243   9.705  17.968  0.00  0.00    +0.000 C 
BRANCH   7   8
ATOM      8  C   UNL     1       1.016  10.592  18.185  0.00  0.00    +0.000 C 
BRANCH   8   9
ATOM      9  C   UNL     1      -0.276   9.825  17.912  0.00  0.00    +0.000 C 
BRANCH   9  10
ATOM     10  C   UNL     1      -1.422  10.390  18.746  0.00  0.00    +0.000 C 
BRANCH  10  11
ATOM     11  C   UNL     1      -2.754  10.271  18.011  0.00  0.00    +0.000 C 
BRANCH  11  12
ATOM     12  C   UNL     1      -2.543   9.752  16.591  0.00  0.00    +0.000 C 
BRANCH  12  14
ATOM     13  C   UNL     1      -3.087  10.118  14.166  0.00  0.00    +0.000 C 
ATOM     14  C   UNL     1      -3.461  10.461  15.598  0.00  0.00    +0.000 C 
ENDBRANCH  12  14
ENDBRANCH  11  12
ENDBRANCH  10  11
ENDBRANCH   9  10
ENDBRANCH   8   9
ENDBRANCH   7   8
ENDBRANCH   6   7
ENDBRANCH   2   6
ENDBRANCH   1   4
BRANCH   1  15
ATOM     15  C   UNL     1       4.037   4.086  19.414  0.00  0.00    +0.000 C 
BRANCH  15  16
ATOM     16  N   UNL     1       5.061   4.338  18.415  0.00  0.00    +0.000 N 
ATOM     17  C   UNL     1       6.441   4.522  18.752  0.00  0.00    +0.000 C 
ATOM     18  C   UNL     1       7.079   4.477  17.376  0.00  0.00    +0.000 C 
ATOM     19  O   UNL     1       8.290   4.553  17.224  0.00  0.00    +0.000 OA
ATOM     20  N   UNL     1       6.085   4.386  16.423  0.00  0.00    +0.000 N 
ATOM     21  C   UNL     1       4.851   4.316  17.048  0.00  0.00    +0.000 C 
ATOM     22  O   UNL     1       3.739   4.189  16.554  0.00  0.00    +0.000 OA
BRANCH  20  23
ATOM     23  C   UNL     1       6.295   4.328  15.017  0.00  0.00    +0.000 A 
ATOM     24  C   UNL     1       5.620   3.388  14.219  0.00  0.00    +0.000 A 
ATOM     25  C   UNL     1       5.832   3.314  12.839  0.00  0.00    +0.000 A 
ATOM     26  C   UNL     1       6.738   4.174  12.228  0.00  0.00    +0.000 A 
ATOM     27  C   UNL     1       7.415   5.113  13.002  0.00  0.00    +0.000 A 
ATOM     28 CL   UNL     1       8.559   6.159  12.256  0.00  0.00    +0.000 Cl
ATOM     29  C   UNL     1       7.189   5.199  14.377  0.00  0.00    +0.000 A 
ENDBRANCH  20  23
ENDBRANCH  15  16
ENDBRANCH   1  15
BRANCH   1  30
ATOM     30  C   UNL     1       2.113   4.993  20.801  0.00  0.00    +0.000 C 
BRANCH  30  31
ATOM     31  C   UNL     1       0.982   4.309  20.022  0.00  0.00    +0.000 C 
BRANCH  31  32
ATOM     32  C   UNL     1       0.976   2.784  20.162  0.00  0.00    +0.000 C 
BRANCH  32  33
ATOM     33  C   UNL     1       0.606   2.128  18.835  0.00  0.00    +0.000 C 
BRANCH  33  34
ATOM     34  N   UNL     1       1.739   2.139  17.922  0.00  0.00    +0.000 NA
ATOM     35  H   UNL     1       1.600   1.459  17.177  0.00  0.00    +0.000 HD
ATOM     36  H   UNL     1       2.580   1.851  18.421  0.00  0.00    +0.000 HD
ENDBRANCH  33  34
ENDBRANCH  32  33
ENDBRANCH  31  32
ENDBRANCH  30  31
ENDBRANCH   1  30
TORSDOF 17
ENDMDL
MODEL 4
REMARK VINA RESULT:      -7.1      4.290      8.642
REMARK  Name = 
REMARK  18 active torsions:
REMARK  status: ('A' for Active; 'I' for Inactive)
REMARK    1  A    between atoms: C_1  and  C_2
REMARK    2  A    between atoms: C_2  and  C_3
REMARK    3  A    between atoms: C_3  and  C_4
REMARK    4  A    between atoms: C_4  and  C_5
REMARK    5  A    between atoms: C_5  and  C_6
REMARK    6  A    between atoms: C_6  and  C_7
REMARK    7  A    between atoms: C_7  and  C_8
REMARK    8  A    between atoms: C_8  and  C_9
REMARK    9  A    between atoms: C_9  and  C_10
REMARK   10  A    between atoms: N_12  and  C_13
REMARK   11  A    between atoms: C_13  and  C_14
REMARK   12  A    between atoms: C_13  and  C_19
REMARK   13  A    between atoms: C_14  and  C_15
REMARK   14  A    between atoms: C_15  and  C_16
REMARK   15  A    between atoms: C_16  and  C_17
REMARK   16  A    between atoms: C_17  and  N_18
REMARK   17  A    between atoms: C_19  and  N_20
REMARK   18  A    between atoms: N_24  and  C_25
REMARK                            x       y       z     vdW  Elec       q    Type
REMARK                         _______ _______ _______ _____ _____    ______ ____
ROOT
ATOM      1  C   UNL     1       3.342   5.415  19.590  0.00  0.00    +0.000 C 
ENDROOT
BRANCH   1   4
ATOM      2  C   UNL     1       3.051   7.399  18.135  0.00  0.00    +0.000 C 
ATOM      3  O   UNL     1       4.257   7.509  17.931  0.00  0.00    +0.000 OA
ATOM      4  N   UNL     1       2.501   6.375  18.873  0.00  0.00    +0.000 N 
ATOM      5  H   UNL     1       1.503   6.366  19.050  0.00  0.00    +0.000 HD
BRANCH   2   6
ATOM      6  C   UNL     1       2.054   8.391  17.570  0.00  0.00    +0.000 C 
BRANCH   6   7
ATOM      7  C   UNL     1       1.342   9.209  18.645  0.00  0.00    +0.000 C 
BRANCH   7   8
ATOM      8  C   UNL     1       1.643  10.703  18.524  0.00  0.00    +0.000 C 
BRANCH   8   9
ATOM      9  C   UNL     1       0.375  11.537  18.692  0.00  0.00    +0.000 C 
BRANCH   9  10
ATOM     10  C   UNL     1      -0.774  10.671  19.202  0.00  0.00    +0.000 C 
BRANCH  10  11
ATOM     11  C   UNL     1      -2.089  11.038  18.521  0.00  0.00    +0.000 C 
BRANCH  11  12
ATOM     12  C   UNL     1      -2.641   9.852  17.734  0.00  0.00    +0.000 C 
BRANCH  12  14
ATOM     13  C   UNL     1      -3.215  10.429  15.358  0.00  0.00    +0.000 C 
ATOM     14  C   UNL     1      -2.152   9.869  16.288  0.00  0.00    +0.000 C 
ENDBRANCH  12  14
ENDBRANCH  11  12
ENDBRANCH  10  11
ENDBRANCH   9  10
ENDBRANCH   8   9
ENDBRANCH   7   8
ENDBRANCH   6   7
ENDBRANCH   2   6
ENDBRANCH   1   4
BRANCH   1  15
ATOM     15  C   UNL     1       3.712   4.213  18.700  0.00  0.00    +0.000 C 
BRANCH  15  16
ATOM     16  N   UNL     1       4.871   4.429  17.851  0.00  0.00    +0.000 N 
ATOM     17  C   UNL     1       6.199   4.547  18.373  0.00  0.00    +0.000 C 
ATOM     18  C   UNL     1       7.013   4.488  17.095  0.00  0.00    +0.000 C 
ATOM     19  O   UNL     1       8.236   4.511  17.107  0.00  0.00    +0.000 OA
ATOM     20  N   UNL     1       6.154   4.452  16.015  0.00  0.00    +0.000 N 
ATOM     21  C   UNL     1       4.845   4.430  16.469  0.00  0.00    +0.000 C 
ATOM     22  O   UNL     1       3.805   4.359  15.828  0.00  0.00    +0.000 OA
BRANCH  20  23
ATOM     23  C   UNL     1       6.548   4.398  14.649  0.00  0.00    +0.000 A 
ATOM     24  C   UNL     1       7.454   5.331  14.117  0.00  0.00    +0.000 A 
ATOM     25  C   UNL     1       7.835   5.294  12.772  0.00  0.00    +0.000 A 
ATOM     26  C   UNL     1       7.306   4.326  11.925  0.00  0.00    +0.000 A 
ATOM     27  C   UNL     1       6.408   3.392  12.436  0.00  0.00    +0.000 A 
ATOM     28 CL   UNL     1       5.726   2.211  11.387  0.00  0.00    +0.000 Cl
ATOM     29  C   UNL     1       6.042   3.417  13.783  0.00  0.00    +0.000 A 
ENDBRANCH  20  23
ENDBRANCH  15  16
ENDBRANCH   1  15
BRANCH   1  30
ATOM     30  C   UNL     1       2.621   4.949  20.873  0.00  0.00    +0.000 C 
BRANCH  30  31
ATOM     31  C   UNL     1       2.209   3.472  20.885  0.00  0.00    +0.000 C 
BRANCH  31  32
ATOM     32  C   UNL     1       0.740   3.242  20.519  0.00  0.00    +0.000 C 
BRANCH  32  33
ATOM     33  C   UNL     1       0.631   2.451  19.218  0.00  0.00    +0.000 C 
BRANCH  33  34
ATOM     34  N   UNL     1       1.736   1.512  19.093  0.00  0.00    +0.000 NA
ATOM     35  H   UNL     1       1.438   0.577  19.362  0.00  0.00    +0.000 HD
ATOM     36  H   UNL     1       2.479   1.775  19.740  0.00  0.00    +0.000 HD
ENDBRANCH  33  34
ENDBRANCH  32  33
ENDBRANCH  31  32
ENDBRANCH  30  31
ENDBRANCH   1  30
TORSDOF 17
ENDMDL
MODEL 5
REMARK VINA RESULT:      -7.0      3.965      7.267
REMARK  Name = 
REMARK  18 active torsions:
REMARK  status: ('A' for Active; 'I' for Inactive)
REMARK    1  A    between atoms: C_1  and  C_2
REMARK    2  A    between atoms: C_2  and  C_3
REMARK    3  A    between atoms: C_3  and  C_4
REMARK    4  A    between atoms: C_4  and  C_5
REMARK    5  A    between atoms: C_5  and  C_6
REMARK    6  A    between atoms: C_6  and  C_7
REMARK    7  A    between atoms: C_7  and  C_8
REMARK    8  A    between atoms: C_8  and  C_9
REMARK    9  A    between atoms: C_9  and  C_10
REMARK   10  A    between atoms: N_12  and  C_13
REMARK   11  A    between atoms: C_13  and  C_14
REMARK   12  A    between atoms: C_13  and  C_19
REMARK   13  A    between atoms: C_14  and  C_15
REMARK   14  A    between atoms: C_15  and  C_16
REMARK   15  A    between atoms: C_16  and  C_17
REMARK   16  A    between atoms: C_17  and  N_18
REMARK   17  A    between atoms: C_19  and  N_20
REMARK   18  A    between atoms: N_24  and  C_25
REMARK                            x       y       z     vdW  Elec       q    Type
REMARK                         _______ _______ _______ _____ _____    ______ ____
ROOT
ATOM      1  C   UNL     1       1.638  10.225  18.514  0.00  0.00    +0.000 C 
ENDROOT
BRANCH   1   4
ATOM      2  C   UNL     1       2.495   7.903  18.410  0.00  0.00    +0.000 C 
ATOM      3  O   UNL     1       2.319   7.713  19.611  0.00  0.00    +0.000 OA
ATOM      4  N   UNL     1       2.135   9.067  17.770  0.00  0.00    +0.000 N 
ATOM      5  H   UNL     1       2.353   9.185  16.786  0.00  0.00    +0.000 HD
BRANCH   2   6
ATOM      6  C   UNL     1       3.123   6.848  17.520  0.00  0.00    +0.000 C 
BRANCH   6   7
ATOM      7  C   UNL     1       4.080   5.922  18.267  0.00  0.00    +0.000 C 
BRANCH   7   8
ATOM      8  C   UNL     1       4.618   4.807  17.370  0.00  0.00    +0.000 C 
BRANCH   8   9
ATOM      9  C   UNL     1       4.117   3.439  17.828  0.00  0.00    +0.000 C 
BRANCH   9  10
ATOM     10  C   UNL     1       2.698   3.190  17.325  0.00  0.00    +0.000 C 
BRANCH  10  11
ATOM     11  C   UNL     1       1.994   2.123  18.157  0.00  0.00    +0.000 C 
BRANCH  11  12
ATOM     12  C   UNL     1       0.822   2.724  18.928  0.00  0.00    +0.000 C 
BRANCH  12  14
ATOM     13  C   UNL     1       1.312   4.574  20.557  0.00  0.00    +0.000 C 
ATOM     14  C   UNL     1       1.217   3.070  20.362  0.00  0.00    +0.000 C 
ENDBRANCH  12  14
ENDBRANCH  11  12
ENDBRANCH  10  11
ENDBRANCH   9  10
ENDBRANCH   8   9
ENDBRANCH   7   8
ENDBRANCH   6   7
ENDBRANCH   2   6
ENDBRANCH   1   4
BRANCH   1  15
ATOM     15  C   UNL     1       0.124  10.120  18.778  0.00  0.00    +0.000 C 
BRANCH  15  16
ATOM     16  N   UNL     1      -0.260  10.331  20.163  0.00  0.00    +0.000 N 
ATOM     17  C   UNL     1       0.301   9.576  21.244  0.00  0.00    +0.000 C 
ATOM     18  C   UNL     1      -0.222  10.354  22.436  0.00  0.00    +0.000 C 
ATOM     19  O   UNL     1       0.076  10.054  23.583  0.00  0.00    +0.000 OA
ATOM     20  N   UNL     1      -1.063  11.353  21.988  0.00  0.00    +0.000 N 
ATOM     21  C   UNL     1      -1.102  11.335  20.603  0.00  0.00    +0.000 C 
ATOM     22  O   UNL     1      -1.697  12.081  19.837  0.00  0.00    +0.000 OA
BRANCH  20  23
ATOM     23  C   UNL     1      -1.748  12.286  22.815  0.00  0.00    +0.000 A 
ATOM     24  C   UNL     1      -1.139  13.488  23.214  0.00  0.00    +0.000 A 
ATOM     25  C   UNL     1      -1.800  14.403  24.039  0.00  0.00    +0.000 A 
ATOM     26  C   UNL     1      -3.084  14.127  24.495  0.00  0.00    +0.000 A 
ATOM     27  C   UNL     1      -3.704  12.942  24.109  0.00  0.00    +0.000 A 
ATOM     28 CL   UNL     1      -5.282  12.581  24.693  0.00  0.00    +0.000 Cl
ATOM     29  C   UNL     1      -3.051  12.037  23.269  0.00  0.00    +0.000 A 
ENDBRANCH  20  23
ENDBRANCH  15  16
ENDBRANCH   1  15
BRANCH   1  30
ATOM     30  C   UNL     1       1.975  11.521  17.747  0.00  0.00    +0.000 C 
BRANCH  30  31
ATOM     31  C   UNL     1       2.586  12.640  18.599  0.00  0.00    +0.000 C 
BRANCH  31  32
ATOM     32  C   UNL     1       1.696  13.881  18.711  0.00  0.00    +0.000 C 
BRANCH  32  33
ATOM     33  C   UNL     1       1.208  14.061  20.146  0.00  0.00    +0.000 C 
BRANCH  33  34
ATOM     34  N   UNL     1       1.995  13.249  21.062  0.00  0.00    +0.000 NA
ATOM     35  H   UNL     1       1.603  13.295  22.001  0.00  0.00    +0.000 HD
ATOM     36  H   UNL     1       2.940  13.627  21.125  0.00  0.00    +0.000 HD
ENDBRANCH  33  34
ENDBRANCH  32  33
ENDBRANCH  31  32
ENDBRANCH  30  31
ENDBRANCH   1  30
TORSDOF 17
ENDMDL
MODEL 6
REMARK VINA RESULT:      -7.0      3.146      5.257
REMARK  Name = 
REMARK  18 active torsions:
REMARK  status: ('A' for Active; 'I' for Inactive)
REMARK    1  A    between atoms: C_1  and  C_2
REMARK    2  A    between atoms: C_2  and  C_3
REMARK    3  A    between atoms: C_3  and  C_4
REMARK    4  A    between atoms: C_4  and  C_5
REMARK    5  A    between atoms: C_5  and  C_6
REMARK    6  A    between atoms: C_6  and  C_7
REMARK    7  A    between atoms: C_7  and  C_8
REMARK    8  A    between atoms: C_8  and  C_9
REMARK    9  A    between atoms: C_9  and  C_10
REMARK   10  A    between atoms: N_12  and  C_13
REMARK   11  A    between atoms: C_13  and  C_14
REMARK   12  A    between atoms: C_13  and  C_19
REMARK   13  A    between atoms: C_14  and  C_15
REMARK   14  A    between atoms: C_15  and  C_16
REMARK   15  A    between atoms: C_16  and  C_17
REMARK   16  A    between atoms: C_17  and  N_18
REMARK   17  A    between atoms: C_19  and  N_20
REMARK   18  A    between atoms: N_24  and  C_25
REMARK                            x       y       z     vdW  Elec       q    Type
REMARK                         _______ _______ _______ _____ _____    ______ ____
ROOT
ATOM      1  C   UNL     1       3.176   5.998  17.376  0.00  0.00    +0.000 C 
ENDROOT
BRANCH   1   4
ATOM      2  C   UNL     1       5.179   5.458  16.024  0.00  0.00    +0.000 C 
ATOM      3  O   UNL     1       5.154   6.535  15.434  0.00  0.00    +0.000 OA
ATOM      4  N   UNL     1       4.301   5.130  17.032  0.00  0.00    +0.000 N 
ATOM      5  H   UNL     1       4.340   4.205  17.446  0.00  0.00    +0.000 HD
BRANCH   2   6
ATOM      6  C   UNL     1       6.206   4.393  15.692  0.00  0.00    +0.000 C 
BRANCH   6   7
ATOM      7  C   UNL     1       7.203   4.829  14.622  0.00  0.00    +0.000 C 
BRANCH   7   8
ATOM      8  C   UNL     1       6.752   4.425  13.217  0.00  0.00    +0.000 C 
BRANCH   8   9
ATOM      9  C   UNL     1       5.732   3.291  13.269  0.00  0.00    +0.000 C 
BRANCH   9  10
ATOM     10  C   UNL     1       5.331   2.864  11.860  0.00  0.00    +0.000 C 
BRANCH  10  11
ATOM     11  C   UNL     1       4.557   3.968  11.146  0.00  0.00    +0.000 C 
BRANCH  11  12
ATOM     12  C   UNL     1       3.312   3.402  10.466  0.00  0.00    +0.000 C 
BRANCH  12  14
ATOM     13  C   UNL     1       1.940   5.045   9.151  0.00  0.00    +0.000 C 
ATOM     14  C   UNL     1       3.084   4.045   9.101  0.00  0.00    +0.000 C 
ENDBRANCH  12  14
ENDBRANCH  11  12
ENDBRANCH  10  11
ENDBRANCH   9  10
ENDBRANCH   8   9
ENDBRANCH   7   8
ENDBRANCH   6   7
ENDBRANCH   2   6
ENDBRANCH   1   4
BRANCH   1  15
ATOM     15  C   UNL     1       3.591   7.091  18.379  0.00  0.00    +0.000 C 
BRANCH  15  16
ATOM     16  N   UNL     1       2.479   7.795  18.995  0.00  0.00    +0.000 N 
ATOM     17  C   UNL     1       1.997   7.480  20.306  0.00  0.00    +0.000 C 
ATOM     18  C   UNL     1       1.055   8.643  20.550  0.00  0.00    +0.000 C 
ATOM     19  O   UNL     1       0.456   8.778  21.608  0.00  0.00    +0.000 OA
ATOM     20  N   UNL     1       0.992   9.417  19.409  0.00  0.00    +0.000 N 
ATOM     21  C   UNL     1       1.847   8.898  18.451  0.00  0.00    +0.000 C 
ATOM     22  O   UNL     1       2.100   9.318  17.330  0.00  0.00    +0.000 OA
BRANCH  20  23
ATOM     23  C   UNL     1       0.206  10.594  19.254  0.00  0.00    +0.000 A 
ATOM     24  C   UNL     1      -0.975  10.584  18.493  0.00  0.00    +0.000 A 
ATOM     25  C   UNL     1      -1.745  11.740  18.323  0.00  0.00    +0.000 A 
ATOM     26  C   UNL     1      -1.339  12.937  18.903  0.00  0.00    +0.000 A 
ATOM     27  C   UNL     1      -0.172  12.965  19.662  0.00  0.00    +0.000 A 
ATOM     28 CL   UNL     1       0.351  14.449  20.358  0.00  0.00    +0.000 Cl
ATOM     29  C   UNL     1       0.586  11.807  19.847  0.00  0.00    +0.000 A 
ENDBRANCH  20  23
ENDBRANCH  15  16
ENDBRANCH   1  15
BRANCH   1  30
ATOM     30  C   UNL     1       2.015   5.150  17.937  0.00  0.00    +0.000 C 
BRANCH  30  31
ATOM     31  C   UNL     1       2.300   3.646  18.037  0.00  0.00    +0.000 C 
BRANCH  31  32
ATOM     32  C   UNL     1       3.097   3.255  19.285  0.00  0.00    +0.000 C 
BRANCH  32  33
ATOM     33  C   UNL     1       3.984   2.047  18.996  0.00  0.00    +0.000 C 
BRANCH  33  34
ATOM     34  N   UNL     1       5.111   2.005  19.915  0.00  0.00    +0.000 NA
ATOM     35  H   UNL     1       5.498   1.064  19.958  0.00  0.00    +0.000 HD
ATOM     36  H   UNL     1       4.790   2.227  20.857  0.00  0.00    +0.000 HD
ENDBRANCH  33  34
ENDBRANCH  32  33
ENDBRANCH  31  32
ENDBRANCH  30  31
ENDBRANCH   1  30
TORSDOF 17
ENDMDL
MODEL 7
REMARK VINA RESULT:      -7.0      3.922      8.716
REMARK  Name = 
REMARK  18 active torsions:
REMARK  status: ('A' for Active; 'I' for Inactive)
REMARK    1  A    between atoms: C_1  and  C_2
REMARK    2  A    between atoms: C_2  and  C_3
REMARK    3  A    between atoms: C_3  and  C_4
REMARK    4  A    between atoms: C_4  and  C_5
REMARK    5  A    between atoms: C_5  and  C_6
REMARK    6  A    between atoms: C_6  and  C_7
REMARK    7  A    between atoms: C_7  and  C_8
REMARK    8  A    between atoms: C_8  and  C_9
REMARK    9  A    between atoms: C_9  and  C_10
REMARK   10  A    between atoms: N_12  and  C_13
REMARK   11  A    between atoms: C_13  and  C_14
REMARK   12  A    between atoms: C_13  and  C_19
REMARK   13  A    between atoms: C_14  and  C_15
REMARK   14  A    between atoms: C_15  and  C_16
REMARK   15  A    between atoms: C_16  and  C_17
REMARK   16  A    between atoms: C_17  and  N_18
REMARK   17  A    between atoms: C_19  and  N_20
REMARK   18  A    between atoms: N_24  and  C_25
REMARK                            x       y       z     vdW  Elec       q    Type
REMARK                         _______ _______ _______ _____ _____    ______ ____
ROOT
ATOM      1  C   UNL     1       3.346   6.484  18.702  0.00  0.00    +0.000 C 
ENDROOT
BRANCH   1   4
ATOM      2  C   UNL     1       1.681   6.939  20.479  0.00  0.00    +0.000 C 
ATOM      3  O   UNL     1       1.975   5.925  21.106  0.00  0.00    +0.000 OA
ATOM      4  N   UNL     1       2.335   7.333  19.333  0.00  0.00    +0.000 N 
ATOM      5  H   UNL     1       2.014   8.153  18.831  0.00  0.00    +0.000 HD
BRANCH   2   6
ATOM      6  C   UNL     1       0.564   7.860  20.931  0.00  0.00    +0.000 C 
BRANCH   6   7
ATOM      7  C   UNL     1       1.030   8.937  21.908  0.00  0.00    +0.000 C 
BRANCH   7   8
ATOM      8  C   UNL     1       0.966  10.336  21.295  0.00  0.00    +0.000 C 
BRANCH   8   9
ATOM      9  C   UNL     1      -0.451  10.675  20.838  0.00  0.00    +0.000 C 
BRANCH   9  10
ATOM     10  C   UNL     1      -0.472  10.994  19.346  0.00  0.00    +0.000 C 
BRANCH  10  11
ATOM     11  C   UNL     1      -1.847  10.724  18.741  0.00  0.00    +0.000 C 
BRANCH  11  12
ATOM     12  C   UNL     1      -1.714  10.113  17.348  0.00  0.00    +0.000 C 
BRANCH  12  14
ATOM     13  C   UNL     1      -2.875   9.778  15.146  0.00  0.00    +0.000 C 
ATOM     14  C   UNL     1      -2.816  10.610  16.416  0.00  0.00    +0.000 C 
ENDBRANCH  12  14
ENDBRANCH  11  12
ENDBRANCH  10  11
ENDBRANCH   9  10
ENDBRANCH   8   9
ENDBRANCH   7   8
ENDBRANCH   6   7
ENDBRANCH   2   6
ENDBRANCH   1   4
BRANCH   1  15
ATOM     15  C   UNL     1       4.448   7.323  18.028  0.00  0.00    +0.000 C 
BRANCH  15  16
ATOM     16  N   UNL     1       5.444   6.543  17.315  0.00  0.00    +0.000 N 
ATOM     17  C   UNL     1       6.409   5.723  17.985  0.00  0.00    +0.000 C 
ATOM     18  C   UNL     1       6.993   4.957  16.813  0.00  0.00    +0.000 C 
ATOM     19  O   UNL     1       7.844   4.092  16.968  0.00  0.00    +0.000 OA
ATOM     20  N   UNL     1       6.441   5.435  15.642  0.00  0.00    +0.000 N 
ATOM     21  C   UNL     1       5.506   6.413  15.940  0.00  0.00    +0.000 C 
ATOM     22  O   UNL     1       4.780   7.044  15.184  0.00  0.00    +0.000 OA
BRANCH  20  23
ATOM     23  C   UNL     1       6.748   4.965  14.334  0.00  0.00    +0.000 A 
ATOM     24  C   UNL     1       7.786   5.540  13.581  0.00  0.00    +0.000 A 
ATOM     25  C   UNL     1       8.084   5.094  12.289  0.00  0.00    +0.000 A 
ATOM     26  C   UNL     1       7.338   4.069  11.718  0.00  0.00    +0.000 A 
ATOM     27  C   UNL     1       6.306   3.487  12.450  0.00  0.00    +0.000 A 
ATOM     28 CL   UNL     1       5.360   2.239  11.738  0.00  0.00    +0.000 Cl
ATOM     29  C   UNL     1       6.021   3.919  13.747  0.00  0.00    +0.000 A 
ENDBRANCH  20  23
ENDBRANCH  15  16
ENDBRANCH   1  15
BRANCH   1  30
ATOM     30  C   UNL     1       2.671   5.543  17.682  0.00  0.00    +0.000 C 
BRANCH  30  31
ATOM     31  C   UNL     1       2.524   4.087  18.141  0.00  0.00    +0.000 C 
BRANCH  31  32
ATOM     32  C   UNL     1       3.474   3.120  17.427  0.00  0.00    +0.000 C 
BRANCH  32  33
ATOM     33  C   UNL     1       3.455   1.754  18.106  0.00  0.00    +0.000 C 
BRANCH  33  34
ATOM     34  N   UNL     1       2.120   1.442  18.597  0.00  0.00    +0.000 NA
ATOM     35  H   UNL     1       2.174   1.014  19.519  0.00  0.00    +0.000 HD
ATOM     36  H   UNL     1       1.685   0.754  17.984  0.00  0.00    +0.000 HD
ENDBRANCH  33  34
ENDBRANCH  32  33
ENDBRANCH  31  32
ENDBRANCH  30  31
ENDBRANCH   1  30
TORSDOF 17
ENDMDL
MODEL 8
REMARK VINA RESULT:      -6.9      2.222      2.788
REMARK  Name = 
REMARK  18 active torsions:
REMARK  status: ('A' for Active; 'I' for Inactive)
REMARK    1  A    between atoms: C_1  and  C_2
REMARK    2  A    between atoms: C_2  and  C_3
REMARK    3  A    between atoms: C_3  and  C_4
REMARK    4  A    between atoms: C_4  and  C_5
REMARK    5  A    between atoms: C_5  and  C_6
REMARK    6  A    between atoms: C_6  and  C_7
REMARK    7  A    between atoms: C_7  and  C_8
REMARK    8  A    between atoms: C_8  and  C_9
REMARK    9  A    between atoms: C_9  and  C_10
REMARK   10  A    between atoms: N_12  and  C_13
REMARK   11  A    between atoms: C_13  and  C_14
REMARK   12  A    between atoms: C_13  and  C_19
REMARK   13  A    between atoms: C_14  and  C_15
REMARK   14  A    between atoms: C_15  and  C_16
REMARK   15  A    between atoms: C_16  and  C_17
REMARK   16  A    between atoms: C_17  and  N_18
REMARK   17  A    between atoms: C_19  and  N_20
REMARK   18  A    between atoms: N_24  and  C_25
REMARK                            x       y       z     vdW  Elec       q    Type
REMARK                         _______ _______ _______ _____ _____    ______ ____
ROOT
ATOM      1  C   UNL     1       2.719   5.367  19.358  0.00  0.00    +0.000 C 
ENDROOT
BRANCH   1   4
ATOM      2  C   UNL     1       3.153   3.776  17.510  0.00  0.00    +0.000 C 
ATOM      3  O   UNL     1       2.053   3.967  16.997  0.00  0.00    +0.000 OA
ATOM      4  N   UNL     1       3.596   4.458  18.620  0.00  0.00    +0.000 N 
ATOM      5  H   UNL     1       4.494   4.219  19.028  0.00  0.00    +0.000 HD
BRANCH   2   6
ATOM      6  C   UNL     1       4.132   2.767  16.941  0.00  0.00    +0.000 C 
BRANCH   6   7
ATOM      7  C   UNL     1       5.419   3.403  16.421  0.00  0.00    +0.000 C 
BRANCH   7   8
ATOM      8  C   UNL     1       5.178   4.241  15.165  0.00  0.00    +0.000 C 
BRANCH   8   9
ATOM      9  C   UNL     1       5.935   5.565  15.230  0.00  0.00    +0.000 C 
BRANCH   9  10
ATOM     10  C   UNL     1       5.151   6.593  16.042  0.00  0.00    +0.000 C 
BRANCH  10  11
ATOM     11  C   UNL     1       6.018   7.218  17.130  0.00  0.00    +0.000 C 
BRANCH  11  12
ATOM     12  C   UNL     1       7.373   6.519  17.210  0.00  0.00    +0.000 C 
BRANCH  12  14
ATOM     13  C   UNL     1       6.781   5.423  19.391  0.00  0.00    +0.000 C 
ATOM     14  C   UNL     1       7.794   6.286  18.659  0.00  0.00    +0.000 C 
ENDBRANCH  12  14
ENDBRANCH  11  12
ENDBRANCH  10  11
ENDBRANCH   9  10
ENDBRANCH   8   9
ENDBRANCH   7   8
ENDBRANCH   6   7
ENDBRANCH   2   6
ENDBRANCH   1   4
BRANCH   1  15
ATOM     15  C   UNL     1       3.124   6.838  19.148  0.00  0.00    +0.000 C 
BRANCH  15  16
ATOM     16  N   UNL     1       2.093   7.800  19.494  0.00  0.00    +0.000 N 
ATOM     17  C   UNL     1       1.390   7.765  20.742  0.00  0.00    +0.000 C 
ATOM     18  C   UNL     1       0.659   9.093  20.695  0.00  0.00    +0.000 C 
ATOM     19  O   UNL     1      -0.039   9.479  21.622  0.00  0.00    +0.000 OA
ATOM     20  N   UNL     1       0.894   9.693  19.474  0.00  0.00    +0.000 N 
ATOM     21  C   UNL     1       1.756   8.903  18.731  0.00  0.00    +0.000 C 
ATOM     22  O   UNL     1       2.230   9.108  17.622  0.00  0.00    +0.000 OA
BRANCH  20  23
ATOM     23  C   UNL     1       0.371  10.949  19.059  0.00  0.00    +0.000 A 
ATOM     24  C   UNL     1      -0.933  11.061  18.547  0.00  0.00    +0.000 A 
ATOM     25  C   UNL     1      -1.449  12.290  18.124  0.00  0.00    +0.000 A 
ATOM     26  C   UNL     1      -0.663  13.434  18.191  0.00  0.00    +0.000 A 
ATOM     27  C   UNL     1       0.631  13.343  18.697  0.00  0.00    +0.000 A 
ATOM     28 CL   UNL     1       1.620  14.751  18.755  0.00  0.00    +0.000 Cl
ATOM     29  C   UNL     1       1.140  12.120  19.138  0.00  0.00    +0.000 A 
ENDBRANCH  20  23
ENDBRANCH  15  16
ENDBRANCH   1  15
BRANCH   1  30
ATOM     30  C   UNL     1       2.732   5.001  20.857  0.00  0.00    +0.000 C 
BRANCH  30  31
ATOM     31  C   UNL     1       2.134   3.630  21.196  0.00  0.00    +0.000 C 
BRANCH  31  32
ATOM     32  C   UNL     1       0.897   3.279  20.365  0.00  0.00    +0.000 C 
BRANCH  32  33
ATOM     33  C   UNL     1       1.102   1.953  19.637  0.00  0.00    +0.000 C 
BRANCH  33  34
ATOM     34  N   UNL     1       0.349   1.930  18.391  0.00  0.00    +0.000 NA
ATOM     35  H   UNL     1       0.841   2.456  17.671  0.00  0.00    +0.000 HD
ATOM     36  H   UNL     1      -0.547   2.396  18.527  0.00  0.00    +0.000 HD
ENDBRANCH  33  34
ENDBRANCH  32  33
ENDBRANCH  31  32
ENDBRANCH  30  31
ENDBRANCH   1  30
TORSDOF 17
ENDMDL
MODEL 9
REMARK VINA RESULT:      -6.9      2.046      3.077
REMARK  Name = 
REMARK  18 active torsions:
REMARK  status: ('A' for Active; 'I' for Inactive)
REMARK    1  A    between atoms: C_1  and  C_2
REMARK    2  A    between atoms: C_2  and  C_3
REMARK    3  A    between atoms: C_3  and  C_4
REMARK    4  A    between atoms: C_4  and  C_5
REMARK    5  A    between atoms: C_5  and  C_6
REMARK    6  A    between atoms: C_6  and  C_7
REMARK    7  A    between atoms: C_7  and  C_8
REMARK    8  A    between atoms: C_8  and  C_9
REMARK    9  A    between atoms: C_9  and  C_10
REMARK   10  A    between atoms: N_12  and  C_13
REMARK   11  A    between atoms: C_13  and  C_14
REMARK   12  A    between atoms: C_13  and  C_19
REMARK   13  A    between atoms: C_14  and  C_15
REMARK   14  A    between atoms: C_15  and  C_16
REMARK   15  A    between atoms: C_16  and  C_17
REMARK   16  A    between atoms: C_17  and  N_18
REMARK   17  A    between atoms: C_19  and  N_20
REMARK   18  A    between atoms: N_24  and  C_25
REMARK                            x       y       z     vdW  Elec       q    Type
REMARK                         _______ _______ _______ _____ _____    ______ ____
ROOT
ATOM      1  C   UNL     1       1.822   5.264  20.070  0.00  0.00    +0.000 C 
ENDROOT
BRANCH   1   4
ATOM      2  C   UNL     1       2.617   4.676  17.798  0.00  0.00    +0.000 C 
ATOM      3  O   UNL     1       1.477   4.535  17.363  0.00  0.00    +0.000 OA
ATOM      4  N   UNL     1       2.887   5.094  19.082  0.00  0.00    +0.000 N 
ATOM      5  H   UNL     1       3.849   5.142  19.399  0.00  0.00    +0.000 HD
BRANCH   2   6
ATOM      6  C   UNL     1       3.836   4.411  16.938  0.00  0.00    +0.000 C 
BRANCH   6   7
ATOM      7  C   UNL     1       4.535   5.687  16.473  0.00  0.00    +0.000 C 
BRANCH   7   8
ATOM      8  C   UNL     1       5.923   5.405  15.899  0.00  0.00    +0.000 C 
BRANCH   8   9
ATOM      9  C   UNL     1       6.543   4.163  16.534  0.00  0.00    +0.000 C 
BRANCH   9  10
ATOM     10  C   UNL     1       7.687   4.552  17.468  0.00  0.00    +0.000 C 
BRANCH  10  11
ATOM     11  C   UNL     1       7.202   5.468  18.587  0.00  0.00    +0.000 C 
BRANCH  11  12
ATOM     12  C   UNL     1       8.068   6.722  18.672  0.00  0.00    +0.000 C 
BRANCH  12  14
ATOM     13  C   UNL     1       8.153   9.135  17.977  0.00  0.00    +0.000 C 
ATOM     14  C   UNL     1       7.677   7.741  17.604  0.00  0.00    +0.000 C 
ENDBRANCH  12  14
ENDBRANCH  11  12
ENDBRANCH  10  11
ENDBRANCH   9  10
ENDBRANCH   8   9
ENDBRANCH   7   8
ENDBRANCH   6   7
ENDBRANCH   2   6
ENDBRANCH   1   4
BRANCH   1  15
ATOM     15  C   UNL     1       2.027   6.539  20.909  0.00  0.00    +0.000 C 
BRANCH  15  16
ATOM     16  N   UNL     1       1.708   7.774  20.213  0.00  0.00    +0.000 N 
ATOM     17  C   UNL     1       2.286   8.120  18.949  0.00  0.00    +0.000 C 
ATOM     18  C   UNL     1       1.439   9.318  18.567  0.00  0.00    +0.000 C 
ATOM     19  O   UNL     1       1.586   9.899  17.500  0.00  0.00    +0.000 OA
ATOM     20  N   UNL     1       0.579   9.611  19.606  0.00  0.00    +0.000 N 
ATOM     21  C   UNL     1       0.748   8.682  20.620  0.00  0.00    +0.000 C 
ATOM     22  O   UNL     1       0.149   8.578  21.682  0.00  0.00    +0.000 OA
BRANCH  20  23
ATOM     23  C   UNL     1      -0.367  10.674  19.619  0.00  0.00    +0.000 A 
ATOM     24  C   UNL     1      -0.214  11.773  20.480  0.00  0.00    +0.000 A 
ATOM     25  C   UNL     1      -1.148  12.814  20.509  0.00  0.00    +0.000 A 
ATOM     26  C   UNL     1      -2.265  12.770  19.682  0.00  0.00    +0.000 A 
ATOM     27  C   UNL     1      -2.432  11.689  18.820  0.00  0.00    +0.000 A 
ATOM     28 CL   UNL     1      -3.827  11.613  17.815  0.00  0.00    +0.000 Cl
ATOM     29  C   UNL     1      -1.490  10.659  18.778  0.00  0.00    +0.000 A 
ENDBRANCH  20  23
ENDBRANCH  15  16
ENDBRANCH   1  15
BRANCH   1  30
ATOM     30  C   UNL     1       1.746   4.016  20.975  0.00  0.00    +0.000 C 
BRANCH  30  31
ATOM     31  C   UNL     1       2.863   2.987  20.757  0.00  0.00    +0.000 C 
BRANCH  31  32
ATOM     32  C   UNL     1       2.502   1.897  19.744  0.00  0.00    +0.000 C 
BRANCH  32  33
ATOM     33  C   UNL     1       3.749   1.422  19.004  0.00  0.00    +0.000 C 
BRANCH  33  34
ATOM     34  N   UNL     1       4.941   2.064  19.539  0.00  0.00    +0.000 NA
ATOM     35  H   UNL     1       5.346   2.692  18.848  0.00  0.00    +0.000 HD
ATOM     36  H   UNL     1       5.648   1.356  19.735  0.00  0.00    +0.000 HD
ENDBRANCH  33  34
ENDBRANCH  32  33
ENDBRANCH  31  32
ENDBRANCH  30  31
ENDBRANCH   1  30
TORSDOF 17
ENDMDL
