MODEL 1
REMARK VINA RESULT:      -8.4      0.000      0.000
REMARK  Name = 
REMARK  9 active torsions:
REMARK  status: ('A' for Active; 'I' for Inactive)
REMARK    1  A    between atoms: C_1  and  C_2
REMARK    2  A    between atoms: C_6  and  S_7
REMARK    3  A    between atoms: S_7  and  C_10
REMARK    4  A    between atoms: C_10  and  C_11
REMARK    5  A    between atoms: C_11  and  C_12
REMARK    6  A    between atoms: N_14  and  C_15
REMARK    7  A    between atoms: C_18  and  O_19
REMARK    8  A    between atoms: O_19  and  C_20
REMARK    9  A    between atoms: C_30  and  C_32
REMARK                            x       y       z     vdW  Elec       q    Type
REMARK                         _______ _______ _______ _____ _____    ______ ____
ROOT
ATOM      1  S   UNL     1       5.174   4.255  18.145  0.00  0.00    +0.000 S 
ATOM      2  O   UNL     1       5.652   3.936  19.478  0.00  0.00    +0.000 OA
ATOM      3  O   UNL     1       4.449   3.274  17.361  0.00  0.00    +0.000 OA
ENDROOT
BRANCH   1   9
ATOM      4  C   UNL     1       1.282   9.241  21.778  0.00  0.00    +0.000 C 
ATOM      5  C   UNL     1       0.930   8.306  20.618  0.00  0.00    +0.000 C 
ATOM      6  C   UNL     1       1.550   6.914  20.879  0.00  0.00    +0.000 C 
ATOM      7  C   UNL     1       2.470   6.747  19.719  0.00  0.00    +0.000 A 
ATOM      8  C   UNL     1       3.318   5.672  19.500  0.00  0.00    +0.000 A 
ATOM      9  C   UNL     1       4.085   5.652  18.333  0.00  0.00    +0.000 A 
ATOM     10  C   UNL     1       3.979   6.694  17.396  0.00  0.00    +0.000 A 
ATOM     11  C   UNL     1       3.114   7.779  17.645  0.00  0.00    +0.000 A 
ATOM     12  C   UNL     1       2.371   7.805  18.821  0.00  0.00    +0.000 A 
ATOM     13  N   UNL     1       1.446   8.771  19.297  0.00  0.00    +0.000 N 
ATOM     14  C   UNL     1       1.060   9.905  18.586  0.00  0.00    +0.000 C 
ATOM     15  O   UNL     1       1.564  10.261  17.524  0.00  0.00    +0.000 OA
BRANCH  14  16
ATOM     16  C   UNL     1      -0.054  10.748  19.147  0.00  0.00    +0.000 C 
ATOM     17  C   UNL     1      -0.792  11.728  18.256  0.00  0.00    +0.000 C 
ATOM     18  C   UNL     1      -1.485  10.481  18.718  0.00  0.00    +0.000 C 
ENDBRANCH  14  16
ENDBRANCH   1   9
BRANCH   1  19
ATOM     19  C   UNL     1       6.567   4.756  17.197  0.00  0.00    +0.000 C 
BRANCH  19  20
ATOM     20  C   UNL     1       7.670   5.360  18.070  0.00  0.00    +0.000 C 
BRANCH  20  21
ATOM     21  C   UNL     1       7.760   6.835  17.755  0.00  0.00    +0.000 C 
ATOM     22  O   UNL     1       7.363   7.248  16.666  0.00  0.00    +0.000 OA
ATOM     23  N   UNL     1       8.329   7.610  18.747  0.00  0.00    +0.000 N 
ATOM     24  H   UNL     1       8.804   7.141  19.508  0.00  0.00    +0.000 HD
BRANCH  23  25
ATOM     25  C   UNL     1       8.515   9.015  18.645  0.00  0.00    +0.000 A 
ATOM     26  C   UNL     1       7.940   9.773  17.622  0.00  0.00    +0.000 A 
ATOM     27  C   UNL     1       8.244  11.124  17.472  0.00  0.00    +0.000 A 
ATOM     28  C   UNL     1       9.102  11.764  18.363  0.00  0.00    +0.000 A 
ATOM     29  C   UNL     1       9.646  11.034  19.417  0.00  0.00    +0.000 A 
ATOM     30  C   UNL     1       9.334   9.668  19.572  0.00  0.00    +0.000 A 
BRANCH  28  31
ATOM     31  O   UNL     1       9.376  13.052  18.027  0.00  0.00    +0.000 OA
BRANCH  31  32
ATOM     32  C   UNL     1      10.698  13.452  17.722  0.00  0.00    +0.000 C 
ATOM     33  F   UNL     1      11.532  13.470  18.781  0.00  0.00    +0.000 F 
ATOM     34  F   UNL     1      11.205  12.625  16.782  0.00  0.00    +0.000 F 
ATOM     35  F   UNL     1      10.656  14.700  17.203  0.00  0.00    +0.000 F 
ENDBRANCH  31  32
ENDBRANCH  28  31
ENDBRANCH  23  25
ENDBRANCH  20  21
ENDBRANCH  19  20
ENDBRANCH   1  19
TORSDOF 8
ENDMDL
MODEL 2
REMARK VINA RESULT:      -8.2      1.131      1.517
REMARK  Name = 
REMARK  9 active torsions:
REMARK  status: ('A' for Active; 'I' for Inactive)
REMARK    1  A    between atoms: C_1  and  C_2
REMARK    2  A    between atoms: C_6  and  S_7
REMARK    3  A    between atoms: S_7  and  C_10
REMARK    4  A    between atoms: C_10  and  C_11
REMARK    5  A    between atoms: C_11  and  C_12
REMARK    6  A    between atoms: N_14  and  C_15
REMARK    7  A    between atoms: C_18  and  O_19
REMARK    8  A    between atoms: O_19  and  C_20
REMARK    9  A    between atoms: C_30  and  C_32
REMARK                            x       y       z     vdW  Elec       q    Type
REMARK                         _______ _______ _______ _____ _____    ______ ____
ROOT
ATOM      1  S   UNL     1       5.290   4.290  18.031  0.00  0.00    +0.000 S 
ATOM      2  O   UNL     1       5.605   3.774  19.352  0.00  0.00    +0.000 OA
ATOM      3  O   UNL     1       4.663   3.445  17.034  0.00  0.00    +0.000 OA
ENDROOT
BRANCH   1   9
ATOM      4  C   UNL     1       1.169   8.908  21.891  0.00  0.00    +0.000 C 
ATOM      5  C   UNL     1       0.892   8.094  20.625  0.00  0.00    +0.000 C 
ATOM      6  C   UNL     1       1.498   6.681  20.786  0.00  0.00    +0.000 C 
ATOM      7  C   UNL     1       2.488   6.625  19.674  0.00  0.00    +0.000 A 
ATOM      8  C   UNL     1       3.350   5.574  19.402  0.00  0.00    +0.000 A 
ATOM      9  C   UNL     1       4.188   5.666  18.288  0.00  0.00    +0.000 A 
ATOM     10  C   UNL     1       4.138   6.795  17.454  0.00  0.00    +0.000 A 
ATOM     11  C   UNL     1       3.257   7.854  17.755  0.00  0.00    +0.000 A 
ATOM     12  C   UNL     1       2.443   7.767  18.879  0.00  0.00    +0.000 A 
ATOM     13  N   UNL     1       1.487   8.685  19.391  0.00  0.00    +0.000 N 
ATOM     14  C   UNL     1       1.144   9.885  18.772  0.00  0.00    +0.000 C 
ATOM     15  O   UNL     1       1.712  10.342  17.784  0.00  0.00    +0.000 OA
BRANCH  14  16
ATOM     16  C   UNL     1      -0.005  10.673  19.344  0.00  0.00    +0.000 C 
ATOM     17  C   UNL     1      -0.707  11.719  18.500  0.00  0.00    +0.000 C 
ATOM     18  C   UNL     1      -1.410  10.434  18.823  0.00  0.00    +0.000 C 
ENDBRANCH  14  16
ENDBRANCH   1   9
BRANCH   1  19
ATOM     19  C   UNL     1       6.787   4.896  17.338  0.00  0.00    +0.000 C 
BRANCH  19  20
ATOM     20  C   UNL     1       7.664   5.593  18.381  0.00  0.00    +0.000 C 
BRANCH  20  21
ATOM     21  C   UNL     1       7.920   7.005  17.907  0.00  0.00    +0.000 C 
ATOM     22  O   UNL     1       7.757   7.286  16.720  0.00  0.00    +0.000 OA
ATOM     23  N   UNL     1       8.359   7.877  18.885  0.00  0.00    +0.000 N 
ATOM     24  H   UNL     1       8.654   7.493  19.773  0.00  0.00    +0.000 HD
BRANCH  23  25
ATOM     25  C   UNL     1       8.666   9.244  18.646  0.00  0.00    +0.000 A 
ATOM     26  C   UNL     1       9.622   9.937  19.392  0.00  0.00    +0.000 A 
ATOM     27  C   UNL     1       9.809  11.307  19.223  0.00  0.00    +0.000 A 
ATOM     28  C   UNL     1       9.072  12.016  18.277  0.00  0.00    +0.000 A 
ATOM     29  C   UNL     1       8.148  11.330  17.491  0.00  0.00    +0.000 A 
ATOM     30  C   UNL     1       7.964   9.943  17.658  0.00  0.00    +0.000 A 
BRANCH  28  31
ATOM     31  O   UNL     1       9.298  13.355  18.302  0.00  0.00    +0.000 OA
BRANCH  31  32
ATOM     32  C   UNL     1       8.294  14.248  18.746  0.00  0.00    +0.000 C 
ATOM     33  F   UNL     1       7.787  13.955  19.960  0.00  0.00    +0.000 F 
ATOM     34  F   UNL     1       8.798  15.501  18.775  0.00  0.00    +0.000 F 
ATOM     35  F   UNL     1       7.279  14.225  17.852  0.00  0.00    +0.000 F 
ENDBRANCH  31  32
ENDBRANCH  28  31
ENDBRANCH  23  25
ENDBRANCH  20  21
ENDBRANCH  19  20
ENDBRANCH   1  19
TORSDOF 8
ENDMDL
MODEL 3
REMARK VINA RESULT:      -8.2      1.703      2.481
REMARK  Name = 
REMARK  9 active torsions:
REMARK  status: ('A' for Active; 'I' for Inactive)
REMARK    1  A    between atoms: C_1  and  C_2
REMARK    2  A    between atoms: C_6  and  S_7
REMARK    3  A    between atoms: S_7  and  C_10
REMARK    4  A    between atoms: C_10  and  C_11
REMARK    5  A    between atoms: C_11  and  C_12
REMARK    6  A    between atoms: N_14  and  C_15
REMARK    7  A    between atoms: C_18  and  O_19
REMARK    8  A    between atoms: O_19  and  C_20
REMARK    9  A    between atoms: C_30  and  C_32
REMARK                            x       y       z     vdW  Elec       q    Type
REMARK                         _______ _______ _______ _____ _____    ______ ____
ROOT
ATOM      1  S   UNL     1       5.395   5.319  17.239  0.00  0.00    +0.000 S 
ATOM      2  O   UNL     1       5.896   4.334  18.180  0.00  0.00    +0.000 OA
ATOM      3  O   UNL     1       4.787   4.909  15.987  0.00  0.00    +0.000 OA
ENDROOT
BRANCH   1   9
ATOM      4  C   UNL     1      -0.310   9.807  17.961  0.00  0.00    +0.000 C 
ATOM      5  C   UNL     1       1.063   9.770  18.637  0.00  0.00    +0.000 C 
ATOM      6  C   UNL     1       2.142   9.440  17.581  0.00  0.00    +0.000 C 
ATOM      7  C   UNL     1       2.715   8.164  18.092  0.00  0.00    +0.000 A 
ATOM      8  C   UNL     1       3.700   7.407  17.475  0.00  0.00    +0.000 A 
ATOM      9  C   UNL     1       4.157   6.253  18.115  0.00  0.00    +0.000 A 
ATOM     10  C   UNL     1       3.639   5.884  19.368  0.00  0.00    +0.000 A 
ATOM     11  C   UNL     1       2.634   6.667  19.973  0.00  0.00    +0.000 A 
ATOM     12  C   UNL     1       2.165   7.801  19.319  0.00  0.00    +0.000 A 
ATOM     13  N   UNL     1       1.174   8.739  19.711  0.00  0.00    +0.000 N 
ATOM     14  C   UNL     1       0.501   8.706  20.930  0.00  0.00    +0.000 C 
ATOM     15  O   UNL     1       0.599   7.796  21.749  0.00  0.00    +0.000 OA
BRANCH  14  16
ATOM     16  C   UNL     1      -0.401   9.862  21.273  0.00  0.00    +0.000 C 
ATOM     17  C   UNL     1      -0.569  10.295  22.717  0.00  0.00    +0.000 C 
ATOM     18  C   UNL     1       0.204  11.162  21.768  0.00  0.00    +0.000 C 
ENDBRANCH  14  16
ENDBRANCH   1   9
BRANCH   1  19
ATOM     19  C   UNL     1       6.730   6.393  16.846  0.00  0.00    +0.000 C 
BRANCH  19  20
ATOM     20  C   UNL     1       7.586   6.719  18.072  0.00  0.00    +0.000 C 
BRANCH  20  21
ATOM     21  C   UNL     1       7.890   8.199  18.048  0.00  0.00    +0.000 C 
ATOM     22  O   UNL     1       7.346   8.917  17.210  0.00  0.00    +0.000 OA
ATOM     23  N   UNL     1       8.810   8.620  18.988  0.00  0.00    +0.000 N 
ATOM     24  H   UNL     1       9.344   7.918  19.485  0.00  0.00    +0.000 HD
BRANCH  23  25
ATOM     25  C   UNL     1       9.241   9.968  19.126  0.00  0.00    +0.000 A 
ATOM     26  C   UNL     1       9.664  10.732  18.036  0.00  0.00    +0.000 A 
ATOM     27  C   UNL     1      10.203  12.004  18.218  0.00  0.00    +0.000 A 
ATOM     28  C   UNL     1      10.298  12.562  19.489  0.00  0.00    +0.000 A 
ATOM     29  C   UNL     1       9.836  11.832  20.582  0.00  0.00    +0.000 A 
ATOM     30  C   UNL     1       9.286  10.548  20.398  0.00  0.00    +0.000 A 
BRANCH  28  31
ATOM     31  O   UNL     1      10.934  13.763  19.512  0.00  0.00    +0.000 OA
BRANCH  31  32
ATOM     32  C   UNL     1      10.247  14.949  19.160  0.00  0.00    +0.000 C 
ATOM     33  F   UNL     1      10.695  16.057  19.783  0.00  0.00    +0.000 F 
ATOM     34  F   UNL     1      10.338  15.133  17.824  0.00  0.00    +0.000 F 
ATOM     35  F   UNL     1       8.941  14.793  19.472  0.00  0.00    +0.000 F 
ENDBRANCH  31  32
ENDBRANCH  28  31
ENDBRANCH  23  25
ENDBRANCH  20  21
ENDBRANCH  19  20
ENDBRANCH   1  19
TORSDOF 8
ENDMDL
MODEL 4
REMARK VINA RESULT:      -7.9      1.354      1.562
REMARK  Name = 
REMARK  9 active torsions:
REMARK  status: ('A' for Active; 'I' for Inactive)
REMARK    1  A    between atoms: C_1  and  C_2
REMARK    2  A    between atoms: C_6  and  S_7
REMARK    3  A    between atoms: S_7  and  C_10
REMARK    4  A    between atoms: C_10  and  C_11
REMARK    5  A    between atoms: C_11  and  C_12
REMARK    6  A    between atoms: N_14  and  C_15
REMARK    7  A    between atoms: C_18  and  O_19
REMARK    8  A    between atoms: O_19  and  C_20
REMARK    9  A    between atoms: C_30  and  C_32
REMARK                            x       y       z     vdW  Elec       q    Type
REMARK                         _______ _______ _______ _____ _____    ______ ____
ROOT
ATOM      1  S   UNL     1       5.364   4.459  17.915  0.00  0.00    +0.000 S 
ATOM      2  O   UNL     1       5.204   3.501  18.994  0.00  0.00    +0.000 OA
ATOM      3  O   UNL     1       5.162   4.065  16.535  0.00  0.00    +0.000 OA
ENDROOT
BRANCH   1   9
ATOM      4  C   UNL     1       1.292   8.903  22.024  0.00  0.00    +0.000 C 
ATOM      5  C   UNL     1       0.961   8.037  20.805  0.00  0.00    +0.000 C 
ATOM      6  C   UNL     1       1.673   6.672  20.943  0.00  0.00    +0.000 C 
ATOM      7  C   UNL     1       2.564   6.650  19.749  0.00  0.00    +0.000 A 
ATOM      8  C   UNL     1       3.469   5.651  19.425  0.00  0.00    +0.000 A 
ATOM      9  C   UNL     1       4.198   5.767  18.239  0.00  0.00    +0.000 A 
ATOM     10  C   UNL     1       3.999   6.867  17.388  0.00  0.00    +0.000 A 
ATOM     11  C   UNL     1       3.077   7.873  17.743  0.00  0.00    +0.000 A 
ATOM     12  C   UNL     1       2.373   7.765  18.937  0.00  0.00    +0.000 A 
ATOM     13  N   UNL     1       1.405   8.632  19.511  0.00  0.00    +0.000 N 
ATOM     14  C   UNL     1       0.929   9.789  18.899  0.00  0.00    +0.000 C 
ATOM     15  O   UNL     1       1.376  10.254  17.854  0.00  0.00    +0.000 OA
BRANCH  14  16
ATOM     16  C   UNL     1      -0.217  10.515  19.553  0.00  0.00    +0.000 C 
ATOM     17  C   UNL     1      -0.333  12.022  19.432  0.00  0.00    +0.000 C 
ATOM     18  C   UNL     1      -1.296  11.144  18.691  0.00  0.00    +0.000 C 
ENDBRANCH  14  16
ENDBRANCH   1   9
BRANCH   1  19
ATOM     19  C   UNL     1       6.989   5.118  18.039  0.00  0.00    +0.000 C 
BRANCH  19  20
ATOM     20  C   UNL     1       7.186   6.339  17.137  0.00  0.00    +0.000 C 
BRANCH  20  21
ATOM     21  C   UNL     1       7.888   7.406  17.944  0.00  0.00    +0.000 C 
ATOM     22  O   UNL     1       8.470   7.097  18.984  0.00  0.00    +0.000 OA
ATOM     23  N   UNL     1       7.781   8.686  17.436  0.00  0.00    +0.000 N 
ATOM     24  H   UNL     1       7.111   8.854  16.695  0.00  0.00    +0.000 HD
BRANCH  23  25
ATOM     25  C   UNL     1       8.359   9.832  18.047  0.00  0.00    +0.000 A 
ATOM     26  C   UNL     1       8.209  11.116  17.519  0.00  0.00    +0.000 A 
ATOM     27  C   UNL     1       8.893  12.200  18.065  0.00  0.00    +0.000 A 
ATOM     28  C   UNL     1       9.715  12.038  19.177  0.00  0.00    +0.000 A 
ATOM     29  C   UNL     1       9.837  10.771  19.744  0.00  0.00    +0.000 A 
ATOM     30  C   UNL     1       9.141   9.676  19.196  0.00  0.00    +0.000 A 
BRANCH  28  31
ATOM     31  O   UNL     1      10.387  13.166  19.528  0.00  0.00    +0.000 OA
BRANCH  31  32
ATOM     32  C   UNL     1       9.836  14.070  20.466  0.00  0.00    +0.000 C 
ATOM     33  F   UNL     1       8.910  13.530  21.282  0.00  0.00    +0.000 F 
ATOM     34  F   UNL     1      10.832  14.588  21.218  0.00  0.00    +0.000 F 
ATOM     35  F   UNL     1       9.254  15.085  19.787  0.00  0.00    +0.000 F 
ENDBRANCH  31  32
ENDBRANCH  28  31
ENDBRANCH  23  25
ENDBRANCH  20  21
ENDBRANCH  19  20
ENDBRANCH   1  19
TORSDOF 8
ENDMDL
MODEL 5
REMARK VINA RESULT:      -7.7      1.606      2.618
REMARK  Name = 
REMARK  9 active torsions:
REMARK  status: ('A' for Active; 'I' for Inactive)
REMARK    1  A    between atoms: C_1  and  C_2
REMARK    2  A    between atoms: C_6  and  S_7
REMARK    3  A    between atoms: S_7  and  C_10
REMARK    4  A    between atoms: C_10  and  C_11
REMARK    5  A    between atoms: C_11  and  C_12
REMARK    6  A    between atoms: N_14  and  C_15
REMARK    7  A    between atoms: C_18  and  O_19
REMARK    8  A    between atoms: O_19  and  C_20
REMARK    9  A    between atoms: C_30  and  C_32
REMARK                            x       y       z     vdW  Elec       q    Type
REMARK                         _______ _______ _______ _____ _____    ______ ____
ROOT
ATOM      1  S   UNL     1       5.711   5.264  16.513  0.00  0.00    +0.000 S 
ATOM      2  O   UNL     1       5.874   3.923  17.047  0.00  0.00    +0.000 OA
ATOM      3  O   UNL     1       5.272   5.471  15.146  0.00  0.00    +0.000 OA
ENDROOT
BRANCH   1   9
ATOM      4  C   UNL     1      -0.018   9.515  18.036  0.00  0.00    +0.000 C 
ATOM      5  C   UNL     1       1.391   9.434  18.629  0.00  0.00    +0.000 C 
ATOM      6  C   UNL     1       2.415   9.248  17.487  0.00  0.00    +0.000 C 
ATOM      7  C   UNL     1       3.037   7.936  17.821  0.00  0.00    +0.000 A 
ATOM      8  C   UNL     1       3.998   7.274  17.071  0.00  0.00    +0.000 A 
ATOM      9  C   UNL     1       4.508   6.067  17.553  0.00  0.00    +0.000 A 
ATOM     10  C   UNL     1       4.068   5.550  18.783  0.00  0.00    +0.000 A 
ATOM     11  C   UNL     1       3.085   6.238  19.524  0.00  0.00    +0.000 A 
ATOM     12  C   UNL     1       2.562   7.427  19.027  0.00  0.00    +0.000 A 
ATOM     13  N   UNL     1       1.578   8.294  19.573  0.00  0.00    +0.000 N 
ATOM     14  C   UNL     1       0.975   8.110  20.815  0.00  0.00    +0.000 C 
ATOM     15  O   UNL     1       1.133   7.118  21.521  0.00  0.00    +0.000 OA
BRANCH  14  16
ATOM     16  C   UNL     1       0.075   9.200  21.333  0.00  0.00    +0.000 C 
ATOM     17  C   UNL     1      -0.086   9.411  22.826  0.00  0.00    +0.000 C 
ATOM     18  C   UNL     1       0.682  10.412  22.015  0.00  0.00    +0.000 C 
ENDBRANCH  14  16
ENDBRANCH   1   9
BRANCH   1  19
ATOM     19  C   UNL     1       7.251   6.090  16.699  0.00  0.00    +0.000 C 
BRANCH  19  20
ATOM     20  C   UNL     1       7.449   6.624  18.120  0.00  0.00    +0.000 C 
BRANCH  20  21
ATOM     21  C   UNL     1       7.802   8.090  18.022  0.00  0.00    +0.000 C 
ATOM     22  O   UNL     1       7.326   8.770  17.113  0.00  0.00    +0.000 OA
ATOM     23  N   UNL     1       8.684   8.543  18.984  0.00  0.00    +0.000 N 
ATOM     24  H   UNL     1       9.168   7.859  19.551  0.00  0.00    +0.000 HD
BRANCH  23  25
ATOM     25  C   UNL     1       9.150   9.884  19.062  0.00  0.00    +0.000 A 
ATOM     26  C   UNL     1       9.330  10.542  20.281  0.00  0.00    +0.000 A 
ATOM     27  C   UNL     1       9.662  11.894  20.323  0.00  0.00    +0.000 A 
ATOM     28  C   UNL     1       9.862  12.616  19.149  0.00  0.00    +0.000 A 
ATOM     29  C   UNL     1       9.733  11.962  17.926  0.00  0.00    +0.000 A 
ATOM     30  C   UNL     1       9.403  10.593  17.883  0.00  0.00    +0.000 A 
BRANCH  28  31
ATOM     31  O   UNL     1      10.082  13.941  19.354  0.00  0.00    +0.000 OA
BRANCH  31  32
ATOM     32  C   UNL     1       9.842  14.880  18.324  0.00  0.00    +0.000 C 
ATOM     33  F   UNL     1       9.949  16.168  18.708  0.00  0.00    +0.000 F 
ATOM     34  F   UNL     1      10.705  14.654  17.309  0.00  0.00    +0.000 F 
ATOM     35  F   UNL     1       8.587  14.688  17.857  0.00  0.00    +0.000 F 
ENDBRANCH  31  32
ENDBRANCH  28  31
ENDBRANCH  23  25
ENDBRANCH  20  21
ENDBRANCH  19  20
ENDBRANCH   1  19
TORSDOF 8
ENDMDL
MODEL 6
REMARK VINA RESULT:      -7.6      1.278      1.430
REMARK  Name = 
REMARK  9 active torsions:
REMARK  status: ('A' for Active; 'I' for Inactive)
REMARK    1  A    between atoms: C_1  and  C_2
REMARK    2  A    between atoms: C_6  and  S_7
REMARK    3  A    between atoms: S_7  and  C_10
REMARK    4  A    between atoms: C_10  and  C_11
REMARK    5  A    between atoms: C_11  and  C_12
REMARK    6  A    between atoms: N_14  and  C_15
REMARK    7  A    between atoms: C_18  and  O_19
REMARK    8  A    between atoms: O_19  and  C_20
REMARK    9  A    between atoms: C_30  and  C_32
REMARK                            x       y       z     vdW  Elec       q    Type
REMARK                         _______ _______ _______ _____ _____    ______ ____
ROOT
ATOM      1  S   UNL     1       4.872   4.983  18.207  0.00  0.00    +0.000 S 
ATOM      2  O   UNL     1       4.321   3.838  18.909  0.00  0.00    +0.000 OA
ATOM      3  O   UNL     1       5.105   4.936  16.777  0.00  0.00    +0.000 OA
ENDROOT
BRANCH   1   9
ATOM      4  C   UNL     1       0.847   9.604  22.164  0.00  0.00    +0.000 C 
ATOM      5  C   UNL     1       0.515   8.726  20.954  0.00  0.00    +0.000 C 
ATOM      6  C   UNL     1       1.188   7.345  21.128  0.00  0.00    +0.000 C 
ATOM      7  C   UNL     1       2.099   7.279  19.951  0.00  0.00    +0.000 A 
ATOM      8  C   UNL     1       2.982   6.250  19.661  0.00  0.00    +0.000 A 
ATOM      9  C   UNL     1       3.736   6.326  18.487  0.00  0.00    +0.000 A 
ATOM     10  C   UNL     1       3.581   7.416  17.614  0.00  0.00    +0.000 A 
ATOM     11  C   UNL     1       2.681   8.453  17.935  0.00  0.00    +0.000 A 
ATOM     12  C   UNL     1       1.952   8.384  19.117  0.00  0.00    +0.000 A 
ATOM     13  N   UNL     1       0.998   9.286  19.658  0.00  0.00    +0.000 N 
ATOM     14  C   UNL     1       0.564  10.445  19.018  0.00  0.00    +0.000 C 
ATOM     15  O   UNL     1       1.043  10.880  17.974  0.00  0.00    +0.000 OA
BRANCH  14  16
ATOM     16  C   UNL     1      -0.573  11.212  19.638  0.00  0.00    +0.000 C 
ATOM     17  C   UNL     1      -1.132  12.440  18.945  0.00  0.00    +0.000 C 
ATOM     18  C   UNL     1      -1.943  11.180  18.986  0.00  0.00    +0.000 C 
ENDBRANCH  14  16
ENDBRANCH   1   9
BRANCH   1  19
ATOM     19  C   UNL     1       6.403   5.378  18.974  0.00  0.00    +0.000 C 
BRANCH  19  20
ATOM     20  C   UNL     1       7.490   5.714  17.950  0.00  0.00    +0.000 C 
BRANCH  20  21
ATOM     21  C   UNL     1       7.550   7.218  17.810  0.00  0.00    +0.000 C 
ATOM     22  O   UNL     1       6.867   7.776  16.952  0.00  0.00    +0.000 OA
ATOM     23  N   UNL     1       8.424   7.849  18.674  0.00  0.00    +0.000 N 
ATOM     24  H   UNL     1       9.082   7.280  19.191  0.00  0.00    +0.000 HD
BRANCH  23  25
ATOM     25  C   UNL     1       8.636   9.255  18.698  0.00  0.00    +0.000 A 
ATOM     26  C   UNL     1       8.239  10.088  17.650  0.00  0.00    +0.000 A 
ATOM     27  C   UNL     1       8.576  11.440  17.642  0.00  0.00    +0.000 A 
ATOM     28  C   UNL     1       9.285  12.004  18.699  0.00  0.00    +0.000 A 
ATOM     29  C   UNL     1       9.647  11.196  19.775  0.00  0.00    +0.000 A 
ATOM     30  C   UNL     1       9.302   9.830  19.786  0.00  0.00    +0.000 A 
BRANCH  28  31
ATOM     31  O   UNL     1       9.620  13.306  18.498  0.00  0.00    +0.000 OA
BRANCH  31  32
ATOM     32  C   UNL     1       8.786  14.347  18.969  0.00  0.00    +0.000 C 
ATOM     33  F   UNL     1       9.329  15.577  18.882  0.00  0.00    +0.000 F 
ATOM     34  F   UNL     1       7.627  14.332  18.275  0.00  0.00    +0.000 F 
ATOM     35  F   UNL     1       8.499  14.107  20.268  0.00  0.00    +0.000 F 
ENDBRANCH  31  32
ENDBRANCH  28  31
ENDBRANCH  23  25
ENDBRANCH  20  21
ENDBRANCH  19  20
ENDBRANCH   1  19
TORSDOF 8
ENDMDL
MODEL 7
REMARK VINA RESULT:      -7.6      3.911      7.143
REMARK  Name = 
REMARK  9 active torsions:
REMARK  status: ('A' for Active; 'I' for Inactive)
REMARK    1  A    between atoms: C_1  and  C_2
REMARK    2  A    between atoms: C_6  and  S_7
REMARK    3  A    between atoms: S_7  and  C_10
REMARK    4  A    between atoms: C_10  and  C_11
REMARK    5  A    between atoms: C_11  and  C_12
REMARK    6  A    between atoms: N_14  and  C_15
REMARK    7  A    between atoms: C_18  and  O_19
REMARK    8  A    between atoms: O_19  and  C_20
REMARK    9  A    between atoms: C_30  and  C_32
REMARK                            x       y       z     vdW  Elec       q    Type
REMARK                         _______ _______ _______ _____ _____    ______ ____
ROOT
ATOM      1  S   UNL     1       0.413  10.119  20.218  0.00  0.00    +0.000 S 
ATOM      2  O   UNL     1      -0.782   9.371  20.564  0.00  0.00    +0.000 OA
ATOM      3  O   UNL     1       1.191  10.791  21.241  0.00  0.00    +0.000 OA
ENDROOT
BRANCH   1   9
ATOM      4  C   UNL     1       3.049   3.536  18.506  0.00  0.00    +0.000 C 
ATOM      5  C   UNL     1       3.722   4.816  19.010  0.00  0.00    +0.000 C 
ATOM      6  C   UNL     1       2.844   5.454  20.110  0.00  0.00    +0.000 C 
ATOM      7  C   UNL     1       2.509   6.783  19.525  0.00  0.00    +0.000 A 
ATOM      8  C   UNL     1       1.687   7.742  20.098  0.00  0.00    +0.000 A 
ATOM      9  C   UNL     1       1.512   8.957  19.433  0.00  0.00    +0.000 A 
ATOM     10  C   UNL     1       2.175   9.204  18.219  0.00  0.00    +0.000 A 
ATOM     11  C   UNL     1       3.001   8.210  17.654  0.00  0.00    +0.000 A 
ATOM     12  C   UNL     1       3.151   6.992  18.308  0.00  0.00    +0.000 A 
ATOM     13  N   UNL     1       3.913   5.849  17.950  0.00  0.00    +0.000 N 
ATOM     14  C   UNL     1       4.739   5.777  16.831  0.00  0.00    +0.000 C 
ATOM     15  O   UNL     1       4.810   6.645  15.965  0.00  0.00    +0.000 OA
BRANCH  14  16
ATOM     16  C   UNL     1       5.613   4.560  16.673  0.00  0.00    +0.000 C 
ATOM     17  C   UNL     1       6.682   4.523  15.598  0.00  0.00    +0.000 C 
ATOM     18  C   UNL     1       7.083   4.641  17.038  0.00  0.00    +0.000 C 
ENDBRANCH  14  16
ENDBRANCH   1   9
BRANCH   1  19
ATOM     19  C   UNL     1      -0.054  11.332  19.035  0.00  0.00    +0.000 C 
BRANCH  19  20
ATOM     20  C   UNL     1      -0.687  12.561  19.691  0.00  0.00    +0.000 C 
BRANCH  20  21
ATOM     21  C   UNL     1       0.143  13.768  19.318  0.00  0.00    +0.000 C 
ATOM     22  O   UNL     1      -0.397  14.733  18.778  0.00  0.00    +0.000 OA
ATOM     23  N   UNL     1       1.491  13.658  19.602  0.00  0.00    +0.000 N 
ATOM     24  H   UNL     1       1.856  12.748  19.853  0.00  0.00    +0.000 HD
BRANCH  23  25
ATOM     25  C   UNL     1       2.444  14.675  19.321  0.00  0.00    +0.000 A 
ATOM     26  C   UNL     1       3.191  14.693  18.141  0.00  0.00    +0.000 A 
ATOM     27  C   UNL     1       4.208  15.626  17.951  0.00  0.00    +0.000 A 
ATOM     28  C   UNL     1       4.482  16.589  18.918  0.00  0.00    +0.000 A 
ATOM     29  C   UNL     1       3.714  16.614  20.081  0.00  0.00    +0.000 A 
ATOM     30  C   UNL     1       2.681  15.674  20.270  0.00  0.00    +0.000 A 
BRANCH  28  31
ATOM     31  O   UNL     1       5.563  17.360  18.630  0.00  0.00    +0.000 OA
BRANCH  31  32
ATOM     32  C   UNL     1       6.874  16.880  18.863  0.00  0.00    +0.000 C 
ATOM     33  F   UNL     1       7.376  16.127  17.864  0.00  0.00    +0.000 F 
ATOM     34  F   UNL     1       7.698  17.929  19.075  0.00  0.00    +0.000 F 
ATOM     35  F   UNL     1       6.858  16.127  19.986  0.00  0.00    +0.000 F 
ENDBRANCH  31  32
ENDBRANCH  28  31
ENDBRANCH  23  25
ENDBRANCH  20  21
ENDBRANCH  19  20
ENDBRANCH   1  19
TORSDOF 8
ENDMDL
MODEL 8
REMARK VINA RESULT:      -7.6      6.621     10.468
REMARK  Name = 
REMARK  9 active torsions:
REMARK  status: ('A' for Active; 'I' for Inactive)
REMARK    1  A    between atoms: C_1  and  C_2
REMARK    2  A    between atoms: C_6  and  S_7
REMARK    3  A    between atoms: S_7  and  C_10
REMARK    4  A    between atoms: C_10  and  C_11
REMARK    5  A    between atoms: C_11  and  C_12
REMARK    6  A    between atoms: N_14  and  C_15
REMARK    7  A    between atoms: C_18  and  O_19
REMARK    8  A    between atoms: O_19  and  C_20
REMARK    9  A    between atoms: C_30  and  C_32
REMARK                            x       y       z     vdW  Elec       q    Type
REMARK                         _______ _______ _______ _____ _____    ______ ____
ROOT
ATOM      1  S   UNL     1       0.836   8.838  21.028  0.00  0.00    +0.000 S 
ATOM      2  O   UNL     1      -0.449   8.163  21.040  0.00  0.00    +0.000 OA
ATOM      3  O   UNL     1       1.598   9.006  22.251  0.00  0.00    +0.000 OA
ENDROOT
BRANCH   1   9
ATOM      4  C   UNL     1       3.401   2.867  17.715  0.00  0.00    +0.000 C 
ATOM      5  C   UNL     1       4.099   4.037  18.414  0.00  0.00    +0.000 C 
ATOM      6  C   UNL     1       3.324   4.396  19.702  0.00  0.00    +0.000 C 
ATOM      7  C   UNL     1       2.909   5.804  19.448  0.00  0.00    +0.000 A 
ATOM      8  C   UNL     1       2.132   6.589  20.286  0.00  0.00    +0.000 A 
ATOM      9  C   UNL     1       1.872   7.910  19.915  0.00  0.00    +0.000 A 
ATOM     10  C   UNL     1       2.406   8.431  18.725  0.00  0.00    +0.000 A 
ATOM     11  C   UNL     1       3.188   7.611  17.886  0.00  0.00    +0.000 A 
ATOM     12  C   UNL     1       3.424   6.289  18.249  0.00  0.00    +0.000 A 
ATOM     13  N   UNL     1       4.166   5.276  17.585  0.00  0.00    +0.000 N 
ATOM     14  C   UNL     1       4.878   5.472  16.405  0.00  0.00    +0.000 C 
ATOM     15  O   UNL     1       4.847   6.505  15.741  0.00  0.00    +0.000 OA
BRANCH  14  16
ATOM     16  C   UNL     1       5.752   4.350  15.911  0.00  0.00    +0.000 C 
ATOM     17  C   UNL     1       5.898   4.095  14.423  0.00  0.00    +0.000 C 
ATOM     18  C   UNL     1       7.049   4.672  15.192  0.00  0.00    +0.000 C 
ENDBRANCH  14  16
ENDBRANCH   1   9
BRANCH   1  19
ATOM     19  C   UNL     1       0.579  10.438  20.348  0.00  0.00    +0.000 C 
BRANCH  19  20
ATOM     20  C   UNL     1      -0.778  10.556  19.651  0.00  0.00    +0.000 C 
BRANCH  20  21
ATOM     21  C   UNL     1      -1.525  11.712  20.275  0.00  0.00    +0.000 C 
ATOM     22  O   UNL     1      -2.140  12.498  19.554  0.00  0.00    +0.000 OA
ATOM     23  N   UNL     1      -1.419  11.800  21.649  0.00  0.00    +0.000 N 
ATOM     24  H   UNL     1      -0.726  11.228  22.115  0.00  0.00    +0.000 HD
BRANCH  23  25
ATOM     25  C   UNL     1      -2.036  12.817  22.427  0.00  0.00    +0.000 A 
ATOM     26  C   UNL     1      -1.361  13.979  22.808  0.00  0.00    +0.000 A 
ATOM     27  C   UNL     1      -1.946  14.897  23.677  0.00  0.00    +0.000 A 
ATOM     28  C   UNL     1      -3.237  14.698  24.160  0.00  0.00    +0.000 A 
ATOM     29  C   UNL     1      -3.942  13.567  23.751  0.00  0.00    +0.000 A 
ATOM     30  C   UNL     1      -3.352  12.642  22.868  0.00  0.00    +0.000 A 
BRANCH  28  31
ATOM     31  O   UNL     1      -3.628  15.626  25.072  0.00  0.00    +0.000 OA
BRANCH  31  32
ATOM     32  C   UNL     1      -4.401  16.744  24.677  0.00  0.00    +0.000 C 
ATOM     33  F   UNL     1      -5.420  16.450  23.845  0.00  0.00    +0.000 F 
ATOM     34  F   UNL     1      -4.898  17.349  25.778  0.00  0.00    +0.000 F 
ATOM     35  F   UNL     1      -3.588  17.623  24.048  0.00  0.00    +0.000 F 
ENDBRANCH  31  32
ENDBRANCH  28  31
ENDBRANCH  23  25
ENDBRANCH  20  21
ENDBRANCH  19  20
ENDBRANCH   1  19
TORSDOF 8
ENDMDL
MODEL 9
REMARK VINA RESULT:      -7.6      5.453      8.372
REMARK  Name = 
REMARK  9 active torsions:
REMARK  status: ('A' for Active; 'I' for Inactive)
REMARK    1  A    between atoms: C_1  and  C_2
REMARK    2  A    between atoms: C_6  and  S_7
REMARK    3  A    between atoms: S_7  and  C_10
REMARK    4  A    between atoms: C_10  and  C_11
REMARK    5  A    between atoms: C_11  and  C_12
REMARK    6  A    between atoms: N_14  and  C_15
REMARK    7  A    between atoms: C_18  and  O_19
REMARK    8  A    between atoms: O_19  and  C_20
REMARK    9  A    between atoms: C_30  and  C_32
REMARK                            x       y       z     vdW  Elec       q    Type
REMARK                         _______ _______ _______ _____ _____    ______ ____
ROOT
ATOM      1  S   UNL     1       0.315  10.358  21.860  0.00  0.00    +0.000 S 
ATOM      2  O   UNL     1       1.304  11.021  21.029  0.00  0.00    +0.000 OA
ATOM      3  O   UNL     1       0.570  10.114  23.267  0.00  0.00    +0.000 OA
ENDROOT
BRANCH   1   9
ATOM      4  C   UNL     1      -4.675  15.075  24.322  0.00  0.00    +0.000 C 
ATOM      5  C   UNL     1      -4.797  13.714  23.632  0.00  0.00    +0.000 C 
ATOM      6  C   UNL     1      -3.737  12.751  24.213  0.00  0.00    +0.000 C 
ATOM      7  C   UNL     1      -2.913  12.417  23.018  0.00  0.00    +0.000 A 
ATOM      8  C   UNL     1      -1.782  11.615  23.005  0.00  0.00    +0.000 A 
ATOM      9  C   UNL     1      -1.151  11.366  21.784  0.00  0.00    +0.000 A 
ATOM     10  C   UNL     1      -1.670  11.905  20.595  0.00  0.00    +0.000 A 
ATOM     11  C   UNL     1      -2.818  12.723  20.635  0.00  0.00    +0.000 A 
ATOM     12  C   UNL     1      -3.427  12.987  21.856  0.00  0.00    +0.000 A 
ATOM     13  N   UNL     1      -4.574  13.768  22.157  0.00  0.00    +0.000 N 
ATOM     14  C   UNL     1      -5.367  14.397  21.201  0.00  0.00    +0.000 C 
ATOM     15  O   UNL     1      -5.098  14.449  20.004  0.00  0.00    +0.000 OA
BRANCH  14  16
ATOM     16  C   UNL     1      -6.645  15.050  21.658  0.00  0.00    +0.000 C 
ATOM     17  C   UNL     1      -7.781  15.271  20.678  0.00  0.00    +0.000 C 
ATOM     18  C   UNL     1      -7.916  14.227  21.747  0.00  0.00    +0.000 C 
ENDBRANCH  14  16
ENDBRANCH   1   9
BRANCH   1  19
ATOM     19  C   UNL     1      -0.036   8.805  21.115  0.00  0.00    +0.000 C 
BRANCH  19  20
ATOM     20  C   UNL     1       0.973   7.729  21.524  0.00  0.00    +0.000 C 
BRANCH  20  21
ATOM     21  C   UNL     1       1.809   7.389  20.311  0.00  0.00    +0.000 C 
ATOM     22  O   UNL     1       1.816   8.152  19.346  0.00  0.00    +0.000 OA
ATOM     23  N   UNL     1       2.491   6.190  20.391  0.00  0.00    +0.000 N 
ATOM     24  H   UNL     1       2.251   5.551  21.138  0.00  0.00    +0.000 HD
BRANCH  23  25
ATOM     25  C   UNL     1       3.323   5.682  19.357  0.00  0.00    +0.000 A 
ATOM     26  C   UNL     1       2.902   5.611  18.027  0.00  0.00    +0.000 A 
ATOM     27  C   UNL     1       3.687   4.990  17.058  0.00  0.00    +0.000 A 
ATOM     28  C   UNL     1       4.932   4.458  17.384  0.00  0.00    +0.000 A 
ATOM     29  C   UNL     1       5.387   4.564  18.697  0.00  0.00    +0.000 A 
ATOM     30  C   UNL     1       4.595   5.197  19.675  0.00  0.00    +0.000 A 
BRANCH  28  31
ATOM     31  O   UNL     1       5.531   3.801  16.356  0.00  0.00    +0.000 OA
BRANCH  31  32
ATOM     32  C   UNL     1       6.636   4.371  15.682  0.00  0.00    +0.000 C 
ATOM     33  F   UNL     1       7.820   4.182  16.297  0.00  0.00    +0.000 F 
ATOM     34  F   UNL     1       6.706   3.857  14.434  0.00  0.00    +0.000 F 
ATOM     35  F   UNL     1       6.429   5.703  15.575  0.00  0.00    +0.000 F 
ENDBRANCH  31  32
ENDBRANCH  28  31
ENDBRANCH  23  25
ENDBRANCH  20  21
ENDBRANCH  19  20
ENDBRANCH   1  19
TORSDOF 8
ENDMDL
