MODEL 1
REMARK VINA RESULT:      -8.4      0.000      0.000
REMARK  Name = 
REMARK  6 active torsions:
REMARK  status: ('A' for Active; 'I' for Inactive)
REMARK    1  A    between atoms: O_1  and  C_2
REMARK    2  A    between atoms: C_5  and  C_6
REMARK    3  A    between atoms: C_6  and  C_7
REMARK    4  A    between atoms: C_7  and  N_8
REMARK    5  A    between atoms: N_8  and  C_9
REMARK    6  A    between atoms: C_24  and  O_25
REMARK                            x       y       z     vdW  Elec       q    Type
REMARK                         _______ _______ _______ _____ _____    ______ ____
ROOT
ATOM      1  N   UNL     1       2.811   6.863  17.402  0.00  0.00    +0.000 N 
ATOM      2  H   UNL     1       3.140   7.156  16.483  0.00  0.00    +0.000 HD
ENDROOT
BRANCH   1   3
ATOM      3  C   UNL     1       3.704   5.885  17.931  0.00  0.00    +0.000 A 
ATOM      4  C   UNL     1       5.108   6.061  18.016  0.00  0.00    +0.000 A 
ATOM      5  C   UNL     1       5.853   5.047  18.630  0.00  0.00    +0.000 A 
ATOM      6  N   UNL     1       5.322   3.877  19.047  0.00  0.00    +0.000 NA
ATOM      7  C   UNL     1       4.019   3.657  18.866  0.00  0.00    +0.000 A 
ATOM      8  C   UNL     1       3.522   2.423  19.269  0.00  0.00    +0.000 A 
ATOM      9  C   UNL     1       2.182   2.077  19.106  0.00  0.00    +0.000 A 
ATOM     10  C   UNL     1       1.312   2.992  18.536  0.00  0.00    +0.000 A 
ATOM     11  C   UNL     1       1.789   4.248  18.140  0.00  0.00    +0.000 A 
ATOM     12  C   UNL     1       3.152   4.611  18.296  0.00  0.00    +0.000 A 
ATOM     13  C   UNL     1       7.346   5.143  18.830  0.00  0.00    +0.000 C 
ATOM     14  C   UNL     1       7.922   6.534  18.610  0.00  0.00    +0.000 C 
ATOM     15  C   UNL     1       7.337   7.132  17.346  0.00  0.00    +0.000 C 
ATOM     16  C   UNL     1       5.830   7.285  17.506  0.00  0.00    +0.000 C 
ENDBRANCH   1   3
BRANCH   1  17
ATOM     17  C   UNL     1       2.443   7.997  18.261  0.00  0.00    +0.000 C 
BRANCH  17  18
ATOM     18  C   UNL     1       2.074   7.601  19.689  0.00  0.00    +0.000 C 
BRANCH  18  22
ATOM     19  C   UNL     1      -0.190  10.635  21.727  0.00  0.00    +0.000 A 
ATOM     20  C   UNL     1      -0.108  10.642  20.337  0.00  0.00    +0.000 A 
ATOM     21  C   UNL     1       0.633   9.659  19.684  0.00  0.00    +0.000 A 
ATOM     22  C   UNL     1       1.298   8.668  20.416  0.00  0.00    +0.000 A 
ATOM     23  C   UNL     1       1.202   8.660  21.817  0.00  0.00    +0.000 A 
ATOM     24  C   UNL     1       0.461   9.646  22.466  0.00  0.00    +0.000 A 
BRANCH  19  25
ATOM     25  O   UNL     1      -0.915  11.595  22.378  0.00  0.00    +0.000 OA
ATOM     26  H   UNL     1      -1.786  11.230  22.595  0.00  0.00    +0.000 HD
ENDBRANCH  19  25
BRANCH  24  27
ATOM     27  O   UNL     1       0.359   9.656  23.828  0.00  0.00    +0.000 OA
ATOM     28  H   UNL     1      -0.229  10.378  24.095  0.00  0.00    +0.000 HD
ENDBRANCH  24  27
ENDBRANCH  18  22
ENDBRANCH  17  18
ENDBRANCH   1  17
TORSDOF 6
ENDMDL
MODEL 2
REMARK VINA RESULT:      -8.3      1.677      3.817
REMARK  Name = 
REMARK  6 active torsions:
REMARK  status: ('A' for Active; 'I' for Inactive)
REMARK    1  A    between atoms: O_1  and  C_2
REMARK    2  A    between atoms: C_5  and  C_6
REMARK    3  A    between atoms: C_6  and  C_7
REMARK    4  A    between atoms: C_7  and  N_8
REMARK    5  A    between atoms: N_8  and  C_9
REMARK    6  A    between atoms: C_24  and  O_25
REMARK                            x       y       z     vdW  Elec       q    Type
REMARK                         _______ _______ _______ _____ _____    ______ ____
ROOT
ATOM      1  N   UNL     1       3.214   7.292  18.282  0.00  0.00    +0.000 N 
ATOM      2  H   UNL     1       3.512   7.551  19.221  0.00  0.00    +0.000 HD
ENDROOT
BRANCH   1   3
ATOM      3  C   UNL     1       3.387   5.888  18.105  0.00  0.00    +0.000 A 
ATOM      4  C   UNL     1       2.802   4.908  18.944  0.00  0.00    +0.000 A 
ATOM      5  C   UNL     1       2.994   3.563  18.605  0.00  0.00    +0.000 A 
ATOM      6  N   UNL     1       3.787   3.155  17.590  0.00  0.00    +0.000 NA
ATOM      7  C   UNL     1       4.434   4.069  16.867  0.00  0.00    +0.000 A 
ATOM      8  C   UNL     1       5.275   3.604  15.862  0.00  0.00    +0.000 A 
ATOM      9  C   UNL     1       6.018   4.469  15.061  0.00  0.00    +0.000 A 
ATOM     10  C   UNL     1       5.910   5.836  15.260  0.00  0.00    +0.000 A 
ATOM     11  C   UNL     1       5.055   6.325  16.255  0.00  0.00    +0.000 A 
ATOM     12  C   UNL     1       4.296   5.456  17.081  0.00  0.00    +0.000 A 
ATOM     13  C   UNL     1       2.375   2.430  19.387  0.00  0.00    +0.000 C 
ATOM     14  C   UNL     1       1.286   2.859  20.359  0.00  0.00    +0.000 C 
ATOM     15  C   UNL     1       1.744   4.083  21.127  0.00  0.00    +0.000 C 
ATOM     16  C   UNL     1       1.967   5.238  20.158  0.00  0.00    +0.000 C 
ENDBRANCH   1   3
BRANCH   1  17
ATOM     17  C   UNL     1       1.919   7.879  17.915  0.00  0.00    +0.000 C 
BRANCH  17  18
ATOM     18  C   UNL     1       1.750   9.334  18.347  0.00  0.00    +0.000 C 
BRANCH  18  22
ATOM     19  C   UNL     1      -0.281   9.750  22.113  0.00  0.00    +0.000 A 
ATOM     20  C   UNL     1       0.629   8.714  21.923  0.00  0.00    +0.000 A 
ATOM     21  C   UNL     1       1.279   8.582  20.698  0.00  0.00    +0.000 A 
ATOM     22  C   UNL     1       1.020   9.481  19.657  0.00  0.00    +0.000 A 
ATOM     23  C   UNL     1       0.109  10.530  19.858  0.00  0.00    +0.000 A 
ATOM     24  C   UNL     1      -0.540  10.657  21.086  0.00  0.00    +0.000 A 
BRANCH  19  25
ATOM     25  O   UNL     1      -0.924   9.889  23.312  0.00  0.00    +0.000 OA
ATOM     26  H   UNL     1      -1.580   9.181  23.395  0.00  0.00    +0.000 HD
ENDBRANCH  19  25
BRANCH  24  27
ATOM     27  O   UNL     1      -1.431  11.670  21.300  0.00  0.00    +0.000 OA
ATOM     28  H   UNL     1      -1.009  12.514  21.079  0.00  0.00    +0.000 HD
ENDBRANCH  24  27
ENDBRANCH  18  22
ENDBRANCH  17  18
ENDBRANCH   1  17
TORSDOF 6
ENDMDL
MODEL 3
REMARK VINA RESULT:      -8.3      3.634      6.465
REMARK  Name = 
REMARK  6 active torsions:
REMARK  status: ('A' for Active; 'I' for Inactive)
REMARK    1  A    between atoms: O_1  and  C_2
REMARK    2  A    between atoms: C_5  and  C_6
REMARK    3  A    between atoms: C_6  and  C_7
REMARK    4  A    between atoms: C_7  and  N_8
REMARK    5  A    between atoms: N_8  and  C_9
REMARK    6  A    between atoms: C_24  and  O_25
REMARK                            x       y       z     vdW  Elec       q    Type
REMARK                         _______ _______ _______ _____ _____    ______ ____
ROOT
ATOM      1  N   UNL     1       2.821   5.702  20.483  0.00  0.00    +0.000 N 
ATOM      2  H   UNL     1       3.471   4.917  20.505  0.00  0.00    +0.000 HD
ENDROOT
BRANCH   1   3
ATOM      3  C   UNL     1       3.042   6.462  19.298  0.00  0.00    +0.000 A 
ATOM      4  C   UNL     1       3.972   6.102  18.290  0.00  0.00    +0.000 A 
ATOM      5  C   UNL     1       4.028   6.902  17.142  0.00  0.00    +0.000 A 
ATOM      6  N   UNL     1       3.325   8.046  16.993  0.00  0.00    +0.000 NA
ATOM      7  C   UNL     1       2.535   8.452  17.987  0.00  0.00    +0.000 A 
ATOM      8  C   UNL     1       1.864   9.658  17.811  0.00  0.00    +0.000 A 
ATOM      9  C   UNL     1       1.030  10.190  18.793  0.00  0.00    +0.000 A 
ATOM     10  C   UNL     1       0.851   9.495  19.978  0.00  0.00    +0.000 A 
ATOM     11  C   UNL     1       1.504   8.270  20.167  0.00  0.00    +0.000 A 
ATOM     12  C   UNL     1       2.359   7.719  19.178  0.00  0.00    +0.000 A 
ATOM     13  C   UNL     1       4.936   6.590  15.977  0.00  0.00    +0.000 C 
ATOM     14  C   UNL     1       5.536   5.192  16.005  0.00  0.00    +0.000 C 
ATOM     15  C   UNL     1       6.043   4.884  17.400  0.00  0.00    +0.000 C 
ATOM     16  C   UNL     1       4.876   4.896  18.379  0.00  0.00    +0.000 C 
ENDBRANCH   1   3
BRANCH   1  17
ATOM     17  C   UNL     1       1.443   5.306  20.801  0.00  0.00    +0.000 C 
BRANCH  17  18
ATOM     18  C   UNL     1       1.264   3.808  21.035  0.00  0.00    +0.000 C 
BRANCH  18  22
ATOM     19  C   UNL     1       3.670   1.437  18.376  0.00  0.00    +0.000 A 
ATOM     20  C   UNL     1       2.459   1.964  17.936  0.00  0.00    +0.000 A 
ATOM     21  C   UNL     1       1.682   2.727  18.806  0.00  0.00    +0.000 A 
ATOM     22  C   UNL     1       2.108   2.962  20.118  0.00  0.00    +0.000 A 
ATOM     23  C   UNL     1       3.336   2.436  20.553  0.00  0.00    +0.000 A 
ATOM     24  C   UNL     1       4.109   1.673  19.679  0.00  0.00    +0.000 A 
BRANCH  19  25
ATOM     25  O   UNL     1       4.441   0.688  17.531  0.00  0.00    +0.000 OA
ATOM     26  H   UNL     1       4.336   1.032  16.631  0.00  0.00    +0.000 HD
ENDBRANCH  19  25
BRANCH  24  27
ATOM     27  O   UNL     1       5.305   1.151  20.084  0.00  0.00    +0.000 OA
ATOM     28  H   UNL     1       5.631   1.661  20.841  0.00  0.00    +0.000 HD
ENDBRANCH  24  27
ENDBRANCH  18  22
ENDBRANCH  17  18
ENDBRANCH   1  17
TORSDOF 6
ENDMDL
MODEL 4
REMARK VINA RESULT:      -8.2      0.604      1.399
REMARK  Name = 
REMARK  6 active torsions:
REMARK  status: ('A' for Active; 'I' for Inactive)
REMARK    1  A    between atoms: O_1  and  C_2
REMARK    2  A    between atoms: C_5  and  C_6
REMARK    3  A    between atoms: C_6  and  C_7
REMARK    4  A    between atoms: C_7  and  N_8
REMARK    5  A    between atoms: N_8  and  C_9
REMARK    6  A    between atoms: C_24  and  O_25
REMARK                            x       y       z     vdW  Elec       q    Type
REMARK                         _______ _______ _______ _____ _____    ______ ____
ROOT
ATOM      1  N   UNL     1       2.772   6.860  17.474  0.00  0.00    +0.000 N 
ATOM      2  H   UNL     1       2.847   6.737  16.465  0.00  0.00    +0.000 HD
ENDROOT
BRANCH   1   3
ATOM      3  C   UNL     1       3.647   5.942  18.126  0.00  0.00    +0.000 A 
ATOM      4  C   UNL     1       5.059   6.058  18.120  0.00  0.00    +0.000 A 
ATOM      5  C   UNL     1       5.790   5.127  18.868  0.00  0.00    +0.000 A 
ATOM      6  N   UNL     1       5.230   4.073  19.502  0.00  0.00    +0.000 NA
ATOM      7  C   UNL     1       3.912   3.892  19.416  0.00  0.00    +0.000 A 
ATOM      8  C   UNL     1       3.383   2.771  20.046  0.00  0.00    +0.000 A 
ATOM      9  C   UNL     1       2.023   2.471  20.001  0.00  0.00    +0.000 A 
ATOM     10  C   UNL     1       1.165   3.319  19.319  0.00  0.00    +0.000 A 
ATOM     11  C   UNL     1       1.676   4.463  18.693  0.00  0.00    +0.000 A 
ATOM     12  C   UNL     1       3.059   4.779  18.727  0.00  0.00    +0.000 A 
ATOM     13  C   UNL     1       7.294   5.178  18.986  0.00  0.00    +0.000 C 
ATOM     14  C   UNL     1       7.918   6.481  18.506  0.00  0.00    +0.000 C 
ATOM     15  C   UNL     1       7.296   6.885  17.183  0.00  0.00    +0.000 C 
ATOM     16  C   UNL     1       5.807   7.139  17.377  0.00  0.00    +0.000 C 
ENDBRANCH   1   3
BRANCH   1  17
ATOM     17  C   UNL     1       2.827   8.271  17.880  0.00  0.00    +0.000 C 
BRANCH  17  18
ATOM     18  C   UNL     1       1.456   8.920  18.061  0.00  0.00    +0.000 C 
BRANCH  18  22
ATOM     19  C   UNL     1       0.545   9.678  22.193  0.00  0.00    +0.000 A 
ATOM     20  C   UNL     1       1.161   8.486  21.823  0.00  0.00    +0.000 A 
ATOM     21  C   UNL     1       1.448   8.245  20.481  0.00  0.00    +0.000 A 
ATOM     22  C   UNL     1       1.117   9.190  19.503  0.00  0.00    +0.000 A 
ATOM     23  C   UNL     1       0.505  10.395  19.884  0.00  0.00    +0.000 A 
ATOM     24  C   UNL     1       0.219  10.632  21.229  0.00  0.00    +0.000 A 
BRANCH  19  25
ATOM     25  O   UNL     1       0.260   9.925  23.508  0.00  0.00    +0.000 OA
ATOM     26  H   UNL     1      -0.701   9.894  23.627  0.00  0.00    +0.000 HD
ENDBRANCH  19  25
BRANCH  24  27
ATOM     27  O   UNL     1      -0.378  11.797  21.618  0.00  0.00    +0.000 OA
ATOM     28  H   UNL     1      -0.110  12.001  22.526  0.00  0.00    +0.000 HD
ENDBRANCH  24  27
ENDBRANCH  18  22
ENDBRANCH  17  18
ENDBRANCH   1  17
TORSDOF 6
ENDMDL
MODEL 5
REMARK VINA RESULT:      -8.2      1.270      1.416
REMARK  Name = 
REMARK  6 active torsions:
REMARK  status: ('A' for Active; 'I' for Inactive)
REMARK    1  A    between atoms: O_1  and  C_2
REMARK    2  A    between atoms: C_5  and  C_6
REMARK    3  A    between atoms: C_6  and  C_7
REMARK    4  A    between atoms: C_7  and  N_8
REMARK    5  A    between atoms: N_8  and  C_9
REMARK    6  A    between atoms: C_24  and  O_25
REMARK                            x       y       z     vdW  Elec       q    Type
REMARK                         _______ _______ _______ _____ _____    ______ ____
ROOT
ATOM      1  N   UNL     1       2.138   6.697  18.362  0.00  0.00    +0.000 N 
ATOM      2  H   UNL     1       2.024   6.828  17.358  0.00  0.00    +0.000 HD
ENDROOT
BRANCH   1   3
ATOM      3  C   UNL     1       3.116   5.686  18.596  0.00  0.00    +0.000 A 
ATOM      4  C   UNL     1       4.355   5.613  17.911  0.00  0.00    +0.000 A 
ATOM      5  C   UNL     1       5.253   4.611  18.298  0.00  0.00    +0.000 A 
ATOM      6  N   UNL     1       4.960   3.657  19.208  0.00  0.00    +0.000 NA
ATOM      7  C   UNL     1       3.753   3.651  19.773  0.00  0.00    +0.000 A 
ATOM      8  C   UNL     1       3.478   2.625  20.671  0.00  0.00    +0.000 A 
ATOM      9  C   UNL     1       2.240   2.507  21.302  0.00  0.00    +0.000 A 
ATOM     10  C   UNL     1       1.255   3.445  21.040  0.00  0.00    +0.000 A 
ATOM     11  C   UNL     1       1.519   4.496  20.152  0.00  0.00    +0.000 A 
ATOM     12  C   UNL     1       2.772   4.626  19.499  0.00  0.00    +0.000 A 
ATOM     13  C   UNL     1       6.624   4.465  17.683  0.00  0.00    +0.000 C 
ATOM     14  C   UNL     1       7.073   5.662  16.857  0.00  0.00    +0.000 C 
ATOM     15  C   UNL     1       5.937   6.113  15.958  0.00  0.00    +0.000 C 
ATOM     16  C   UNL     1       4.762   6.568  16.814  0.00  0.00    +0.000 C 
ENDBRANCH   1   3
BRANCH   1  17
ATOM     17  C   UNL     1       2.270   7.966  19.090  0.00  0.00    +0.000 C 
BRANCH  17  18
ATOM     18  C   UNL     1       1.258   9.031  18.671  0.00  0.00    +0.000 C 
BRANCH  18  22
ATOM     19  C   UNL     1      -0.666  10.973  21.988  0.00  0.00    +0.000 A 
ATOM     20  C   UNL     1      -0.994  11.334  20.684  0.00  0.00    +0.000 A 
ATOM     21  C   UNL     1      -0.362  10.703  19.614  0.00  0.00    +0.000 A 
ATOM     22  C   UNL     1       0.603   9.716  19.842  0.00  0.00    +0.000 A 
ATOM     23  C   UNL     1       0.921   9.348  21.159  0.00  0.00    +0.000 A 
ATOM     24  C   UNL     1       0.286   9.982  22.227  0.00  0.00    +0.000 A 
BRANCH  19  25
ATOM     25  O   UNL     1      -1.282  11.584  23.045  0.00  0.00    +0.000 OA
ATOM     26  H   UNL     1      -0.666  12.222  23.435  0.00  0.00    +0.000 HD
ENDBRANCH  19  25
BRANCH  24  27
ATOM     27  O   UNL     1       0.584   9.641  23.515  0.00  0.00    +0.000 OA
ATOM     28  H   UNL     1       0.286   8.734  23.679  0.00  0.00    +0.000 HD
ENDBRANCH  24  27
ENDBRANCH  18  22
ENDBRANCH  17  18
ENDBRANCH   1  17
TORSDOF 6
ENDMDL
MODEL 6
REMARK VINA RESULT:      -8.2      0.866      3.871
REMARK  Name = 
REMARK  6 active torsions:
REMARK  status: ('A' for Active; 'I' for Inactive)
REMARK    1  A    between atoms: O_1  and  C_2
REMARK    2  A    between atoms: C_5  and  C_6
REMARK    3  A    between atoms: C_6  and  C_7
REMARK    4  A    between atoms: C_7  and  N_8
REMARK    5  A    between atoms: N_8  and  C_9
REMARK    6  A    between atoms: C_24  and  O_25
REMARK                            x       y       z     vdW  Elec       q    Type
REMARK                         _______ _______ _______ _____ _____    ______ ____
ROOT
ATOM      1  N   UNL     1       2.764   6.894  17.496  0.00  0.00    +0.000 N 
ATOM      2  H   UNL     1       3.004   6.892  16.505  0.00  0.00    +0.000 HD
ENDROOT
BRANCH   1   3
ATOM      3  C   UNL     1       3.499   5.868  18.159  0.00  0.00    +0.000 A 
ATOM      4  C   UNL     1       2.910   4.895  19.004  0.00  0.00    +0.000 A 
ATOM      5  C   UNL     1       3.744   3.899  19.528  0.00  0.00    +0.000 A 
ATOM      6  N   UNL     1       5.084   3.880  19.356  0.00  0.00    +0.000 NA
ATOM      7  C   UNL     1       5.660   4.859  18.658  0.00  0.00    +0.000 A 
ATOM      8  C   UNL     1       7.045   4.825  18.544  0.00  0.00    +0.000 A 
ATOM      9  C   UNL     1       7.754   5.809  17.857  0.00  0.00    +0.000 A 
ATOM     10  C   UNL     1       7.061   6.848  17.257  0.00  0.00    +0.000 A 
ATOM     11  C   UNL     1       5.663   6.890  17.346  0.00  0.00    +0.000 A 
ATOM     12  C   UNL     1       4.930   5.898  18.046  0.00  0.00    +0.000 A 
ATOM     13  C   UNL     1       3.225   2.776  20.394  0.00  0.00    +0.000 C 
ATOM     14  C   UNL     1       1.711   2.627  20.390  0.00  0.00    +0.000 C 
ATOM     15  C   UNL     1       1.065   3.991  20.536  0.00  0.00    +0.000 C 
ATOM     16  C   UNL     1       1.439   4.861  19.343  0.00  0.00    +0.000 C 
ENDBRANCH   1   3
BRANCH   1  17
ATOM     17  C   UNL     1       2.779   8.241  18.081  0.00  0.00    +0.000 C 
BRANCH  17  18
ATOM     18  C   UNL     1       1.401   8.894  18.174  0.00  0.00    +0.000 C 
BRANCH  18  22
ATOM     19  C   UNL     1       0.298   9.811  22.226  0.00  0.00    +0.000 A 
ATOM     20  C   UNL     1       1.111   8.713  21.957  0.00  0.00    +0.000 A 
ATOM     21  C   UNL     1       1.460   8.419  20.640  0.00  0.00    +0.000 A 
ATOM     22  C   UNL     1       0.994   9.216  19.588  0.00  0.00    +0.000 A 
ATOM     23  C   UNL     1       0.183  10.328  19.867  0.00  0.00    +0.000 A 
ATOM     24  C   UNL     1      -0.164  10.618  21.186  0.00  0.00    +0.000 A 
BRANCH  19  25
ATOM     25  O   UNL     1      -0.049  10.109  23.515  0.00  0.00    +0.000 OA
ATOM     26  H   UNL     1       0.748  10.077  24.065  0.00  0.00    +0.000 HD
ENDBRANCH  19  25
BRANCH  24  27
ATOM     27  O   UNL     1      -0.954  11.693  21.477  0.00  0.00    +0.000 OA
ATOM     28  H   UNL     1      -1.884  11.430  21.404  0.00  0.00    +0.000 HD
ENDBRANCH  24  27
ENDBRANCH  18  22
ENDBRANCH  17  18
ENDBRANCH   1  17
TORSDOF 6
ENDMDL
MODEL 7
REMARK VINA RESULT:      -8.1      1.518      1.822
REMARK  Name = 
REMARK  6 active torsions:
REMARK  status: ('A' for Active; 'I' for Inactive)
REMARK    1  A    between atoms: O_1  and  C_2
REMARK    2  A    between atoms: C_5  and  C_6
REMARK    3  A    between atoms: C_6  and  C_7
REMARK    4  A    between atoms: C_7  and  N_8
REMARK    5  A    between atoms: N_8  and  C_9
REMARK    6  A    between atoms: C_24  and  O_25
REMARK                            x       y       z     vdW  Elec       q    Type
REMARK                         _______ _______ _______ _____ _____    ______ ____
ROOT
ATOM      1  N   UNL     1       2.123   6.585  18.128  0.00  0.00    +0.000 N 
ATOM      2  H   UNL     1       1.981   6.593  17.119  0.00  0.00    +0.000 HD
ENDROOT
BRANCH   1   3
ATOM      3  C   UNL     1       3.125   5.623  18.452  0.00  0.00    +0.000 A 
ATOM      4  C   UNL     1       4.390   5.556  17.818  0.00  0.00    +0.000 A 
ATOM      5  C   UNL     1       5.306   4.609  18.293  0.00  0.00    +0.000 A 
ATOM      6  N   UNL     1       5.010   3.695  19.244  0.00  0.00    +0.000 NA
ATOM      7  C   UNL     1       3.782   3.678  19.764  0.00  0.00    +0.000 A 
ATOM      8  C   UNL     1       3.507   2.693  20.707  0.00  0.00    +0.000 A 
ATOM      9  C   UNL     1       2.251   2.567  21.298  0.00  0.00    +0.000 A 
ATOM     10  C   UNL     1       1.246   3.455  20.948  0.00  0.00    +0.000 A 
ATOM     11  C   UNL     1       1.509   4.465  20.014  0.00  0.00    +0.000 A 
ATOM     12  C   UNL     1       2.781   4.602  19.401  0.00  0.00    +0.000 A 
ATOM     13  C   UNL     1       6.703   4.478  17.738  0.00  0.00    +0.000 C 
ATOM     14  C   UNL     1       7.143   5.643  16.863  0.00  0.00    +0.000 C 
ATOM     15  C   UNL     1       6.029   6.004  15.900  0.00  0.00    +0.000 C 
ATOM     16  C   UNL     1       4.807   6.463  16.686  0.00  0.00    +0.000 C 
ENDBRANCH   1   3
BRANCH   1  17
ATOM     17  C   UNL     1       2.253   7.934  18.694  0.00  0.00    +0.000 C 
BRANCH  17  18
ATOM     18  C   UNL     1       1.587   9.026  17.859  0.00  0.00    +0.000 C 
BRANCH  18  22
ATOM     19  C   UNL     1      -1.187  11.411  20.117  0.00  0.00    +0.000 A 
ATOM     20  C   UNL     1      -1.526  10.969  18.841  0.00  0.00    +0.000 A 
ATOM     21  C   UNL     1      -0.619  10.201  18.114  0.00  0.00    +0.000 A 
ATOM     22  C   UNL     1       0.631   9.876  18.654  0.00  0.00    +0.000 A 
ATOM     23  C   UNL     1       0.962  10.315  19.946  0.00  0.00    +0.000 A 
ATOM     24  C   UNL     1       0.052  11.084  20.670  0.00  0.00    +0.000 A 
BRANCH  19  25
ATOM     25  O   UNL     1      -2.070  12.164  20.841  0.00  0.00    +0.000 OA
ATOM     26  H   UNL     1      -2.966  11.838  20.670  0.00  0.00    +0.000 HD
ENDBRANCH  19  25
BRANCH  24  27
ATOM     27  O   UNL     1       0.358  11.523  21.927  0.00  0.00    +0.000 OA
ATOM     28  H   UNL     1      -0.391  12.029  22.275  0.00  0.00    +0.000 HD
ENDBRANCH  24  27
ENDBRANCH  18  22
ENDBRANCH  17  18
ENDBRANCH   1  17
TORSDOF 6
ENDMDL
MODEL 8
REMARK VINA RESULT:      -8.1      2.318      2.589
REMARK  Name = 
REMARK  6 active torsions:
REMARK  status: ('A' for Active; 'I' for Inactive)
REMARK    1  A    between atoms: O_1  and  C_2
REMARK    2  A    between atoms: C_5  and  C_6
REMARK    3  A    between atoms: C_6  and  C_7
REMARK    4  A    between atoms: C_7  and  N_8
REMARK    5  A    between atoms: N_8  and  C_9
REMARK    6  A    between atoms: C_24  and  O_25
REMARK                            x       y       z     vdW  Elec       q    Type
REMARK                         _______ _______ _______ _____ _____    ______ ____
ROOT
ATOM      1  N   UNL     1       2.153   6.626  18.158  0.00  0.00    +0.000 N 
ATOM      2  H   UNL     1       2.082   6.722  17.146  0.00  0.00    +0.000 HD
ENDROOT
BRANCH   1   3
ATOM      3  C   UNL     1       3.141   5.647  18.469  0.00  0.00    +0.000 A 
ATOM      4  C   UNL     1       4.402   5.566  17.828  0.00  0.00    +0.000 A 
ATOM      5  C   UNL     1       5.306   4.601  18.290  0.00  0.00    +0.000 A 
ATOM      6  N   UNL     1       5.000   3.684  19.234  0.00  0.00    +0.000 NA
ATOM      7  C   UNL     1       3.775   3.680  19.760  0.00  0.00    +0.000 A 
ATOM      8  C   UNL     1       3.489   2.691  20.695  0.00  0.00    +0.000 A 
ATOM      9  C   UNL     1       2.235   2.578  21.291  0.00  0.00    +0.000 A 
ATOM     10  C   UNL     1       1.242   3.484  20.955  0.00  0.00    +0.000 A 
ATOM     11  C   UNL     1       1.515   4.499  20.028  0.00  0.00    +0.000 A 
ATOM     12  C   UNL     1       2.787   4.622  19.410  0.00  0.00    +0.000 A 
ATOM     13  C   UNL     1       6.698   4.454  17.727  0.00  0.00    +0.000 C 
ATOM     14  C   UNL     1       7.152   5.620  16.860  0.00  0.00    +0.000 C 
ATOM     15  C   UNL     1       6.039   6.007  15.906  0.00  0.00    +0.000 C 
ATOM     16  C   UNL     1       4.828   6.478  16.702  0.00  0.00    +0.000 C 
ENDBRANCH   1   3
BRANCH   1  17
ATOM     17  C   UNL     1       2.224   7.921  18.848  0.00  0.00    +0.000 C 
BRANCH  17  18
ATOM     18  C   UNL     1       2.201   9.127  17.911  0.00  0.00    +0.000 C 
BRANCH  18  22
ATOM     19  C   UNL     1      -0.980  11.901  18.727  0.00  0.00    +0.000 A 
ATOM     20  C   UNL     1       0.341  12.260  18.984  0.00  0.00    +0.000 A 
ATOM     21  C   UNL     1       1.365  11.353  18.722  0.00  0.00    +0.000 A 
ATOM     22  C   UNL     1       1.076  10.084  18.208  0.00  0.00    +0.000 A 
ATOM     23  C   UNL     1      -0.257   9.732  17.941  0.00  0.00    +0.000 A 
ATOM     24  C   UNL     1      -1.279  10.643  18.205  0.00  0.00    +0.000 A 
BRANCH  19  25
ATOM     25  O   UNL     1      -1.993  12.784  18.979  0.00  0.00    +0.000 OA
ATOM     26  H   UNL     1      -1.780  13.629  18.556  0.00  0.00    +0.000 HD
ENDBRANCH  19  25
BRANCH  24  27
ATOM     27  O   UNL     1      -2.582  10.317  17.954  0.00  0.00    +0.000 OA
ATOM     28  H   UNL     1      -2.765   9.441  18.324  0.00  0.00    +0.000 HD
ENDBRANCH  24  27
ENDBRANCH  18  22
ENDBRANCH  17  18
ENDBRANCH   1  17
TORSDOF 6
ENDMDL
MODEL 9
REMARK VINA RESULT:      -8.1      2.650      4.355
REMARK  Name = 
REMARK  6 active torsions:
REMARK  status: ('A' for Active; 'I' for Inactive)
REMARK    1  A    between atoms: O_1  and  C_2
REMARK    2  A    between atoms: C_5  and  C_6
REMARK    3  A    between atoms: C_6  and  C_7
REMARK    4  A    between atoms: C_7  and  N_8
REMARK    5  A    between atoms: N_8  and  C_9
REMARK    6  A    between atoms: C_24  and  O_25
REMARK                            x       y       z     vdW  Elec       q    Type
REMARK                         _______ _______ _______ _____ _____    ______ ____
ROOT
ATOM      1  N   UNL     1       2.890   7.230  18.752  0.00  0.00    +0.000 N 
ATOM      2  H   UNL     1       2.824   7.306  19.766  0.00  0.00    +0.000 HD
ENDROOT
BRANCH   1   3
ATOM      3  C   UNL     1       3.108   5.867  18.395  0.00  0.00    +0.000 A 
ATOM      4  C   UNL     1       2.548   4.769  19.094  0.00  0.00    +0.000 A 
ATOM      5  C   UNL     1       2.784   3.486  18.585  0.00  0.00    +0.000 A 
ATOM      6  N   UNL     1       3.597   3.237  17.534  0.00  0.00    +0.000 NA
ATOM      7  C   UNL     1       4.220   4.257  16.943  0.00  0.00    +0.000 A 
ATOM      8  C   UNL     1       5.081   3.952  15.895  0.00  0.00    +0.000 A 
ATOM      9  C   UNL     1       5.802   4.936  15.221  0.00  0.00    +0.000 A 
ATOM     10  C   UNL     1       5.650   6.261  15.595  0.00  0.00    +0.000 A 
ATOM     11  C   UNL     1       4.773   6.591  16.636  0.00  0.00    +0.000 A 
ATOM     12  C   UNL     1       4.037   5.599  17.334  0.00  0.00    +0.000 A 
ATOM     13  C   UNL     1       2.196   2.243  19.207  0.00  0.00    +0.000 C 
ATOM     14  C   UNL     1       1.087   2.508  20.215  0.00  0.00    +0.000 C 
ATOM     15  C   UNL     1       1.501   3.636  21.140  0.00  0.00    +0.000 C 
ATOM     16  C   UNL     1       1.695   4.912  20.332  0.00  0.00    +0.000 C 
ENDBRANCH   1   3
BRANCH   1  17
ATOM     17  C   UNL     1       1.823   7.962  18.057  0.00  0.00    +0.000 C 
BRANCH  17  18
ATOM     18  C   UNL     1       2.064   9.467  17.957  0.00  0.00    +0.000 C 
BRANCH  18  22
ATOM     19  C   UNL     1      -1.437  11.841  18.723  0.00  0.00    +0.000 A 
ATOM     20  C   UNL     1      -0.173  12.354  19.002  0.00  0.00    +0.000 A 
ATOM     21  C   UNL     1       0.957  11.576  18.756  0.00  0.00    +0.000 A 
ATOM     22  C   UNL     1       0.829  10.283  18.237  0.00  0.00    +0.000 A 
ATOM     23  C   UNL     1      -0.448   9.775  17.947  0.00  0.00    +0.000 A 
ATOM     24  C   UNL     1      -1.576  10.557  18.195  0.00  0.00    +0.000 A 
BRANCH  19  25
ATOM     25  O   UNL     1      -2.553  12.596  18.960  0.00  0.00    +0.000 OA
ATOM     26  H   UNL     1      -3.209  12.045  19.412  0.00  0.00    +0.000 HD
ENDBRANCH  19  25
BRANCH  24  27
ATOM     27  O   UNL     1      -2.826  10.079  17.923  0.00  0.00    +0.000 OA
ATOM     28  H   UNL     1      -2.750   9.187  17.553  0.00  0.00    +0.000 HD
ENDBRANCH  24  27
ENDBRANCH  18  22
ENDBRANCH  17  18
ENDBRANCH   1  17
TORSDOF 6
ENDMDL
