MODEL 1
REMARK VINA RESULT:      -8.2      0.000      0.000
REMARK  Name = 
REMARK  10 active torsions:
REMARK  status: ('A' for Active; 'I' for Inactive)
REMARK    1  A    between atoms: C_1  and  O_2
REMARK    2  A    between atoms: O_2  and  C_3
REMARK    3  A    between atoms: C_5  and  C_6
REMARK    4  A    between atoms: C_6  and  N_7
REMARK    5  A    between atoms: N_7  and  C_8
REMARK    6  A    between atoms: C_8  and  C_9
REMARK    7  A    between atoms: C_8  and  C_10
REMARK    8  A    between atoms: C_19  and  O_20
REMARK    9  A    between atoms: O_20  and  C_21
REMARK   10  A    between atoms: C_21  and  C_22
REMARK                            x       y       z     vdW  Elec       q    Type
REMARK                         _______ _______ _______ _____ _____    ______ ____
ROOT
ATOM      1  C   UNL     1       2.480   5.261  20.140  0.00  0.00    +0.000 A 
ATOM      2  C   UNL     1       2.950   4.354  19.185  0.00  0.00    +0.000 A 
ATOM      3  C   UNL     1       3.231   4.759  17.878  0.00  0.00    +0.000 A 
ATOM      4  C   UNL     1       3.024   6.100  17.527  0.00  0.00    +0.000 A 
ATOM      5  C   UNL     1       2.574   7.018  18.479  0.00  0.00    +0.000 A 
ATOM      6 BR   UNL     1       2.355   8.824  17.918  0.00  0.00    +0.000 Br
ATOM      7  C   UNL     1       2.323   6.620  19.806  0.00  0.00    +0.000 A 
ENDROOT
BRANCH   1   9
ATOM      8  C   UNL     1       2.092   3.443  21.612  0.00  0.00    +0.000 C 
ATOM      9  O   UNL     1       2.250   4.845  21.427  0.00  0.00    +0.000 OA
ENDBRANCH   1   9
BRANCH   3  10
ATOM     10  C   UNL     1       3.770   3.766  16.880  0.00  0.00    +0.000 C 
BRANCH  10  11
ATOM     11  N   UNL     1       5.142   3.415  17.210  0.00  0.00    +0.000 NA
ATOM     12  H   UNL     1       5.255   2.402  17.142  0.00  0.00    +0.000 HD
BRANCH  11  13
ATOM     13  C   UNL     1       6.142   4.046  16.341  0.00  0.00    +0.000 C 
ATOM     14  C   UNL     1       5.532   4.605  15.050  0.00  0.00    +0.000 C 
BRANCH  13  15
ATOM     15  C   UNL     1       6.838   5.152  17.118  0.00  0.00    +0.000 A 
ATOM     16  C   UNL     1       7.439   4.887  18.358  0.00  0.00    +0.000 A 
ATOM     17  C   UNL     1       8.050   5.910  19.084  0.00  0.00    +0.000 A 
ATOM     18  C   UNL     1       8.060   7.213  18.588  0.00  0.00    +0.000 A 
ATOM     19  C   UNL     1       7.470   7.491  17.357  0.00  0.00    +0.000 A 
ATOM     20  C   UNL     1       6.866   6.468  16.626  0.00  0.00    +0.000 A 
ENDBRANCH  13  15
ENDBRANCH  11  13
ENDBRANCH  10  11
ENDBRANCH   3  10
BRANCH   7  21
ATOM     21  O   UNL     1       1.926   7.619  20.665  0.00  0.00    +0.000 OA
BRANCH  21  22
ATOM     22  C   UNL     1       0.552   7.624  21.043  0.00  0.00    +0.000 C 
BRANCH  22  23
ATOM     23  C   UNL     1       0.133   8.999  21.502  0.00  0.00    +0.000 A 
ATOM     24  C   UNL     1       0.184  10.082  20.611  0.00  0.00    +0.000 A 
ATOM     25  C   UNL     1      -0.275  11.337  21.006  0.00  0.00    +0.000 A 
ATOM     26  C   UNL     1      -0.792  11.502  22.285  0.00  0.00    +0.000 A 
ATOM     27  F   UNL     1      -1.243  12.705  22.664  0.00  0.00    +0.000 F 
ATOM     28  C   UNL     1      -0.856  10.440  23.179  0.00  0.00    +0.000 A 
ATOM     29  C   UNL     1      -0.394   9.184  22.789  0.00  0.00    +0.000 A 
ENDBRANCH  22  23
ENDBRANCH  21  22
ENDBRANCH   7  21
TORSDOF 8
ENDMDL
MODEL 2
REMARK VINA RESULT:      -7.6      0.678      1.132
REMARK  Name = 
REMARK  10 active torsions:
REMARK  status: ('A' for Active; 'I' for Inactive)
REMARK    1  A    between atoms: C_1  and  O_2
REMARK    2  A    between atoms: O_2  and  C_3
REMARK    3  A    between atoms: C_5  and  C_6
REMARK    4  A    between atoms: C_6  and  N_7
REMARK    5  A    between atoms: N_7  and  C_8
REMARK    6  A    between atoms: C_8  and  C_9
REMARK    7  A    between atoms: C_8  and  C_10
REMARK    8  A    between atoms: C_19  and  O_20
REMARK    9  A    between atoms: O_20  and  C_21
REMARK   10  A    between atoms: C_21  and  C_22
REMARK                            x       y       z     vdW  Elec       q    Type
REMARK                         _______ _______ _______ _____ _____    ______ ____
ROOT
ATOM      1  C   UNL     1       2.007   4.852  19.931  0.00  0.00    +0.000 A 
ATOM      2  C   UNL     1       2.882   4.022  19.221  0.00  0.00    +0.000 A 
ATOM      3  C   UNL     1       3.585   4.494  18.109  0.00  0.00    +0.000 A 
ATOM      4  C   UNL     1       3.394   5.821  17.702  0.00  0.00    +0.000 A 
ATOM      5  C   UNL     1       2.538   6.663  18.417  0.00  0.00    +0.000 A 
ATOM      6 BR   UNL     1       2.369   8.459  17.808  0.00  0.00    +0.000 Br
ATOM      7  C   UNL     1       1.855   6.201  19.558  0.00  0.00    +0.000 A 
ENDROOT
BRANCH   1   9
ATOM      8  C   UNL     1       1.958   3.251  21.679  0.00  0.00    +0.000 C 
ATOM      9  O   UNL     1       1.361   4.375  21.043  0.00  0.00    +0.000 OA
ENDBRANCH   1   9
BRANCH   3  10
ATOM     10  C   UNL     1       4.547   3.586  17.385  0.00  0.00    +0.000 C 
BRANCH  10  11
ATOM     11  N   UNL     1       4.941   4.181  16.117  0.00  0.00    +0.000 NA
ATOM     12  H   UNL     1       4.590   5.139  16.073  0.00  0.00    +0.000 HD
BRANCH  11  13
ATOM     13  C   UNL     1       6.392   4.215  15.903  0.00  0.00    +0.000 C 
ATOM     14  C   UNL     1       6.768   4.576  14.462  0.00  0.00    +0.000 C 
BRANCH  13  15
ATOM     15  C   UNL     1       7.006   5.212  16.875  0.00  0.00    +0.000 A 
ATOM     16  C   UNL     1       7.570   4.778  18.084  0.00  0.00    +0.000 A 
ATOM     17  C   UNL     1       8.105   5.698  18.988  0.00  0.00    +0.000 A 
ATOM     18  C   UNL     1       8.075   7.062  18.701  0.00  0.00    +0.000 A 
ATOM     19  C   UNL     1       7.521   7.507  17.502  0.00  0.00    +0.000 A 
ATOM     20  C   UNL     1       6.994   6.589  16.595  0.00  0.00    +0.000 A 
ENDBRANCH  13  15
ENDBRANCH  11  13
ENDBRANCH  10  11
ENDBRANCH   3  10
BRANCH   7  21
ATOM     21  O   UNL     1       1.075   7.132  20.206  0.00  0.00    +0.000 OA
BRANCH  21  22
ATOM     22  C   UNL     1       1.724   7.933  21.189  0.00  0.00    +0.000 C 
BRANCH  22  23
ATOM     23  C   UNL     1       0.842   9.085  21.602  0.00  0.00    +0.000 A 
ATOM     24  C   UNL     1       0.090   9.005  22.784  0.00  0.00    +0.000 A 
ATOM     25  C   UNL     1      -0.664  10.097  23.210  0.00  0.00    +0.000 A 
ATOM     26  C   UNL     1      -0.657  11.266  22.458  0.00  0.00    +0.000 A 
ATOM     27  F   UNL     1      -1.374  12.319  22.871  0.00  0.00    +0.000 F 
ATOM     28  C   UNL     1       0.085  11.365  21.288  0.00  0.00    +0.000 A 
ATOM     29  C   UNL     1       0.839  10.274  20.857  0.00  0.00    +0.000 A 
ENDBRANCH  22  23
ENDBRANCH  21  22
ENDBRANCH   7  21
TORSDOF 8
ENDMDL
MODEL 3
REMARK VINA RESULT:      -7.2      1.432      2.868
REMARK  Name = 
REMARK  10 active torsions:
REMARK  status: ('A' for Active; 'I' for Inactive)
REMARK    1  A    between atoms: C_1  and  O_2
REMARK    2  A    between atoms: O_2  and  C_3
REMARK    3  A    between atoms: C_5  and  C_6
REMARK    4  A    between atoms: C_6  and  N_7
REMARK    5  A    between atoms: N_7  and  C_8
REMARK    6  A    between atoms: C_8  and  C_9
REMARK    7  A    between atoms: C_8  and  C_10
REMARK    8  A    between atoms: C_19  and  O_20
REMARK    9  A    between atoms: O_20  and  C_21
REMARK   10  A    between atoms: C_21  and  C_22
REMARK                            x       y       z     vdW  Elec       q    Type
REMARK                         _______ _______ _______ _____ _____    ______ ____
ROOT
ATOM      1  C   UNL     1       2.459   5.008  20.372  0.00  0.00    +0.000 A 
ATOM      2  C   UNL     1       3.366   4.281  19.593  0.00  0.00    +0.000 A 
ATOM      3  C   UNL     1       3.834   4.777  18.373  0.00  0.00    +0.000 A 
ATOM      4  C   UNL     1       3.371   6.022  17.928  0.00  0.00    +0.000 A 
ATOM      5  C   UNL     1       2.481   6.765  18.708  0.00  0.00    +0.000 A 
ATOM      6 BR   UNL     1       1.934   8.460  18.036  0.00  0.00    +0.000 Br
ATOM      7  C   UNL     1       2.035   6.284  19.953  0.00  0.00    +0.000 A 
ENDROOT
BRANCH   1   9
ATOM      8  C   UNL     1       1.598   3.166  21.591  0.00  0.00    +0.000 C 
ATOM      9  O   UNL     1       2.048   4.516  21.584  0.00  0.00    +0.000 OA
ENDBRANCH   1   9
BRANCH   3  10
ATOM     10  C   UNL     1       4.837   3.986  17.573  0.00  0.00    +0.000 C 
BRANCH  10  11
ATOM     11  N   UNL     1       4.842   4.434  16.189  0.00  0.00    +0.000 NA
ATOM     12  H   UNL     1       4.021   5.018  16.024  0.00  0.00    +0.000 HD
BRANCH  11  13
ATOM     13  C   UNL     1       6.035   5.206  15.820  0.00  0.00    +0.000 C 
ATOM     14  C   UNL     1       7.190   5.018  16.810  0.00  0.00    +0.000 C 
BRANCH  13  15
ATOM     15  C   UNL     1       6.468   4.795  14.420  0.00  0.00    +0.000 A 
ATOM     16  C   UNL     1       7.540   5.440  13.785  0.00  0.00    +0.000 A 
ATOM     17  C   UNL     1       7.915   5.083  12.489  0.00  0.00    +0.000 A 
ATOM     18  C   UNL     1       7.220   4.085  11.807  0.00  0.00    +0.000 A 
ATOM     19  C   UNL     1       6.156   3.434  12.426  0.00  0.00    +0.000 A 
ATOM     20  C   UNL     1       5.784   3.784  13.724  0.00  0.00    +0.000 A 
ENDBRANCH  13  15
ENDBRANCH  11  13
ENDBRANCH  10  11
ENDBRANCH   3  10
BRANCH   7  21
ATOM     21  O   UNL     1       1.195   7.121  20.652  0.00  0.00    +0.000 OA
BRANCH  21  22
ATOM     22  C   UNL     1       1.812   8.176  21.384  0.00  0.00    +0.000 C 
BRANCH  22  23
ATOM     23  C   UNL     1       0.815   9.266  21.689  0.00  0.00    +0.000 A 
ATOM     24  C   UNL     1      -0.048   9.139  22.789  0.00  0.00    +0.000 A 
ATOM     25  C   UNL     1      -0.917  10.177  23.121  0.00  0.00    +0.000 A 
ATOM     26  C   UNL     1      -0.914  11.339  22.359  0.00  0.00    +0.000 A 
ATOM     27  F   UNL     1      -1.742  12.341  22.683  0.00  0.00    +0.000 F 
ATOM     28  C   UNL     1      -0.063  11.484  21.271  0.00  0.00    +0.000 A 
ATOM     29  C   UNL     1       0.805  10.447  20.933  0.00  0.00    +0.000 A 
ENDBRANCH  22  23
ENDBRANCH  21  22
ENDBRANCH   7  21
TORSDOF 8
ENDMDL
MODEL 4
REMARK VINA RESULT:      -7.2      1.616      2.475
REMARK  Name = 
REMARK  10 active torsions:
REMARK  status: ('A' for Active; 'I' for Inactive)
REMARK    1  A    between atoms: C_1  and  O_2
REMARK    2  A    between atoms: O_2  and  C_3
REMARK    3  A    between atoms: C_5  and  C_6
REMARK    4  A    between atoms: C_6  and  N_7
REMARK    5  A    between atoms: N_7  and  C_8
REMARK    6  A    between atoms: C_8  and  C_9
REMARK    7  A    between atoms: C_8  and  C_10
REMARK    8  A    between atoms: C_19  and  O_20
REMARK    9  A    between atoms: O_20  and  C_21
REMARK   10  A    between atoms: C_21  and  C_22
REMARK                            x       y       z     vdW  Elec       q    Type
REMARK                         _______ _______ _______ _____ _____    ______ ____
ROOT
ATOM      1  C   UNL     1       2.602   6.237  18.379  0.00  0.00    +0.000 A 
ATOM      2  C   UNL     1       3.369   5.442  17.520  0.00  0.00    +0.000 A 
ATOM      3  C   UNL     1       3.765   4.153  17.886  0.00  0.00    +0.000 A 
ATOM      4  C   UNL     1       3.391   3.663  19.144  0.00  0.00    +0.000 A 
ATOM      5  C   UNL     1       2.609   4.441  20.001  0.00  0.00    +0.000 A 
ATOM      6 BR   UNL     1       2.121   3.677  21.676  0.00  0.00    +0.000 Br
ATOM      7  C   UNL     1       2.178   5.726  19.621  0.00  0.00    +0.000 A 
ENDROOT
BRANCH   1   9
ATOM      8  C   UNL     1       3.222   8.387  17.596  0.00  0.00    +0.000 C 
ATOM      9  O   UNL     1       2.192   7.483  17.978  0.00  0.00    +0.000 OA
ENDBRANCH   1   9
BRANCH   3  10
ATOM     10  C   UNL     1       4.562   3.308  16.925  0.00  0.00    +0.000 C 
BRANCH  10  11
ATOM     11  N   UNL     1       5.013   4.114  15.801  0.00  0.00    +0.000 NA
ATOM     12  H   UNL     1       4.643   5.061  15.899  0.00  0.00    +0.000 HD
BRANCH  11  13
ATOM     13  C   UNL     1       6.473   4.205  15.684  0.00  0.00    +0.000 C 
ATOM     14  C   UNL     1       6.926   4.671  14.295  0.00  0.00    +0.000 C 
BRANCH  13  15
ATOM     15  C   UNL     1       6.992   5.154  16.754  0.00  0.00    +0.000 A 
ATOM     16  C   UNL     1       6.923   6.543  16.572  0.00  0.00    +0.000 A 
ATOM     17  C   UNL     1       7.428   7.411  17.542  0.00  0.00    +0.000 A 
ATOM     18  C   UNL     1       8.017   6.904  18.699  0.00  0.00    +0.000 A 
ATOM     19  C   UNL     1       8.090   5.527  18.894  0.00  0.00    +0.000 A 
ATOM     20  C   UNL     1       7.579   4.658  17.930  0.00  0.00    +0.000 A 
ENDBRANCH  13  15
ENDBRANCH  11  13
ENDBRANCH  10  11
ENDBRANCH   3  10
BRANCH   7  21
ATOM     21  O   UNL     1       1.376   6.381  20.528  0.00  0.00    +0.000 OA
BRANCH  21  22
ATOM     22  C   UNL     1       1.985   7.432  21.273  0.00  0.00    +0.000 C 
BRANCH  22  23
ATOM     23  C   UNL     1       1.067   8.627  21.353  0.00  0.00    +0.000 A 
ATOM     24  C   UNL     1       0.709   9.316  20.183  0.00  0.00    +0.000 A 
ATOM     25  C   UNL     1      -0.200  10.371  20.242  0.00  0.00    +0.000 A 
ATOM     26  C   UNL     1      -0.752  10.728  21.466  0.00  0.00    +0.000 A 
ATOM     27  F   UNL     1      -1.633  11.735  21.523  0.00  0.00    +0.000 F 
ATOM     28  C   UNL     1      -0.413  10.054  22.633  0.00  0.00    +0.000 A 
ATOM     29  C   UNL     1       0.497   9.000  22.579  0.00  0.00    +0.000 A 
ENDBRANCH  22  23
ENDBRANCH  21  22
ENDBRANCH   7  21
TORSDOF 8
ENDMDL
MODEL 5
REMARK VINA RESULT:      -7.1      0.767      1.545
REMARK  Name = 
REMARK  10 active torsions:
REMARK  status: ('A' for Active; 'I' for Inactive)
REMARK    1  A    between atoms: C_1  and  O_2
REMARK    2  A    between atoms: O_2  and  C_3
REMARK    3  A    between atoms: C_5  and  C_6
REMARK    4  A    between atoms: C_6  and  N_7
REMARK    5  A    between atoms: N_7  and  C_8
REMARK    6  A    between atoms: C_8  and  C_9
REMARK    7  A    between atoms: C_8  and  C_10
REMARK    8  A    between atoms: C_19  and  O_20
REMARK    9  A    between atoms: O_20  and  C_21
REMARK   10  A    between atoms: C_21  and  C_22
REMARK                            x       y       z     vdW  Elec       q    Type
REMARK                         _______ _______ _______ _____ _____    ______ ____
ROOT
ATOM      1  C   UNL     1       2.240   4.995  20.170  0.00  0.00    +0.000 A 
ATOM      2  C   UNL     1       3.145   4.211  19.446  0.00  0.00    +0.000 A 
ATOM      3  C   UNL     1       3.738   4.687  18.273  0.00  0.00    +0.000 A 
ATOM      4  C   UNL     1       3.403   5.969  17.819  0.00  0.00    +0.000 A 
ATOM      5  C   UNL     1       2.516   6.767  18.545  0.00  0.00    +0.000 A 
ATOM      6 BR   UNL     1       2.149   8.508  17.868  0.00  0.00    +0.000 Br
ATOM      7  C   UNL     1       1.944   6.305  19.746  0.00  0.00    +0.000 A 
ENDROOT
BRANCH   1   9
ATOM      8  C   UNL     1       1.485   3.115  21.402  0.00  0.00    +0.000 C 
ATOM      9  O   UNL     1       1.705   4.520  21.340  0.00  0.00    +0.000 OA
ENDBRANCH   1   9
BRANCH   3  10
ATOM     10  C   UNL     1       4.736   3.832  17.533  0.00  0.00    +0.000 C 
BRANCH  10  11
ATOM     11  N   UNL     1       6.039   3.914  18.172  0.00  0.00    +0.000 NA
ATOM     12  H   UNL     1       6.305   2.989  18.512  0.00  0.00    +0.000 HD
BRANCH  11  13
ATOM     13  C   UNL     1       7.105   4.400  17.287  0.00  0.00    +0.000 C 
ATOM     14  C   UNL     1       6.710   4.352  15.807  0.00  0.00    +0.000 C 
BRANCH  13  15
ATOM     15  C   UNL     1       7.466   5.822  17.691  0.00  0.00    +0.000 A 
ATOM     16  C   UNL     1       7.154   6.904  16.855  0.00  0.00    +0.000 A 
ATOM     17  C   UNL     1       7.514   8.204  17.213  0.00  0.00    +0.000 A 
ATOM     18  C   UNL     1       8.198   8.439  18.405  0.00  0.00    +0.000 A 
ATOM     19  C   UNL     1       8.512   7.375  19.247  0.00  0.00    +0.000 A 
ATOM     20  C   UNL     1       8.146   6.076  18.894  0.00  0.00    +0.000 A 
ENDBRANCH  13  15
ENDBRANCH  11  13
ENDBRANCH  10  11
ENDBRANCH   3  10
BRANCH   7  21
ATOM     21  O   UNL     1       1.121   7.194  20.398  0.00  0.00    +0.000 OA
BRANCH  21  22
ATOM     22  C   UNL     1       1.734   8.034  21.372  0.00  0.00    +0.000 C 
BRANCH  22  23
ATOM     23  C   UNL     1       0.834   9.195  21.714  0.00  0.00    +0.000 A 
ATOM     24  C   UNL     1       0.006   9.131  22.847  0.00  0.00    +0.000 A 
ATOM     25  C   UNL     1      -0.768  10.230  23.212  0.00  0.00    +0.000 A 
ATOM     26  C   UNL     1      -0.707  11.391  22.450  0.00  0.00    +0.000 A 
ATOM     27  F   UNL     1      -1.444  12.452  22.805  0.00  0.00    +0.000 F 
ATOM     28  C   UNL     1       0.110  11.474  21.330  0.00  0.00    +0.000 A 
ATOM     29  C   UNL     1       0.884  10.376  20.959  0.00  0.00    +0.000 A 
ENDBRANCH  22  23
ENDBRANCH  21  22
ENDBRANCH   7  21
TORSDOF 8
ENDMDL
MODEL 6
REMARK VINA RESULT:      -7.1      3.032      5.418
REMARK  Name = 
REMARK  10 active torsions:
REMARK  status: ('A' for Active; 'I' for Inactive)
REMARK    1  A    between atoms: C_1  and  O_2
REMARK    2  A    between atoms: O_2  and  C_3
REMARK    3  A    between atoms: C_5  and  C_6
REMARK    4  A    between atoms: C_6  and  N_7
REMARK    5  A    between atoms: N_7  and  C_8
REMARK    6  A    between atoms: C_8  and  C_9
REMARK    7  A    between atoms: C_8  and  C_10
REMARK    8  A    between atoms: C_19  and  O_20
REMARK    9  A    between atoms: O_20  and  C_21
REMARK   10  A    between atoms: C_21  and  C_22
REMARK                            x       y       z     vdW  Elec       q    Type
REMARK                         _______ _______ _______ _____ _____    ______ ____
ROOT
ATOM      1  C   UNL     1      -0.181  10.179  18.534  0.00  0.00    +0.000 A 
ATOM      2  C   UNL     1       0.835   9.509  17.844  0.00  0.00    +0.000 A 
ATOM      3  C   UNL     1       1.793   8.750  18.522  0.00  0.00    +0.000 A 
ATOM      4  C   UNL     1       1.729   8.675  19.919  0.00  0.00    +0.000 A 
ATOM      5  C   UNL     1       0.706   9.323  20.616  0.00  0.00    +0.000 A 
ATOM      6 BR   UNL     1       0.682   9.135  22.510  0.00  0.00    +0.000 Br
ATOM      7  C   UNL     1      -0.280  10.060  19.934  0.00  0.00    +0.000 A 
ENDROOT
BRANCH   1   9
ATOM      8  C   UNL     1      -2.146  10.111  17.209  0.00  0.00    +0.000 C 
ATOM      9  O   UNL     1      -1.131  10.884  17.840  0.00  0.00    +0.000 OA
ENDBRANCH   1   9
BRANCH   3  10
ATOM     10  C   UNL     1       2.855   8.011  17.748  0.00  0.00    +0.000 C 
BRANCH  10  11
ATOM     11  N   UNL     1       3.309   6.851  18.499  0.00  0.00    +0.000 NA
ATOM     12  H   UNL     1       2.902   6.878  19.435  0.00  0.00    +0.000 HD
BRANCH  11  13
ATOM     13  C   UNL     1       2.953   5.568  17.883  0.00  0.00    +0.000 C 
ATOM     14  C   UNL     1       4.156   4.867  17.242  0.00  0.00    +0.000 C 
BRANCH  13  15
ATOM     15  C   UNL     1       2.324   4.675  18.941  0.00  0.00    +0.000 A 
ATOM     16  C   UNL     1       2.648   4.834  20.297  0.00  0.00    +0.000 A 
ATOM     17  C   UNL     1       2.093   3.993  21.262  0.00  0.00    +0.000 A 
ATOM     18  C   UNL     1       1.216   2.976  20.887  0.00  0.00    +0.000 A 
ATOM     19  C   UNL     1       0.882   2.809  19.545  0.00  0.00    +0.000 A 
ATOM     20  C   UNL     1       1.429   3.653  18.580  0.00  0.00    +0.000 A 
ENDBRANCH  13  15
ENDBRANCH  11  13
ENDBRANCH  10  11
ENDBRANCH   3  10
BRANCH   7  21
ATOM     21  O   UNL     1      -1.262  10.618  20.720  0.00  0.00    +0.000 OA
BRANCH  21  22
ATOM     22  C   UNL     1      -1.126  12.005  21.019  0.00  0.00    +0.000 C 
BRANCH  22  23
ATOM     23  C   UNL     1      -2.313  12.496  21.809  0.00  0.00    +0.000 A 
ATOM     24  C   UNL     1      -2.519  12.043  23.121  0.00  0.00    +0.000 A 
ATOM     25  C   UNL     1      -3.569  12.553  23.883  0.00  0.00    +0.000 A 
ATOM     26  C   UNL     1      -4.403  13.520  23.334  0.00  0.00    +0.000 A 
ATOM     27  F   UNL     1      -5.406  14.018  24.067  0.00  0.00    +0.000 F 
ATOM     28  C   UNL     1      -4.210  13.985  22.039  0.00  0.00    +0.000 A 
ATOM     29  C   UNL     1      -3.163  13.475  21.273  0.00  0.00    +0.000 A 
ENDBRANCH  22  23
ENDBRANCH  21  22
ENDBRANCH   7  21
TORSDOF 8
ENDMDL
MODEL 7
REMARK VINA RESULT:      -7.1      1.473      2.761
REMARK  Name = 
REMARK  10 active torsions:
REMARK  status: ('A' for Active; 'I' for Inactive)
REMARK    1  A    between atoms: C_1  and  O_2
REMARK    2  A    between atoms: O_2  and  C_3
REMARK    3  A    between atoms: C_5  and  C_6
REMARK    4  A    between atoms: C_6  and  N_7
REMARK    5  A    between atoms: N_7  and  C_8
REMARK    6  A    between atoms: C_8  and  C_9
REMARK    7  A    between atoms: C_8  and  C_10
REMARK    8  A    between atoms: C_19  and  O_20
REMARK    9  A    between atoms: O_20  and  C_21
REMARK   10  A    between atoms: C_21  and  C_22
REMARK                            x       y       z     vdW  Elec       q    Type
REMARK                         _______ _______ _______ _____ _____    ______ ____
ROOT
ATOM      1  C   UNL     1       2.132   4.981  19.951  0.00  0.00    +0.000 A 
ATOM      2  C   UNL     1       3.085   4.212  19.273  0.00  0.00    +0.000 A 
ATOM      3  C   UNL     1       3.809   4.738  18.200  0.00  0.00    +0.000 A 
ATOM      4  C   UNL     1       3.558   6.057  17.797  0.00  0.00    +0.000 A 
ATOM      5  C   UNL     1       2.623   6.839  18.481  0.00  0.00    +0.000 A 
ATOM      6 BR   UNL     1       2.376   8.629  17.883  0.00  0.00    +0.000 Br
ATOM      7  C   UNL     1       1.918   6.324  19.585  0.00  0.00    +0.000 A 
ENDROOT
BRANCH   1   9
ATOM      8  C   UNL     1       2.109   3.372  21.692  0.00  0.00    +0.000 C 
ATOM      9  O   UNL     1       1.465   4.453  21.028  0.00  0.00    +0.000 OA
ENDBRANCH   1   9
BRANCH   3  10
ATOM     10  C   UNL     1       4.853   3.897  17.511  0.00  0.00    +0.000 C 
BRANCH  10  11
ATOM     11  N   UNL     1       4.918   4.235  16.098  0.00  0.00    +0.000 NA
ATOM     12  H   UNL     1       4.113   4.813  15.854  0.00  0.00    +0.000 HD
BRANCH  11  13
ATOM     13  C   UNL     1       6.135   4.962  15.716  0.00  0.00    +0.000 C 
ATOM     14  C   UNL     1       7.327   4.633  16.622  0.00  0.00    +0.000 C 
BRANCH  13  15
ATOM     15  C   UNL     1       6.467   4.635  14.268  0.00  0.00    +0.000 A 
ATOM     16  C   UNL     1       5.740   3.658  13.571  0.00  0.00    +0.000 A 
ATOM     17  C   UNL     1       6.066   3.338  12.252  0.00  0.00    +0.000 A 
ATOM     18  C   UNL     1       7.127   3.980  11.616  0.00  0.00    +0.000 A 
ATOM     19  C   UNL     1       7.856   4.955  12.295  0.00  0.00    +0.000 A 
ATOM     20  C   UNL     1       7.526   5.282  13.610  0.00  0.00    +0.000 A 
ENDBRANCH  13  15
ENDBRANCH  11  13
ENDBRANCH  10  11
ENDBRANCH   3  10
BRANCH   7  21
ATOM     21  O   UNL     1       1.056   7.198  20.206  0.00  0.00    +0.000 OA
BRANCH  21  22
ATOM     22  C   UNL     1       1.578   7.929  21.312  0.00  0.00    +0.000 C 
BRANCH  22  23
ATOM     23  C   UNL     1       0.690   9.103  21.640  0.00  0.00    +0.000 A 
ATOM     24  C   UNL     1       0.257   9.963  20.618  0.00  0.00    +0.000 A 
ATOM     25  C   UNL     1      -0.626  11.002  20.902  0.00  0.00    +0.000 A 
ATOM     26  C   UNL     1      -1.079  11.174  22.205  0.00  0.00    +0.000 A 
ATOM     27  F   UNL     1      -1.935  12.167  22.479  0.00  0.00    +0.000 F 
ATOM     28  C   UNL     1      -0.666  10.330  23.228  0.00  0.00    +0.000 A 
ATOM     29  C   UNL     1       0.220   9.291  22.948  0.00  0.00    +0.000 A 
ENDBRANCH  22  23
ENDBRANCH  21  22
ENDBRANCH   7  21
TORSDOF 8
ENDMDL
MODEL 8
REMARK VINA RESULT:      -7.1      1.464      2.388
REMARK  Name = 
REMARK  10 active torsions:
REMARK  status: ('A' for Active; 'I' for Inactive)
REMARK    1  A    between atoms: C_1  and  O_2
REMARK    2  A    between atoms: O_2  and  C_3
REMARK    3  A    between atoms: C_5  and  C_6
REMARK    4  A    between atoms: C_6  and  N_7
REMARK    5  A    between atoms: N_7  and  C_8
REMARK    6  A    between atoms: C_8  and  C_9
REMARK    7  A    between atoms: C_8  and  C_10
REMARK    8  A    between atoms: C_19  and  O_20
REMARK    9  A    between atoms: O_20  and  C_21
REMARK   10  A    between atoms: C_21  and  C_22
REMARK                            x       y       z     vdW  Elec       q    Type
REMARK                         _______ _______ _______ _____ _____    ______ ____
ROOT
ATOM      1  C   UNL     1       2.970   6.819  18.707  0.00  0.00    +0.000 A 
ATOM      2  C   UNL     1       3.509   6.037  17.679  0.00  0.00    +0.000 A 
ATOM      3  C   UNL     1       3.619   4.649  17.807  0.00  0.00    +0.000 A 
ATOM      4  C   UNL     1       3.190   4.044  18.995  0.00  0.00    +0.000 A 
ATOM      5  C   UNL     1       2.632   4.813  20.019  0.00  0.00    +0.000 A 
ATOM      6 BR   UNL     1       2.046   3.898  21.582  0.00  0.00    +0.000 Br
ATOM      7  C   UNL     1       2.487   6.207  19.880  0.00  0.00    +0.000 A 
ENDROOT
BRANCH   1   9
ATOM      8  C   UNL     1       1.900   8.591  17.553  0.00  0.00    +0.000 C 
ATOM      9  O   UNL     1       2.836   8.173  18.540  0.00  0.00    +0.000 OA
ENDBRANCH   1   9
BRANCH   3  10
ATOM     10  C   UNL     1       4.172   3.830  16.668  0.00  0.00    +0.000 C 
BRANCH  10  11
ATOM     11  N   UNL     1       4.915   4.680  15.752  0.00  0.00    +0.000 NA
ATOM     12  H   UNL     1       4.748   5.658  15.992  0.00  0.00    +0.000 HD
BRANCH  11  13
ATOM     13  C   UNL     1       6.364   4.447  15.769  0.00  0.00    +0.000 C 
ATOM     14  C   UNL     1       7.019   4.697  14.405  0.00  0.00    +0.000 C 
BRANCH  13  15
ATOM     15  C   UNL     1       6.991   5.341  16.828  0.00  0.00    +0.000 A 
ATOM     16  C   UNL     1       7.430   4.807  18.048  0.00  0.00    +0.000 A 
ATOM     17  C   UNL     1       7.977   5.635  19.030  0.00  0.00    +0.000 A 
ATOM     18  C   UNL     1       8.083   7.007  18.811  0.00  0.00    +0.000 A 
ATOM     19  C   UNL     1       7.654   7.552  17.603  0.00  0.00    +0.000 A 
ATOM     20  C   UNL     1       7.115   6.725  16.617  0.00  0.00    +0.000 A 
ENDBRANCH  13  15
ENDBRANCH  11  13
ENDBRANCH  10  11
ENDBRANCH   3  10
BRANCH   7  21
ATOM     21  O   UNL     1       1.885   6.854  20.935  0.00  0.00    +0.000 OA
BRANCH  21  22
ATOM     22  C   UNL     1       0.488   7.106  20.814  0.00  0.00    +0.000 C 
BRANCH  22  23
ATOM     23  C   UNL     1       0.157   8.501  21.282  0.00  0.00    +0.000 A 
ATOM     24  C   UNL     1      -0.305   8.711  22.590  0.00  0.00    +0.000 A 
ATOM     25  C   UNL     1      -0.537  10.005  23.053  0.00  0.00    +0.000 A 
ATOM     26  C   UNL     1      -0.299  11.084  22.209  0.00  0.00    +0.000 A 
ATOM     27  F   UNL     1      -0.513  12.328  22.655  0.00  0.00    +0.000 F 
ATOM     28  C   UNL     1       0.164  10.895  20.913  0.00  0.00    +0.000 A 
ATOM     29  C   UNL     1       0.394   9.602  20.446  0.00  0.00    +0.000 A 
ENDBRANCH  22  23
ENDBRANCH  21  22
ENDBRANCH   7  21
TORSDOF 8
ENDMDL
MODEL 9
REMARK VINA RESULT:      -7.1      3.074      5.576
REMARK  Name = 
REMARK  10 active torsions:
REMARK  status: ('A' for Active; 'I' for Inactive)
REMARK    1  A    between atoms: C_1  and  O_2
REMARK    2  A    between atoms: O_2  and  C_3
REMARK    3  A    between atoms: C_5  and  C_6
REMARK    4  A    between atoms: C_6  and  N_7
REMARK    5  A    between atoms: N_7  and  C_8
REMARK    6  A    between atoms: C_8  and  C_9
REMARK    7  A    between atoms: C_8  and  C_10
REMARK    8  A    between atoms: C_19  and  O_20
REMARK    9  A    between atoms: O_20  and  C_21
REMARK   10  A    between atoms: C_21  and  C_22
REMARK                            x       y       z     vdW  Elec       q    Type
REMARK                         _______ _______ _______ _____ _____    ______ ____
ROOT
ATOM      1  C   UNL     1      -0.375  10.400  18.578  0.00  0.00    +0.000 A 
ATOM      2  C   UNL     1       0.678   9.767  17.907  0.00  0.00    +0.000 A 
ATOM      3  C   UNL     1       1.611   8.988  18.597  0.00  0.00    +0.000 A 
ATOM      4  C   UNL     1       1.486   8.856  19.986  0.00  0.00    +0.000 A 
ATOM      5  C   UNL     1       0.427   9.468  20.662  0.00  0.00    +0.000 A 
ATOM      6 BR   UNL     1       0.320   9.203  22.544  0.00  0.00    +0.000 Br
ATOM      7  C   UNL     1      -0.535  10.224  19.966  0.00  0.00    +0.000 A 
ENDROOT
BRANCH   1   9
ATOM      8  C   UNL     1      -2.317  10.374  17.219  0.00  0.00    +0.000 C 
ATOM      9  O   UNL     1      -1.300  11.125  17.871  0.00  0.00    +0.000 OA
ENDBRANCH   1   9
BRANCH   3  10
ATOM     10  C   UNL     1       2.714   8.290  17.843  0.00  0.00    +0.000 C 
BRANCH  10  11
ATOM     11  N   UNL     1       3.123   7.087  18.551  0.00  0.00    +0.000 NA
ATOM     12  H   UNL     1       2.557   6.985  19.394  0.00  0.00    +0.000 HD
BRANCH  11  13
ATOM     13  C   UNL     1       2.989   5.858  17.759  0.00  0.00    +0.000 C 
ATOM     14  C   UNL     1       4.343   5.294  17.312  0.00  0.00    +0.000 C 
BRANCH  13  15
ATOM     15  C   UNL     1       2.234   4.826  18.583  0.00  0.00    +0.000 A 
ATOM     16  C   UNL     1       1.738   3.657  17.986  0.00  0.00    +0.000 A 
ATOM     17  C   UNL     1       1.019   2.727  18.738  0.00  0.00    +0.000 A 
ATOM     18  C   UNL     1       0.776   2.956  20.091  0.00  0.00    +0.000 A 
ATOM     19  C   UNL     1       1.265   4.110  20.699  0.00  0.00    +0.000 A 
ATOM     20  C   UNL     1       1.991   5.037  19.951  0.00  0.00    +0.000 A 
ENDBRANCH  13  15
ENDBRANCH  11  13
ENDBRANCH  10  11
ENDBRANCH   3  10
BRANCH   7  21
ATOM     21  O   UNL     1      -1.557  10.742  20.729  0.00  0.00    +0.000 OA
BRANCH  21  22
ATOM     22  C   UNL     1      -1.410  12.094  21.154  0.00  0.00    +0.000 C 
BRANCH  22  23
ATOM     23  C   UNL     1      -2.617  12.535  21.944  0.00  0.00    +0.000 A 
ATOM     24  C   UNL     1      -3.809  12.865  21.280  0.00  0.00    +0.000 A 
ATOM     25  C   UNL     1      -4.949  13.198  22.009  0.00  0.00    +0.000 A 
ATOM     26  C   UNL     1      -4.896  13.192  23.397  0.00  0.00    +0.000 A 
ATOM     27  F   UNL     1      -5.994  13.502  24.100  0.00  0.00    +0.000 F 
ATOM     28  C   UNL     1      -3.727  12.863  24.072  0.00  0.00    +0.000 A 
ATOM     29  C   UNL     1      -2.584  12.532  23.347  0.00  0.00    +0.000 A 
ENDBRANCH  22  23
ENDBRANCH  21  22
ENDBRANCH   7  21
TORSDOF 8
ENDMDL
