MODEL 1
REMARK VINA RESULT:      -6.1      0.000      0.000
REMARK  Name = 
REMARK  4 active torsions:
REMARK  status: ('A' for Active; 'I' for Inactive)
REMARK    1  A    between atoms: C_1  and  C_2
REMARK    2  A    between atoms: C_4  and  C_5
REMARK    3  A    between atoms: N_9  and  C_10
REMARK    4  A    between atoms: N_9  and  C_11
REMARK                            x       y       z     vdW  Elec       q    Type
REMARK                         _______ _______ _______ _____ _____    ______ ____
ROOT
ATOM      1  C   UNL     1       3.787   4.663  18.851  0.00  0.00    +0.000 C 
ATOM      2  C   UNL     1       2.699   5.400  18.059  0.00  0.00    +0.000 C 
ATOM      3  C   UNL     1       1.644   4.363  17.723  0.00  0.00    +0.000 C 
ATOM      4  C   UNL     1       1.876   3.165  18.635  0.00  0.00    +0.000 C 
ATOM      5  N   UNL     1       2.946   3.613  19.637  0.00  0.00    +0.000 N 
ATOM      6  C   UNL     1       3.715   2.454  20.240  0.00  0.00    +0.000 C 
ATOM      7  C   UNL     1       2.236   4.300  20.831  0.00  0.00    +0.000 C 
ENDROOT
BRANCH   1  11
ATOM      8  C   UNL     1       7.496   6.344  18.091  0.00  0.00    +0.000 C 
ATOM      9  C   UNL     1       7.305   4.840  17.915  0.00  0.00    +0.000 C 
ATOM     10  O   UNL     1       6.206   4.409  18.733  0.00  0.00    +0.000 OA
ATOM     11  C   UNL     1       4.992   4.180  17.962  0.00  0.00    +0.000 C 
ATOM     12  C   UNL     1       5.171   4.729  16.547  0.00  0.00    +0.000 C 
ATOM     13  S   UNL     1       6.907   4.481  16.204  0.00  0.00    +0.000 S 
ENDBRANCH   1  11
TORSDOF 1
ENDMDL
MODEL 2
REMARK VINA RESULT:      -5.6      0.826      1.052
REMARK  Name = 
REMARK  4 active torsions:
REMARK  status: ('A' for Active; 'I' for Inactive)
REMARK    1  A    between atoms: C_1  and  C_2
REMARK    2  A    between atoms: C_4  and  C_5
REMARK    3  A    between atoms: N_9  and  C_10
REMARK    4  A    between atoms: N_9  and  C_11
REMARK                            x       y       z     vdW  Elec       q    Type
REMARK                         _______ _______ _______ _____ _____    ______ ____
ROOT
ATOM      1  C   UNL     1       4.365   4.097  19.284  0.00  0.00    +0.000 C 
ATOM      2  C   UNL     1       3.856   5.533  19.458  0.00  0.00    +0.000 C 
ATOM      3  C   UNL     1       2.558   5.620  18.678  0.00  0.00    +0.000 C 
ATOM      4  C   UNL     1       2.092   4.194  18.408  0.00  0.00    +0.000 C 
ATOM      5  N   UNL     1       3.030   3.295  19.222  0.00  0.00    +0.000 N 
ATOM      6  C   UNL     1       3.120   1.885  18.676  0.00  0.00    +0.000 C 
ATOM      7  C   UNL     1       2.443   3.147  20.649  0.00  0.00    +0.000 C 
ENDROOT
BRANCH   1  11
ATOM      8  C   UNL     1       7.391   6.592  17.950  0.00  0.00    +0.000 C 
ATOM      9  C   UNL     1       7.477   5.094  17.669  0.00  0.00    +0.000 C 
ATOM     10  O   UNL     1       6.698   4.389  18.649  0.00  0.00    +0.000 OA
ATOM     11  C   UNL     1       5.416   3.939  18.124  0.00  0.00    +0.000 C 
ATOM     12  C   UNL     1       5.161   4.587  16.764  0.00  0.00    +0.000 C 
ATOM     13  S   UNL     1       6.792   4.746  16.050  0.00  0.00    +0.000 S 
ENDBRANCH   1  11
TORSDOF 1
ENDMDL
MODEL 3
REMARK VINA RESULT:      -5.4      2.546      4.672
REMARK  Name = 
REMARK  4 active torsions:
REMARK  status: ('A' for Active; 'I' for Inactive)
REMARK    1  A    between atoms: C_1  and  C_2
REMARK    2  A    between atoms: C_4  and  C_5
REMARK    3  A    between atoms: N_9  and  C_10
REMARK    4  A    between atoms: N_9  and  C_11
REMARK                            x       y       z     vdW  Elec       q    Type
REMARK                         _______ _______ _______ _____ _____    ______ ____
ROOT
ATOM      1  C   UNL     1       5.134   4.479  18.146  0.00  0.00    +0.000 C 
ATOM      2  C   UNL     1       4.505   4.783  16.781  0.00  0.00    +0.000 C 
ATOM      3  C   UNL     1       4.886   6.213  16.448  0.00  0.00    +0.000 C 
ATOM      4  C   UNL     1       6.040   6.602  17.363  0.00  0.00    +0.000 C 
ATOM      5  N   UNL     1       6.450   5.309  18.078  0.00  0.00    +0.000 N 
ATOM      6  C   UNL     1       7.154   5.560  19.397  0.00  0.00    +0.000 C 
ATOM      7  C   UNL     1       7.487   4.573  17.193  0.00  0.00    +0.000 C 
ENDROOT
BRANCH   1  11
ATOM      8  C   UNL     1       1.846   2.311  19.431  0.00  0.00    +0.000 C 
ATOM      9  C   UNL     1       2.589   3.202  20.423  0.00  0.00    +0.000 C 
ATOM     10  O   UNL     1       3.938   3.387  19.966  0.00  0.00    +0.000 OA
ATOM     11  C   UNL     1       4.147   4.692  19.353  0.00  0.00    +0.000 C 
ATOM     12  C   UNL     1       2.799   5.377  19.131  0.00  0.00    +0.000 C 
ATOM     13  S   UNL     1       1.796   4.808  20.497  0.00  0.00    +0.000 S 
ENDBRANCH   1  11
TORSDOF 1
ENDMDL
MODEL 4
REMARK VINA RESULT:      -5.4      1.075      1.304
REMARK  Name = 
REMARK  4 active torsions:
REMARK  status: ('A' for Active; 'I' for Inactive)
REMARK    1  A    between atoms: C_1  and  C_2
REMARK    2  A    between atoms: C_4  and  C_5
REMARK    3  A    between atoms: N_9  and  C_10
REMARK    4  A    between atoms: N_9  and  C_11
REMARK                            x       y       z     vdW  Elec       q    Type
REMARK                         _______ _______ _______ _____ _____    ______ ____
ROOT
ATOM      1  C   UNL     1       3.474   4.863  19.024  0.00  0.00    +0.000 C 
ATOM      2  C   UNL     1       2.366   5.494  18.174  0.00  0.00    +0.000 C 
ATOM      3  C   UNL     1       1.479   4.352  17.718  0.00  0.00    +0.000 C 
ATOM      4  C   UNL     1       1.790   3.151  18.603  0.00  0.00    +0.000 C 
ATOM      5  N   UNL     1       2.717   3.683  19.703  0.00  0.00    +0.000 N 
ATOM      6  C   UNL     1       3.578   2.602  20.325  0.00  0.00    +0.000 C 
ATOM      7  C   UNL     1       1.837   4.223  20.858  0.00  0.00    +0.000 C 
ENDROOT
BRANCH   1  11
ATOM      8  C   UNL     1       5.119   6.677  15.683  0.00  0.00    +0.000 C 
ATOM      9  C   UNL     1       6.025   5.904  16.637  0.00  0.00    +0.000 C 
ATOM     10  O   UNL     1       5.410   5.862  17.935  0.00  0.00    +0.000 OA
ATOM     11  C   UNL     1       4.795   4.573  18.220  0.00  0.00    +0.000 C 
ATOM     12  C   UNL     1       4.748   3.733  16.944  0.00  0.00    +0.000 C 
ATOM     13  S   UNL     1       6.218   4.221  16.052  0.00  0.00    +0.000 S 
ENDBRANCH   1  11
TORSDOF 1
ENDMDL
MODEL 5
REMARK VINA RESULT:      -5.3      1.698      2.113
REMARK  Name = 
REMARK  4 active torsions:
REMARK  status: ('A' for Active; 'I' for Inactive)
REMARK    1  A    between atoms: C_1  and  C_2
REMARK    2  A    between atoms: C_4  and  C_5
REMARK    3  A    between atoms: N_9  and  C_10
REMARK    4  A    between atoms: N_9  and  C_11
REMARK                            x       y       z     vdW  Elec       q    Type
REMARK                         _______ _______ _______ _____ _____    ______ ____
ROOT
ATOM      1  C   UNL     1       2.545   4.458  18.952  0.00  0.00    +0.000 C 
ATOM      2  C   UNL     1       2.213   4.007  17.524  0.00  0.00    +0.000 C 
ATOM      3  C   UNL     1       2.570   2.535  17.452  0.00  0.00    +0.000 C 
ATOM      4  C   UNL     1       2.702   2.027  18.883  0.00  0.00    +0.000 C 
ATOM      5  N   UNL     1       2.214   3.176  19.772  0.00  0.00    +0.000 N 
ATOM      6  C   UNL     1       2.776   3.116  21.178  0.00  0.00    +0.000 C 
ATOM      7  C   UNL     1       0.679   3.044  19.937  0.00  0.00    +0.000 C 
ENDROOT
BRANCH   1  11
ATOM      8  C   UNL     1       5.190   5.911  16.113  0.00  0.00    +0.000 C 
ATOM      9  C   UNL     1       5.274   6.426  17.547  0.00  0.00    +0.000 C 
ATOM     10  O   UNL     1       3.995   6.257  18.180  0.00  0.00    +0.000 OA
ATOM     11  C   UNL     1       3.967   5.117  19.087  0.00  0.00    +0.000 C 
ATOM     12  C   UNL     1       5.227   4.274  18.891  0.00  0.00    +0.000 C 
ATOM     13  S   UNL     1       6.484   5.469  18.460  0.00  0.00    +0.000 S 
ENDBRANCH   1  11
TORSDOF 1
ENDMDL
MODEL 6
REMARK VINA RESULT:      -5.2      1.637      2.506
REMARK  Name = 
REMARK  4 active torsions:
REMARK  status: ('A' for Active; 'I' for Inactive)
REMARK    1  A    between atoms: C_1  and  C_2
REMARK    2  A    between atoms: C_4  and  C_5
REMARK    3  A    between atoms: N_9  and  C_10
REMARK    4  A    between atoms: N_9  and  C_11
REMARK                            x       y       z     vdW  Elec       q    Type
REMARK                         _______ _______ _______ _____ _____    ______ ____
ROOT
ATOM      1  C   UNL     1       3.099   4.151  18.438  0.00  0.00    +0.000 C 
ATOM      2  C   UNL     1       3.537   2.765  17.949  0.00  0.00    +0.000 C 
ATOM      3  C   UNL     1       3.868   1.963  19.193  0.00  0.00    +0.000 C 
ATOM      4  C   UNL     1       3.247   2.688  20.381  0.00  0.00    +0.000 C 
ATOM      5  N   UNL     1       2.385   3.801  19.777  0.00  0.00    +0.000 N 
ATOM      6  C   UNL     1       2.150   4.954  20.733  0.00  0.00    +0.000 C 
ATOM      7  C   UNL     1       0.979   3.220  19.482  0.00  0.00    +0.000 C 
ENDROOT
BRANCH   1  11
ATOM      8  C   UNL     1       5.452   5.653  15.376  0.00  0.00    +0.000 C 
ATOM      9  C   UNL     1       5.265   6.474  16.649  0.00  0.00    +0.000 C 
ATOM     10  O   UNL     1       4.039   6.080  17.284  0.00  0.00    +0.000 OA
ATOM     11  C   UNL     1       4.259   5.214  18.435  0.00  0.00    +0.000 C 
ATOM     12  C   UNL     1       5.718   4.759  18.463  0.00  0.00    +0.000 C 
ATOM     13  S   UNL     1       6.615   6.146  17.781  0.00  0.00    +0.000 S 
ENDBRANCH   1  11
TORSDOF 1
ENDMDL
MODEL 7
REMARK VINA RESULT:      -5.2      2.710      4.788
REMARK  Name = 
REMARK  4 active torsions:
REMARK  status: ('A' for Active; 'I' for Inactive)
REMARK    1  A    between atoms: C_1  and  C_2
REMARK    2  A    between atoms: C_4  and  C_5
REMARK    3  A    between atoms: N_9  and  C_10
REMARK    4  A    between atoms: N_9  and  C_11
REMARK                            x       y       z     vdW  Elec       q    Type
REMARK                         _______ _______ _______ _____ _____    ______ ____
ROOT
ATOM      1  C   UNL     1       3.915   5.209  17.665  0.00  0.00    +0.000 C 
ATOM      2  C   UNL     1       4.382   5.726  19.031  0.00  0.00    +0.000 C 
ATOM      3  C   UNL     1       5.769   5.154  19.249  0.00  0.00    +0.000 C 
ATOM      4  C   UNL     1       6.282   4.672  17.897  0.00  0.00    +0.000 C 
ATOM      5  N   UNL     1       5.255   5.165  16.871  0.00  0.00    +0.000 N 
ATOM      6  C   UNL     1       5.252   4.345  15.596  0.00  0.00    +0.000 C 
ATOM      7  C   UNL     1       5.652   6.598  16.437  0.00  0.00    +0.000 C 
ENDROOT
BRANCH   1  11
ATOM      8  C   UNL     1       1.016   4.040  20.384  0.00  0.00    +0.000 C 
ATOM      9  C   UNL     1       1.008   3.444  18.978  0.00  0.00    +0.000 C 
ATOM     10  O   UNL     1       1.675   4.349  18.083  0.00  0.00    +0.000 OA
ATOM     11  C   UNL     1       3.026   3.914  17.754  0.00  0.00    +0.000 C 
ATOM     12  C   UNL     1       3.434   2.764  18.674  0.00  0.00    +0.000 C 
ATOM     13  S   UNL     1       1.904   1.892  18.978  0.00  0.00    +0.000 S 
ENDBRANCH   1  11
TORSDOF 1
ENDMDL
MODEL 8
REMARK VINA RESULT:      -5.1      1.431      1.760
REMARK  Name = 
REMARK  4 active torsions:
REMARK  status: ('A' for Active; 'I' for Inactive)
REMARK    1  A    between atoms: C_1  and  C_2
REMARK    2  A    between atoms: C_4  and  C_5
REMARK    3  A    between atoms: N_9  and  C_10
REMARK    4  A    between atoms: N_9  and  C_11
REMARK                            x       y       z     vdW  Elec       q    Type
REMARK                         _______ _______ _______ _____ _____    ______ ____
ROOT
ATOM      1  C   UNL     1       3.769   4.233  19.215  0.00  0.00    +0.000 C 
ATOM      2  C   UNL     1       3.311   5.446  20.034  0.00  0.00    +0.000 C 
ATOM      3  C   UNL     1       1.795   5.420  20.018  0.00  0.00    +0.000 C 
ATOM      4  C   UNL     1       1.368   4.024  19.579  0.00  0.00    +0.000 C 
ATOM      5  N   UNL     1       2.656   3.194  19.544  0.00  0.00    +0.000 N 
ATOM      6  C   UNL     1       2.563   1.996  18.620  0.00  0.00    +0.000 C 
ATOM      7  C   UNL     1       2.892   2.605  20.957  0.00  0.00    +0.000 C 
ENDROOT
BRANCH   1  11
ATOM      8  C   UNL     1       7.360   4.638  17.189  0.00  0.00    +0.000 C 
ATOM      9  C   UNL     1       6.093   4.302  16.407  0.00  0.00    +0.000 C 
ATOM     10  O   UNL     1       5.152   3.670  17.291  0.00  0.00    +0.000 OA
ATOM     11  C   UNL     1       4.090   4.573  17.713  0.00  0.00    +0.000 C 
ATOM     12  C   UNL     1       4.441   6.004  17.308  0.00  0.00    +0.000 C 
ATOM     13  S   UNL     1       5.353   5.810  15.783  0.00  0.00    +0.000 S 
ENDBRANCH   1  11
TORSDOF 1
ENDMDL
MODEL 9
REMARK VINA RESULT:      -5.1      2.545      4.863
REMARK  Name = 
REMARK  4 active torsions:
REMARK  status: ('A' for Active; 'I' for Inactive)
REMARK    1  A    between atoms: C_1  and  C_2
REMARK    2  A    between atoms: C_4  and  C_5
REMARK    3  A    between atoms: N_9  and  C_10
REMARK    4  A    between atoms: N_9  and  C_11
REMARK                            x       y       z     vdW  Elec       q    Type
REMARK                         _______ _______ _______ _____ _____    ______ ____
ROOT
ATOM      1  C   UNL     1       5.311   5.182  17.866  0.00  0.00    +0.000 C 
ATOM      2  C   UNL     1       5.637   5.642  19.293  0.00  0.00    +0.000 C 
ATOM      3  C   UNL     1       7.105   5.332  19.512  0.00  0.00    +0.000 C 
ATOM      4  C   UNL     1       7.731   5.097  18.143  0.00  0.00    +0.000 C 
ATOM      5  N   UNL     1       6.649   5.479  17.127  0.00  0.00    +0.000 N 
ATOM      6  C   UNL     1       6.836   4.806  15.782  0.00  0.00    +0.000 C 
ATOM      7  C   UNL     1       6.764   6.999  16.845  0.00  0.00    +0.000 C 
ENDROOT
BRANCH   1  11
ATOM      8  C   UNL     1       1.401   3.839  18.137  0.00  0.00    +0.000 C 
ATOM      9  C   UNL     1       2.441   2.977  17.426  0.00  0.00    +0.000 C 
ATOM     10  O   UNL     1       3.506   3.820  16.959  0.00  0.00    +0.000 OA
ATOM     11  C   UNL     1       4.694   3.736  17.798  0.00  0.00    +0.000 C 
ATOM     12  C   UNL     1       4.362   2.981  19.085  0.00  0.00    +0.000 C 
ATOM     13  S   UNL     1       3.129   1.790  18.579  0.00  0.00    +0.000 S 
ENDBRANCH   1  11
TORSDOF 1
ENDMDL
