MODEL 1
REMARK VINA RESULT:      -7.8      0.000      0.000
REMARK  Name = 
REMARK  5 active torsions:
REMARK  status: ('A' for Active; 'I' for Inactive)
REMARK    1  A    between atoms: C_2  and  C_3
REMARK    2  A    between atoms: C_3  and  C_4
REMARK    3  A    between atoms: C_4  and  S_5
REMARK    4  A    between atoms: S_5  and  C_8
REMARK    5  A    between atoms: C_19  and  C_20
REMARK                            x       y       z     vdW  Elec       q    Type
REMARK                         _______ _______ _______ _____ _____    ______ ____
ROOT
ATOM      1  O   UNL     1       7.918   5.357  19.154  0.00  0.00    +0.000 OA
ATOM      2  C   UNL     1       7.860   6.477  18.643  0.00  0.00    +0.000 C 
ATOM      3  N   UNL     1       8.618   7.484  19.168  0.00  0.00    +0.000 N 
ATOM      4  C   UNL     1       8.671   8.763  18.703  0.00  0.00    +0.000 A 
ATOM      5  N   UNL     1       8.170   9.302  17.618  0.00  0.00    +0.000 NA
ATOM      6  N   UNL     1       8.469  10.640  17.667  0.00  0.00    +0.000 NA
ATOM      7  C   UNL     1       9.148  10.843  18.780  0.00  0.00    +0.000 A 
ATOM      8  O   UNL     1       9.328   9.670  19.484  0.00  0.00    +0.000 OA
ATOM      9  H   UNL     1       9.151   7.270  20.000  0.00  0.00    +0.000 HD
ENDROOT
BRANCH   7  10
ATOM     10  C   UNL     1       9.636  12.132  19.173  0.00  0.00    +0.000 A 
ATOM     11  C   UNL     1      10.842  12.399  19.796  0.00  0.00    +0.000 A 
ATOM     12  C   UNL     1      11.015  13.783  20.084  0.00  0.00    +0.000 A 
ATOM     13  C   UNL     1       9.944  14.531  19.649  0.00  0.00    +0.000 A 
ATOM     14  S   UNL     1       8.743  13.568  18.906  0.00  0.00    +0.000 S 
ENDBRANCH   7  10
BRANCH   2  15
ATOM     15  C   UNL     1       6.971   6.745  17.449  0.00  0.00    +0.000 C 
BRANCH  15  16
ATOM     16  C   UNL     1       6.978   5.609  16.437  0.00  0.00    +0.000 C 
BRANCH  16  17
ATOM     17  S   UNL     1       5.378   5.542  15.650  0.00  0.00    +0.000 S 
ATOM     18  O   UNL     1       5.007   6.887  15.255  0.00  0.00    +0.000 OA
ATOM     19  O   UNL     1       5.404   4.464  14.677  0.00  0.00    +0.000 OA
BRANCH  17  20
ATOM     20  C   UNL     1       4.249   5.066  16.937  0.00  0.00    +0.000 A 
ATOM     21  C   UNL     1       3.528   6.056  17.616  0.00  0.00    +0.000 A 
ATOM     22  C   UNL     1       2.549   5.684  18.538  0.00  0.00    +0.000 A 
ATOM     23  C   UNL     1       2.290   4.333  18.768  0.00  0.00    +0.000 A 
ATOM     24 CL   UNL     1       1.060   3.878  19.881  0.00  0.00    +0.000 Cl
ATOM     25  C   UNL     1       3.007   3.348  18.089  0.00  0.00    +0.000 A 
ATOM     26  C   UNL     1       3.989   3.712  17.163  0.00  0.00    +0.000 A 
ENDBRANCH  17  20
ENDBRANCH  16  17
ENDBRANCH  15  16
ENDBRANCH   2  15
TORSDOF 5
ENDMDL
MODEL 2
REMARK VINA RESULT:      -7.6      0.709      1.312
REMARK  Name = 
REMARK  5 active torsions:
REMARK  status: ('A' for Active; 'I' for Inactive)
REMARK    1  A    between atoms: C_2  and  C_3
REMARK    2  A    between atoms: C_3  and  C_4
REMARK    3  A    between atoms: C_4  and  S_5
REMARK    4  A    between atoms: S_5  and  C_8
REMARK    5  A    between atoms: C_19  and  C_20
REMARK                            x       y       z     vdW  Elec       q    Type
REMARK                         _______ _______ _______ _____ _____    ______ ____
ROOT
ATOM      1  O   UNL     1       7.987   5.222  19.362  0.00  0.00    +0.000 OA
ATOM      2  C   UNL     1       7.847   6.305  18.791  0.00  0.00    +0.000 C 
ATOM      3  N   UNL     1       8.611   7.366  19.187  0.00  0.00    +0.000 N 
ATOM      4  C   UNL     1       8.581   8.613  18.641  0.00  0.00    +0.000 A 
ATOM      5  N   UNL     1       7.972   9.066  17.573  0.00  0.00    +0.000 NA
ATOM      6  N   UNL     1       8.227  10.413  17.513  0.00  0.00    +0.000 NA
ATOM      7  C   UNL     1       8.990  10.707  18.550  0.00  0.00    +0.000 A 
ATOM      8  O   UNL     1       9.269   9.587  19.306  0.00  0.00    +0.000 OA
ATOM      9  H   UNL     1       9.219   7.221  19.980  0.00  0.00    +0.000 HD
ENDROOT
BRANCH   7  10
ATOM     10  C   UNL     1       9.464  12.032  18.820  0.00  0.00    +0.000 A 
ATOM     11  C   UNL     1       8.896  13.214  18.380  0.00  0.00    +0.000 A 
ATOM     12  C   UNL     1       9.630  14.362  18.794  0.00  0.00    +0.000 A 
ATOM     13  C   UNL     1      10.723  14.019  19.559  0.00  0.00    +0.000 A 
ATOM     14  S   UNL     1      10.860  12.327  19.766  0.00  0.00    +0.000 S 
ENDBRANCH   7  10
BRANCH   2  15
ATOM     15  C   UNL     1       6.853   6.470  17.664  0.00  0.00    +0.000 C 
BRANCH  15  16
ATOM     16  C   UNL     1       6.783   5.255  16.751  0.00  0.00    +0.000 C 
BRANCH  16  17
ATOM     17  S   UNL     1       5.293   5.363  15.776  0.00  0.00    +0.000 S 
ATOM     18  O   UNL     1       5.111   6.743  15.372  0.00  0.00    +0.000 OA
ATOM     19  O   UNL     1       5.328   4.300  14.787  0.00  0.00    +0.000 OA
BRANCH  17  20
ATOM     20  C   UNL     1       3.972   4.990  16.906  0.00  0.00    +0.000 A 
ATOM     21  C   UNL     1       3.558   3.662  17.060  0.00  0.00    +0.000 A 
ATOM     22  C   UNL     1       2.610   3.345  18.035  0.00  0.00    +0.000 A 
ATOM     23  C   UNL     1       2.093   4.351  18.851  0.00  0.00    +0.000 A 
ATOM     24 CL   UNL     1       0.949   3.953  20.073  0.00  0.00    +0.000 Cl
ATOM     25  C   UNL     1       2.508   5.674  18.697  0.00  0.00    +0.000 A 
ATOM     26  C   UNL     1       3.457   5.998  17.724  0.00  0.00    +0.000 A 
ENDBRANCH  17  20
ENDBRANCH  16  17
ENDBRANCH  15  16
ENDBRANCH   2  15
TORSDOF 5
ENDMDL
MODEL 3
REMARK VINA RESULT:      -7.6      5.967      7.326
REMARK  Name = 
REMARK  5 active torsions:
REMARK  status: ('A' for Active; 'I' for Inactive)
REMARK    1  A    between atoms: C_2  and  C_3
REMARK    2  A    between atoms: C_3  and  C_4
REMARK    3  A    between atoms: C_4  and  S_5
REMARK    4  A    between atoms: S_5  and  C_8
REMARK    5  A    between atoms: C_19  and  C_20
REMARK                            x       y       z     vdW  Elec       q    Type
REMARK                         _______ _______ _______ _____ _____    ______ ____
ROOT
ATOM      1  O   UNL     1       2.665   4.003  20.659  0.00  0.00    +0.000 OA
ATOM      2  C   UNL     1       2.374   5.108  20.197  0.00  0.00    +0.000 C 
ATOM      3  N   UNL     1       1.973   6.097  21.050  0.00  0.00    +0.000 N 
ATOM      4  C   UNL     1       1.637   7.367  20.690  0.00  0.00    +0.000 A 
ATOM      5  N   UNL     1       1.744   7.989  19.542  0.00  0.00    +0.000 NA
ATOM      6  N   UNL     1       1.200   9.236  19.715  0.00  0.00    +0.000 NA
ATOM      7  C   UNL     1       0.799   9.311  20.970  0.00  0.00    +0.000 A 
ATOM      8  O   UNL     1       1.068   8.145  21.658  0.00  0.00    +0.000 OA
ATOM      9  H   UNL     1       1.876   5.849  22.024  0.00  0.00    +0.000 HD
ENDROOT
BRANCH   7  10
ATOM     10  C   UNL     1       0.176  10.477  21.524  0.00  0.00    +0.000 A 
ATOM     11  C   UNL     1      -0.668  10.517  22.619  0.00  0.00    +0.000 A 
ATOM     12  C   UNL     1      -1.146  11.829  22.895  0.00  0.00    +0.000 A 
ATOM     13  C   UNL     1      -0.630  12.755  22.014  0.00  0.00    +0.000 A 
ATOM     14  S   UNL     1       0.415  12.039  20.866  0.00  0.00    +0.000 S 
ENDBRANCH   7  10
BRANCH   2  15
ATOM     15  C   UNL     1       2.460   5.381  18.713  0.00  0.00    +0.000 C 
BRANCH  15  16
ATOM     16  C   UNL     1       3.882   5.643  18.239  0.00  0.00    +0.000 C 
BRANCH  16  17
ATOM     17  S   UNL     1       4.697   4.075  17.993  0.00  0.00    +0.000 S 
ATOM     18  O   UNL     1       5.649   3.882  19.069  0.00  0.00    +0.000 OA
ATOM     19  O   UNL     1       3.676   3.079  17.719  0.00  0.00    +0.000 OA
BRANCH  17  20
ATOM     20  C   UNL     1       5.651   4.277  16.507  0.00  0.00    +0.000 A 
ATOM     21  C   UNL     1       5.056   4.003  15.269  0.00  0.00    +0.000 A 
ATOM     22  C   UNL     1       5.756   4.278  14.093  0.00  0.00    +0.000 A 
ATOM     23  C   UNL     1       7.034   4.831  14.161  0.00  0.00    +0.000 A 
ATOM     24 CL   UNL     1       7.882   5.200  12.710  0.00  0.00    +0.000 Cl
ATOM     25  C   UNL     1       7.625   5.106  15.395  0.00  0.00    +0.000 A 
ATOM     26  C   UNL     1       6.930   4.834  16.577  0.00  0.00    +0.000 A 
ENDBRANCH  17  20
ENDBRANCH  16  17
ENDBRANCH  15  16
ENDBRANCH   2  15
TORSDOF 5
ENDMDL
MODEL 4
REMARK VINA RESULT:      -7.5      5.691      7.263
REMARK  Name = 
REMARK  5 active torsions:
REMARK  status: ('A' for Active; 'I' for Inactive)
REMARK    1  A    between atoms: C_2  and  C_3
REMARK    2  A    between atoms: C_3  and  C_4
REMARK    3  A    between atoms: C_4  and  S_5
REMARK    4  A    between atoms: S_5  and  C_8
REMARK    5  A    between atoms: C_19  and  C_20
REMARK                            x       y       z     vdW  Elec       q    Type
REMARK                         _______ _______ _______ _____ _____    ______ ____
ROOT
ATOM      1  O   UNL     1       4.080   7.183  16.671  0.00  0.00    +0.000 OA
ATOM      2  C   UNL     1       3.531   7.166  17.774  0.00  0.00    +0.000 C 
ATOM      3  N   UNL     1       2.680   8.181  18.106  0.00  0.00    +0.000 N 
ATOM      4  C   UNL     1       1.991   8.289  19.275  0.00  0.00    +0.000 A 
ATOM      5  N   UNL     1       1.844   7.442  20.265  0.00  0.00    +0.000 NA
ATOM      6  N   UNL     1       1.099   8.079  21.224  0.00  0.00    +0.000 NA
ATOM      7  C   UNL     1       0.822   9.284  20.760  0.00  0.00    +0.000 A 
ATOM      8  O   UNL     1       1.353   9.475  19.501  0.00  0.00    +0.000 OA
ATOM      9  H   UNL     1       2.590   8.937  17.442  0.00  0.00    +0.000 HD
ENDROOT
BRANCH   7  10
ATOM     10  C   UNL     1       0.051  10.245  21.492  0.00  0.00    +0.000 A 
ATOM     11  C   UNL     1      -0.634  10.022  22.672  0.00  0.00    +0.000 A 
ATOM     12  C   UNL     1      -1.331  11.176  23.128  0.00  0.00    +0.000 A 
ATOM     13  C   UNL     1      -1.135  12.253  22.291  0.00  0.00    +0.000 A 
ATOM     14  S   UNL     1      -0.123  11.865  20.969  0.00  0.00    +0.000 S 
ENDBRANCH   7  10
BRANCH   2  15
ATOM     15  C   UNL     1       3.782   6.041  18.753  0.00  0.00    +0.000 C 
BRANCH  15  16
ATOM     16  C   UNL     1       3.133   4.731  18.332  0.00  0.00    +0.000 C 
BRANCH  16  17
ATOM     17  S   UNL     1       4.393   3.471  18.258  0.00  0.00    +0.000 S 
ATOM     18  O   UNL     1       5.233   3.596  19.434  0.00  0.00    +0.000 OA
ATOM     19  O   UNL     1       3.746   2.210  17.942  0.00  0.00    +0.000 OA
BRANCH  17  20
ATOM     20  C   UNL     1       5.406   3.911  16.866  0.00  0.00    +0.000 A 
ATOM     21  C   UNL     1       4.858   3.862  15.578  0.00  0.00    +0.000 A 
ATOM     22  C   UNL     1       5.606   4.324  14.494  0.00  0.00    +0.000 A 
ATOM     23  C   UNL     1       6.885   4.839  14.704  0.00  0.00    +0.000 A 
ATOM     24 CL   UNL     1       7.791   5.440  13.370  0.00  0.00    +0.000 Cl
ATOM     25  C   UNL     1       7.429   4.890  15.988  0.00  0.00    +0.000 A 
ATOM     26  C   UNL     1       6.686   4.429  17.078  0.00  0.00    +0.000 A 
ENDBRANCH  17  20
ENDBRANCH  16  17
ENDBRANCH  15  16
ENDBRANCH   2  15
TORSDOF 5
ENDMDL
MODEL 5
REMARK VINA RESULT:      -7.5      5.536      6.628
REMARK  Name = 
REMARK  5 active torsions:
REMARK  status: ('A' for Active; 'I' for Inactive)
REMARK    1  A    between atoms: C_2  and  C_3
REMARK    2  A    between atoms: C_3  and  C_4
REMARK    3  A    between atoms: C_4  and  S_5
REMARK    4  A    between atoms: S_5  and  C_8
REMARK    5  A    between atoms: C_19  and  C_20
REMARK                            x       y       z     vdW  Elec       q    Type
REMARK                         _______ _______ _______ _____ _____    ______ ____
ROOT
ATOM      1  O   UNL     1       2.056   4.679  21.371  0.00  0.00    +0.000 OA
ATOM      2  C   UNL     1       2.025   5.444  20.406  0.00  0.00    +0.000 C 
ATOM      3  N   UNL     1       1.874   6.784  20.629  0.00  0.00    +0.000 N 
ATOM      4  C   UNL     1       1.838   7.749  19.669  0.00  0.00    +0.000 A 
ATOM      5  N   UNL     1       2.073   7.685  18.381  0.00  0.00    +0.000 NA
ATOM      6  N   UNL     1       1.836   8.937  17.873  0.00  0.00    +0.000 NA
ATOM      7  C   UNL     1       1.478   9.703  18.887  0.00  0.00    +0.000 A 
ATOM      8  O   UNL     1       1.477   9.001  20.076  0.00  0.00    +0.000 OA
ATOM      9  H   UNL     1       1.734   7.075  21.586  0.00  0.00    +0.000 HD
ENDROOT
BRANCH   7  10
ATOM     10  C   UNL     1       1.150  11.090  18.741  0.00  0.00    +0.000 A 
ATOM     11  C   UNL     1       2.034  12.118  18.466  0.00  0.00    +0.000 A 
ATOM     12  C   UNL     1       1.396  13.391  18.417  0.00  0.00    +0.000 A 
ATOM     13  C   UNL     1       0.039  13.289  18.633  0.00  0.00    +0.000 A 
ATOM     14  S   UNL     1      -0.452  11.672  18.896  0.00  0.00    +0.000 S 
ENDBRANCH   7  10
BRANCH   2  15
ATOM     15  C   UNL     1       2.154   4.924  18.993  0.00  0.00    +0.000 C 
BRANCH  15  16
ATOM     16  C   UNL     1       2.044   3.409  18.905  0.00  0.00    +0.000 C 
BRANCH  16  17
ATOM     17  S   UNL     1       3.686   2.728  18.756  0.00  0.00    +0.000 S 
ATOM     18  O   UNL     1       4.117   2.287  20.068  0.00  0.00    +0.000 OA
ATOM     19  O   UNL     1       3.690   1.813  17.628  0.00  0.00    +0.000 OA
BRANCH  17  20
ATOM     20  C   UNL     1       4.721   4.106  18.322  0.00  0.00    +0.000 A 
ATOM     21  C   UNL     1       5.550   4.673  19.298  0.00  0.00    +0.000 A 
ATOM     22  C   UNL     1       6.457   5.671  18.936  0.00  0.00    +0.000 A 
ATOM     23  C   UNL     1       6.535   6.086  17.607  0.00  0.00    +0.000 A 
ATOM     24 CL   UNL     1       7.676   7.293  17.158  0.00  0.00    +0.000 Cl
ATOM     25  C   UNL     1       5.710   5.519  16.636  0.00  0.00    +0.000 A 
ATOM     26  C   UNL     1       4.801   4.520  16.990  0.00  0.00    +0.000 A 
ENDBRANCH  17  20
ENDBRANCH  16  17
ENDBRANCH  15  16
ENDBRANCH   2  15
TORSDOF 5
ENDMDL
MODEL 6
REMARK VINA RESULT:      -7.5      5.494      6.613
REMARK  Name = 
REMARK  5 active torsions:
REMARK  status: ('A' for Active; 'I' for Inactive)
REMARK    1  A    between atoms: C_2  and  C_3
REMARK    2  A    between atoms: C_3  and  C_4
REMARK    3  A    between atoms: C_4  and  S_5
REMARK    4  A    between atoms: S_5  and  C_8
REMARK    5  A    between atoms: C_19  and  C_20
REMARK                            x       y       z     vdW  Elec       q    Type
REMARK                         _______ _______ _______ _____ _____    ______ ____
ROOT
ATOM      1  O   UNL     1       2.088   4.835  21.538  0.00  0.00    +0.000 OA
ATOM      2  C   UNL     1       2.024   5.576  20.555  0.00  0.00    +0.000 C 
ATOM      3  N   UNL     1       1.850   6.917  20.747  0.00  0.00    +0.000 N 
ATOM      4  C   UNL     1       1.778   7.857  19.764  0.00  0.00    +0.000 A 
ATOM      5  N   UNL     1       1.993   7.766  18.474  0.00  0.00    +0.000 NA
ATOM      6  N   UNL     1       1.722   9.000  17.940  0.00  0.00    +0.000 NA
ATOM      7  C   UNL     1       1.366   9.783  18.941  0.00  0.00    +0.000 A 
ATOM      8  O   UNL     1       1.399   9.112  20.146  0.00  0.00    +0.000 OA
ATOM      9  H   UNL     1       1.721   7.230  21.699  0.00  0.00    +0.000 HD
ENDROOT
BRANCH   7  10
ATOM     10  C   UNL     1       1.008  11.160  18.767  0.00  0.00    +0.000 A 
ATOM     11  C   UNL     1       1.878  12.218  18.577  0.00  0.00    +0.000 A 
ATOM     12  C   UNL     1       1.207  13.469  18.469  0.00  0.00    +0.000 A 
ATOM     13  C   UNL     1      -0.160  13.321  18.557  0.00  0.00    +0.000 A 
ATOM     14  S   UNL     1      -0.620  11.689  18.772  0.00  0.00    +0.000 S 
ENDBRANCH   7  10
BRANCH   2  15
ATOM     15  C   UNL     1       2.140   5.023  19.153  0.00  0.00    +0.000 C 
BRANCH  15  16
ATOM     16  C   UNL     1       2.253   3.506  19.119  0.00  0.00    +0.000 C 
BRANCH  16  17
ATOM     17  S   UNL     1       3.195   3.039  17.678  0.00  0.00    +0.000 S 
ATOM     18  O   UNL     1       3.776   1.732  17.917  0.00  0.00    +0.000 OA
ATOM     19  O   UNL     1       2.370   3.279  16.507  0.00  0.00    +0.000 OA
BRANCH  17  20
ATOM     20  C   UNL     1       4.549   4.188  17.617  0.00  0.00    +0.000 A 
ATOM     21  C   UNL     1       4.615   5.112  16.567  0.00  0.00    +0.000 A 
ATOM     22  C   UNL     1       5.603   6.098  16.578  0.00  0.00    +0.000 A 
ATOM     23  C   UNL     1       6.508   6.160  17.638  0.00  0.00    +0.000 A 
ATOM     24 CL   UNL     1       7.704   7.396  17.667  0.00  0.00    +0.000 Cl
ATOM     25  C   UNL     1       6.439   5.240  18.685  0.00  0.00    +0.000 A 
ATOM     26  C   UNL     1       5.452   4.250  18.680  0.00  0.00    +0.000 A 
ENDBRANCH  17  20
ENDBRANCH  16  17
ENDBRANCH  15  16
ENDBRANCH   2  15
TORSDOF 5
ENDMDL
MODEL 7
REMARK VINA RESULT:      -7.5      0.826      1.004
REMARK  Name = 
REMARK  5 active torsions:
REMARK  status: ('A' for Active; 'I' for Inactive)
REMARK    1  A    between atoms: C_2  and  C_3
REMARK    2  A    between atoms: C_3  and  C_4
REMARK    3  A    between atoms: C_4  and  S_5
REMARK    4  A    between atoms: S_5  and  C_8
REMARK    5  A    between atoms: C_19  and  C_20
REMARK                            x       y       z     vdW  Elec       q    Type
REMARK                         _______ _______ _______ _____ _____    ______ ____
ROOT
ATOM      1  O   UNL     1       8.123   5.199  19.324  0.00  0.00    +0.000 OA
ATOM      2  C   UNL     1       7.968   6.277  18.747  0.00  0.00    +0.000 C 
ATOM      3  N   UNL     1       8.671   7.366  19.179  0.00  0.00    +0.000 N 
ATOM      4  C   UNL     1       8.617   8.612  18.633  0.00  0.00    +0.000 A 
ATOM      5  N   UNL     1       8.043   9.044  17.537  0.00  0.00    +0.000 NA
ATOM      6  N   UNL     1       8.247  10.400  17.490  0.00  0.00    +0.000 NA
ATOM      7  C   UNL     1       8.948  10.721  18.562  0.00  0.00    +0.000 A 
ATOM      8  O   UNL     1       9.235   9.611  19.330  0.00  0.00    +0.000 OA
ATOM      9  H   UNL     1       9.246   7.243  20.000  0.00  0.00    +0.000 HD
ENDROOT
BRANCH   7  10
ATOM     10  C   UNL     1       9.358  12.063  18.855  0.00  0.00    +0.000 A 
ATOM     11  C   UNL     1       8.936  13.210  18.208  0.00  0.00    +0.000 A 
ATOM     12  C   UNL     1       9.557  14.386  18.717  0.00  0.00    +0.000 A 
ATOM     13  C   UNL     1      10.417  14.099  19.754  0.00  0.00    +0.000 A 
ATOM     14  S   UNL     1      10.473  12.426  20.101  0.00  0.00    +0.000 S 
ENDBRANCH   7  10
BRANCH   2  15
ATOM     15  C   UNL     1       7.022   6.406  17.574  0.00  0.00    +0.000 C 
BRANCH  15  16
ATOM     16  C   UNL     1       6.770   5.083  16.866  0.00  0.00    +0.000 C 
BRANCH  16  17
ATOM     17  S   UNL     1       5.243   5.210  15.954  0.00  0.00    +0.000 S 
ATOM     18  O   UNL     1       4.910   6.614  15.813  0.00  0.00    +0.000 OA
ATOM     19  O   UNL     1       5.347   4.353  14.786  0.00  0.00    +0.000 OA
BRANCH  17  20
ATOM     20  C   UNL     1       4.007   4.504  17.019  0.00  0.00    +0.000 A 
ATOM     21  C   UNL     1       3.179   5.353  17.763  0.00  0.00    +0.000 A 
ATOM     22  C   UNL     1       2.126   4.813  18.503  0.00  0.00    +0.000 A 
ATOM     23  C   UNL     1       1.903   3.437  18.487  0.00  0.00    +0.000 A 
ATOM     24 CL   UNL     1       0.584   2.776  19.374  0.00  0.00    +0.000 Cl
ATOM     25  C   UNL     1       2.727   2.592  17.744  0.00  0.00    +0.000 A 
ATOM     26  C   UNL     1       3.783   3.125  17.000  0.00  0.00    +0.000 A 
ENDBRANCH  17  20
ENDBRANCH  16  17
ENDBRANCH  15  16
ENDBRANCH   2  15
TORSDOF 5
ENDMDL
MODEL 8
REMARK VINA RESULT:      -7.5      5.571      6.745
REMARK  Name = 
REMARK  5 active torsions:
REMARK  status: ('A' for Active; 'I' for Inactive)
REMARK    1  A    between atoms: C_2  and  C_3
REMARK    2  A    between atoms: C_3  and  C_4
REMARK    3  A    between atoms: C_4  and  S_5
REMARK    4  A    between atoms: S_5  and  C_8
REMARK    5  A    between atoms: C_19  and  C_20
REMARK                            x       y       z     vdW  Elec       q    Type
REMARK                         _______ _______ _______ _____ _____    ______ ____
ROOT
ATOM      1  O   UNL     1       2.708   4.539  20.694  0.00  0.00    +0.000 OA
ATOM      2  C   UNL     1       2.645   5.406  19.821  0.00  0.00    +0.000 C 
ATOM      3  N   UNL     1       2.199   6.652  20.157  0.00  0.00    +0.000 N 
ATOM      4  C   UNL     1       2.091   7.712  19.308  0.00  0.00    +0.000 A 
ATOM      5  N   UNL     1       2.497   7.864  18.071  0.00  0.00    +0.000 NA
ATOM      6  N   UNL     1       2.078   9.106  17.667  0.00  0.00    +0.000 NA
ATOM      7  C   UNL     1       1.445   9.651  18.689  0.00  0.00    +0.000 A 
ATOM      8  O   UNL     1       1.435   8.811  19.784  0.00  0.00    +0.000 OA
ATOM      9  H   UNL     1       1.882   6.784  21.107  0.00  0.00    +0.000 HD
ENDROOT
BRANCH   7  10
ATOM     10  C   UNL     1       0.865  10.960  18.640  0.00  0.00    +0.000 A 
ATOM     11  C   UNL     1       1.548  12.160  18.572  0.00  0.00    +0.000 A 
ATOM     12  C   UNL     1       0.679  13.288  18.572  0.00  0.00    +0.000 A 
ATOM     13  C   UNL     1      -0.645  12.910  18.616  0.00  0.00    +0.000 A 
ATOM     14  S   UNL     1      -0.829  11.210  18.662  0.00  0.00    +0.000 S 
ENDBRANCH   7  10
BRANCH   2  15
ATOM     15  C   UNL     1       3.058   5.111  18.397  0.00  0.00    +0.000 C 
BRANCH  15  16
ATOM     16  C   UNL     1       4.169   4.075  18.303  0.00  0.00    +0.000 C 
BRANCH  16  17
ATOM     17  S   UNL     1       5.711   4.923  18.007  0.00  0.00    +0.000 S 
ATOM     18  O   UNL     1       5.509   6.337  18.258  0.00  0.00    +0.000 OA
ATOM     19  O   UNL     1       6.761   4.191  18.693  0.00  0.00    +0.000 OA
BRANCH  17  20
ATOM     20  C   UNL     1       6.003   4.758  16.262  0.00  0.00    +0.000 A 
ATOM     21  C   UNL     1       7.227   5.182  15.730  0.00  0.00    +0.000 A 
ATOM     22  C   UNL     1       7.513   4.942  14.385  0.00  0.00    +0.000 A 
ATOM     23  C   UNL     1       6.584   4.274  13.588  0.00  0.00    +0.000 A 
ATOM     24 CL   UNL     1       6.953   3.949  11.939  0.00  0.00    +0.000 Cl
ATOM     25  C   UNL     1       5.366   3.849  14.120  0.00  0.00    +0.000 A 
ATOM     26  C   UNL     1       5.073   4.086  15.465  0.00  0.00    +0.000 A 
ENDBRANCH  17  20
ENDBRANCH  16  17
ENDBRANCH  15  16
ENDBRANCH   2  15
TORSDOF 5
ENDMDL
MODEL 9
REMARK VINA RESULT:      -7.5      5.798      7.381
REMARK  Name = 
REMARK  5 active torsions:
REMARK  status: ('A' for Active; 'I' for Inactive)
REMARK    1  A    between atoms: C_2  and  C_3
REMARK    2  A    between atoms: C_3  and  C_4
REMARK    3  A    between atoms: C_4  and  S_5
REMARK    4  A    between atoms: S_5  and  C_8
REMARK    5  A    between atoms: C_19  and  C_20
REMARK                            x       y       z     vdW  Elec       q    Type
REMARK                         _______ _______ _______ _____ _____    ______ ____
ROOT
ATOM      1  O   UNL     1       4.059   7.204  16.815  0.00  0.00    +0.000 OA
ATOM      2  C   UNL     1       3.453   7.206  17.888  0.00  0.00    +0.000 C 
ATOM      3  N   UNL     1       2.585   8.226  18.156  0.00  0.00    +0.000 N 
ATOM      4  C   UNL     1       1.836   8.355  19.286  0.00  0.00    +0.000 A 
ATOM      5  N   UNL     1       1.638   7.527  20.282  0.00  0.00    +0.000 NA
ATOM      6  N   UNL     1       0.844   8.180  21.189  0.00  0.00    +0.000 NA
ATOM      7  C   UNL     1       0.590   9.375  20.688  0.00  0.00    +0.000 A 
ATOM      8  O   UNL     1       1.186   9.544  19.455  0.00  0.00    +0.000 OA
ATOM      9  H   UNL     1       2.528   8.970  17.474  0.00  0.00    +0.000 HD
ENDROOT
BRANCH   7  10
ATOM     10  C   UNL     1      -0.219  10.349  21.360  0.00  0.00    +0.000 A 
ATOM     11  C   UNL     1      -0.776  11.483  20.799  0.00  0.00    +0.000 A 
ATOM     12  C   UNL     1      -1.500  12.264  21.745  0.00  0.00    +0.000 A 
ATOM     13  C   UNL     1      -1.492  11.685  22.995  0.00  0.00    +0.000 A 
ATOM     14  S   UNL     1      -0.614  10.218  23.021  0.00  0.00    +0.000 S 
ENDBRANCH   7  10
BRANCH   2  15
ATOM     15  C   UNL     1       3.654   6.101  18.900  0.00  0.00    +0.000 C 
BRANCH  15  16
ATOM     16  C   UNL     1       3.067   4.771  18.452  0.00  0.00    +0.000 C 
BRANCH  16  17
ATOM     17  S   UNL     1       4.397   3.599  18.261  0.00  0.00    +0.000 S 
ATOM     18  O   UNL     1       5.282   3.723  19.403  0.00  0.00    +0.000 OA
ATOM     19  O   UNL     1       3.815   2.315  17.912  0.00  0.00    +0.000 OA
BRANCH  17  20
ATOM     20  C   UNL     1       5.315   4.165  16.849  0.00  0.00    +0.000 A 
ATOM     21  C   UNL     1       6.616   4.651  17.028  0.00  0.00    +0.000 A 
ATOM     22  C   UNL     1       7.388   4.979  15.912  0.00  0.00    +0.000 A 
ATOM     23  C   UNL     1       6.862   4.812  14.632  0.00  0.00    +0.000 A 
ATOM     24 CL   UNL     1       7.827   5.186  13.257  0.00  0.00    +0.000 Cl
ATOM     25  C   UNL     1       5.566   4.326  14.455  0.00  0.00    +0.000 A 
ATOM     26  C   UNL     1       4.787   3.994  15.567  0.00  0.00    +0.000 A 
ENDBRANCH  17  20
ENDBRANCH  16  17
ENDBRANCH  15  16
ENDBRANCH   2  15
TORSDOF 5
ENDMDL
