MODEL 1
REMARK VINA RESULT:      -7.6      0.000      0.000
REMARK  Name = 
REMARK  11 active torsions:
REMARK  status: ('A' for Active; 'I' for Inactive)
REMARK    1  A    between atoms: C_1  and  C_2
REMARK    2  A    between atoms: C_2  and  C_3
REMARK    3  A    between atoms: C_2  and  C_4
REMARK    4  A    between atoms: C_4  and  C_5
REMARK    5  A    between atoms: C_5  and  N_6
REMARK    6  A    between atoms: C_5  and  C_7
REMARK    7  A    between atoms: N_9  and  C_10
REMARK    8  A    between atoms: C_13  and  S_14
REMARK    9  A    between atoms: S_14  and  N_17
REMARK   10  A    between atoms: N_17  and  C_18
REMARK   11  A    between atoms: C_18  and  C_19
REMARK                            x       y       z     vdW  Elec       q    Type
REMARK                         _______ _______ _______ _____ _____    ______ ____
ROOT
ATOM      1  C   UNL     1       4.503   3.936  16.967  0.00  0.00    +0.000 A 
ATOM      2  C   UNL     1       3.140   3.647  16.848  0.00  0.00    +0.000 A 
ATOM      3  C   UNL     1       2.307   3.624  17.964  0.00  0.00    +0.000 A 
ATOM      4  C   UNL     1       2.836   3.883  19.224  0.00  0.00    +0.000 A 
ATOM      5  C   UNL     1       4.199   4.170  19.365  0.00  0.00    +0.000 A 
ATOM      6  C   UNL     1       5.036   4.168  18.239  0.00  0.00    +0.000 A 
ENDROOT
BRANCH   1   9
ATOM      7  C   UNL     1       5.628   5.181  15.148  0.00  0.00    +0.000 C 
ATOM      8  O   UNL     1       5.212   6.307  15.432  0.00  0.00    +0.000 OA
ATOM      9  N   UNL     1       5.354   4.015  15.842  0.00  0.00    +0.000 N 
ATOM     10  H   UNL     1       5.900   3.191  15.619  0.00  0.00    +0.000 HD
BRANCH   7  11
ATOM     11  C   UNL     1       6.514   4.998  13.904  0.00  0.00    +0.000 C 
BRANCH  11  12
ATOM     12  N   UNL     1       7.899   5.359  14.289  0.00  0.00    +0.000 NA
ATOM     13  H   UNL     1       8.362   4.489  14.580  0.00  0.00    +0.000 HD
ATOM     14  H   UNL     1       7.869   5.914  15.146  0.00  0.00    +0.000 HD
ENDBRANCH  11  12
BRANCH  11  15
ATOM     15  C   UNL     1       6.488   3.527  13.456  0.00  0.00    +0.000 C 
BRANCH  15  17
ATOM     16  C   UNL     1       6.566   1.954  11.441  0.00  0.00    +0.000 C 
ATOM     17  C   UNL     1       6.084   3.300  11.983  0.00  0.00    +0.000 C 
ATOM     18  C   UNL     1       4.562   3.391  11.843  0.00  0.00    +0.000 C 
ENDBRANCH  15  17
ENDBRANCH  11  15
ENDBRANCH   7  11
ENDBRANCH   1   9
BRANCH   4  19
ATOM     19  S   UNL     1       1.736   3.865  20.624  0.00  0.00    +0.000 S 
ATOM     20  O   UNL     1       0.737   2.852  20.367  0.00  0.00    +0.000 OA
ATOM     21  O   UNL     1       2.554   3.857  21.813  0.00  0.00    +0.000 OA
BRANCH  19  22
ATOM     22  N   UNL     1       1.015   5.390  20.555  0.00  0.00    +0.000 NA
ATOM     23  H   UNL     1       0.105   5.410  21.016  0.00  0.00    +0.000 HD
BRANCH  22  24
ATOM     24  C   UNL     1       1.888   6.515  20.916  0.00  0.00    +0.000 C 
BRANCH  24  25
ATOM     25  C   UNL     1       1.856   7.615  19.889  0.00  0.00    +0.000 A 
ATOM     26  C   UNL     1       2.450   7.436  18.632  0.00  0.00    +0.000 A 
ATOM     27  C   UNL     1       2.381   8.444  17.669  0.00  0.00    +0.000 A 
ATOM     28  C   UNL     1       1.716   9.635  17.954  0.00  0.00    +0.000 A 
ATOM     29  C   UNL     1       1.116   9.820  19.199  0.00  0.00    +0.000 A 
ATOM     30  C   UNL     1       1.187   8.816  20.164  0.00  0.00    +0.000 A 
ENDBRANCH  24  25
ENDBRANCH  22  24
ENDBRANCH  19  22
ENDBRANCH   4  19
TORSDOF 9
ENDMDL
MODEL 2
REMARK VINA RESULT:      -7.4      0.964      1.610
REMARK  Name = 
REMARK  11 active torsions:
REMARK  status: ('A' for Active; 'I' for Inactive)
REMARK    1  A    between atoms: C_1  and  C_2
REMARK    2  A    between atoms: C_2  and  C_3
REMARK    3  A    between atoms: C_2  and  C_4
REMARK    4  A    between atoms: C_4  and  C_5
REMARK    5  A    between atoms: C_5  and  N_6
REMARK    6  A    between atoms: C_5  and  C_7
REMARK    7  A    between atoms: N_9  and  C_10
REMARK    8  A    between atoms: C_13  and  S_14
REMARK    9  A    between atoms: S_14  and  N_17
REMARK   10  A    between atoms: N_17  and  C_18
REMARK   11  A    between atoms: C_18  and  C_19
REMARK                            x       y       z     vdW  Elec       q    Type
REMARK                         _______ _______ _______ _____ _____    ______ ____
ROOT
ATOM      1  C   UNL     1       4.587   4.221  17.012  0.00  0.00    +0.000 A 
ATOM      2  C   UNL     1       3.263   3.773  16.993  0.00  0.00    +0.000 A 
ATOM      3  C   UNL     1       2.456   3.855  18.125  0.00  0.00    +0.000 A 
ATOM      4  C   UNL     1       2.975   4.383  19.302  0.00  0.00    +0.000 A 
ATOM      5  C   UNL     1       4.300   4.832  19.344  0.00  0.00    +0.000 A 
ATOM      6  C   UNL     1       5.113   4.724  18.206  0.00  0.00    +0.000 A 
ENDROOT
BRANCH   1   9
ATOM      7  C   UNL     1       5.637   5.284  15.039  0.00  0.00    +0.000 C 
ATOM      8  O   UNL     1       5.207   6.426  15.214  0.00  0.00    +0.000 OA
ATOM      9  N   UNL     1       5.406   4.193  15.861  0.00  0.00    +0.000 N 
ATOM     10  H   UNL     1       5.962   3.360  15.710  0.00  0.00    +0.000 HD
BRANCH   7  11
ATOM     11  C   UNL     1       6.493   4.984  13.796  0.00  0.00    +0.000 C 
BRANCH  11  12
ATOM     12  N   UNL     1       7.904   5.264  14.151  0.00  0.00    +0.000 NA
ATOM     13  H   UNL     1       8.019   5.004  15.138  0.00  0.00    +0.000 HD
ATOM     14  H   UNL     1       8.050   6.275  14.150  0.00  0.00    +0.000 HD
ENDBRANCH  11  12
BRANCH  11  15
ATOM     15  C   UNL     1       6.359   3.499  13.416  0.00  0.00    +0.000 C 
BRANCH  15  17
ATOM     16  C   UNL     1       6.390   1.834  11.476  0.00  0.00    +0.000 C 
ATOM     17  C   UNL     1       5.991   3.234  11.940  0.00  0.00    +0.000 C 
ATOM     18  C   UNL     1       4.485   3.428  11.738  0.00  0.00    +0.000 C 
ENDBRANCH  15  17
ENDBRANCH  11  15
ENDBRANCH   7  11
ENDBRANCH   1   9
BRANCH   4  19
ATOM     19  S   UNL     1       1.907   4.491  20.723  0.00  0.00    +0.000 S 
ATOM     20  O   UNL     1       0.562   4.220  20.267  0.00  0.00    +0.000 OA
ATOM     21  O   UNL     1       2.526   3.735  21.785  0.00  0.00    +0.000 OA
BRANCH  19  22
ATOM     22  N   UNL     1       2.030   6.115  21.164  0.00  0.00    +0.000 NA
ATOM     23  H   UNL     1       2.839   6.296  21.760  0.00  0.00    +0.000 HD
BRANCH  22  24
ATOM     24  C   UNL     1       1.877   7.079  20.066  0.00  0.00    +0.000 C 
BRANCH  24  25
ATOM     25  C   UNL     1       1.259   8.374  20.523  0.00  0.00    +0.000 A 
ATOM     26  C   UNL     1       0.911   8.562  21.868  0.00  0.00    +0.000 A 
ATOM     27  C   UNL     1       0.377   9.780  22.294  0.00  0.00    +0.000 A 
ATOM     28  C   UNL     1       0.193  10.816  21.382  0.00  0.00    +0.000 A 
ATOM     29  C   UNL     1       0.543  10.641  20.044  0.00  0.00    +0.000 A 
ATOM     30  C   UNL     1       1.072   9.425  19.615  0.00  0.00    +0.000 A 
ENDBRANCH  24  25
ENDBRANCH  22  24
ENDBRANCH  19  22
ENDBRANCH   4  19
TORSDOF 9
ENDMDL
MODEL 3
REMARK VINA RESULT:      -7.3      0.425      1.207
REMARK  Name = 
REMARK  11 active torsions:
REMARK  status: ('A' for Active; 'I' for Inactive)
REMARK    1  A    between atoms: C_1  and  C_2
REMARK    2  A    between atoms: C_2  and  C_3
REMARK    3  A    between atoms: C_2  and  C_4
REMARK    4  A    between atoms: C_4  and  C_5
REMARK    5  A    between atoms: C_5  and  N_6
REMARK    6  A    between atoms: C_5  and  C_7
REMARK    7  A    between atoms: N_9  and  C_10
REMARK    8  A    between atoms: C_13  and  S_14
REMARK    9  A    between atoms: S_14  and  N_17
REMARK   10  A    between atoms: N_17  and  C_18
REMARK   11  A    between atoms: C_18  and  C_19
REMARK                            x       y       z     vdW  Elec       q    Type
REMARK                         _______ _______ _______ _____ _____    ______ ____
ROOT
ATOM      1  C   UNL     1       4.387   3.912  17.172  0.00  0.00    +0.000 A 
ATOM      2  C   UNL     1       2.998   3.897  17.013  0.00  0.00    +0.000 A 
ATOM      3  C   UNL     1       2.146   3.863  18.115  0.00  0.00    +0.000 A 
ATOM      4  C   UNL     1       2.681   3.834  19.397  0.00  0.00    +0.000 A 
ATOM      5  C   UNL     1       4.069   3.843  19.578  0.00  0.00    +0.000 A 
ATOM      6  C   UNL     1       4.920   3.853  18.463  0.00  0.00    +0.000 A 
ENDROOT
BRANCH   1   9
ATOM      7  C   UNL     1       5.522   5.160  15.360  0.00  0.00    +0.000 C 
ATOM      8  O   UNL     1       5.060   6.276  15.610  0.00  0.00    +0.000 OA
ATOM      9  N   UNL     1       5.268   3.998  16.070  0.00  0.00    +0.000 N 
ATOM     10  H   UNL     1       5.847   3.189  15.879  0.00  0.00    +0.000 HD
BRANCH   7  11
ATOM     11  C   UNL     1       6.449   4.983  14.146  0.00  0.00    +0.000 C 
BRANCH  11  12
ATOM     12  N   UNL     1       7.820   5.346  14.577  0.00  0.00    +0.000 NA
ATOM     13  H   UNL     1       8.138   4.602  15.210  0.00  0.00    +0.000 HD
ATOM     14  H   UNL     1       7.769   6.169  15.181  0.00  0.00    +0.000 HD
ENDBRANCH  11  12
BRANCH  11  15
ATOM     15  C   UNL     1       6.442   3.513  13.692  0.00  0.00    +0.000 C 
BRANCH  15  17
ATOM     16  C   UNL     1       4.860   3.352  11.690  0.00  0.00    +0.000 C 
ATOM     17  C   UNL     1       6.311   3.301  12.168  0.00  0.00    +0.000 C 
ATOM     18  C   UNL     1       7.131   4.359  11.424  0.00  0.00    +0.000 C 
ENDBRANCH  15  17
ENDBRANCH  11  15
ENDBRANCH   7  11
ENDBRANCH   1   9
BRANCH   4  19
ATOM     19  S   UNL     1       1.560   3.811  20.781  0.00  0.00    +0.000 S 
ATOM     20  O   UNL     1       0.410   3.030  20.384  0.00  0.00    +0.000 OA
ATOM     21  O   UNL     1       2.335   3.499  21.958  0.00  0.00    +0.000 OA
BRANCH  19  22
ATOM     22  N   UNL     1       1.110   5.432  20.927  0.00  0.00    +0.000 NA
ATOM     23  H   UNL     1       0.466   5.588  21.703  0.00  0.00    +0.000 HD
BRANCH  22  24
ATOM     24  C   UNL     1       2.214   6.399  20.869  0.00  0.00    +0.000 C 
BRANCH  24  25
ATOM     25  C   UNL     1       1.942   7.521  19.902  0.00  0.00    +0.000 A 
ATOM     26  C   UNL     1       1.180   8.631  20.293  0.00  0.00    +0.000 A 
ATOM     27  C   UNL     1       0.966   9.687  19.406  0.00  0.00    +0.000 A 
ATOM     28  C   UNL     1       1.514   9.643  18.126  0.00  0.00    +0.000 A 
ATOM     29  C   UNL     1       2.278   8.546  17.730  0.00  0.00    +0.000 A 
ATOM     30  C   UNL     1       2.490   7.488  18.612  0.00  0.00    +0.000 A 
ENDBRANCH  24  25
ENDBRANCH  22  24
ENDBRANCH  19  22
ENDBRANCH   4  19
TORSDOF 9
ENDMDL
MODEL 4
REMARK VINA RESULT:      -7.3      0.554      1.096
REMARK  Name = 
REMARK  11 active torsions:
REMARK  status: ('A' for Active; 'I' for Inactive)
REMARK    1  A    between atoms: C_1  and  C_2
REMARK    2  A    between atoms: C_2  and  C_3
REMARK    3  A    between atoms: C_2  and  C_4
REMARK    4  A    between atoms: C_4  and  C_5
REMARK    5  A    between atoms: C_5  and  N_6
REMARK    6  A    between atoms: C_5  and  C_7
REMARK    7  A    between atoms: N_9  and  C_10
REMARK    8  A    between atoms: C_13  and  S_14
REMARK    9  A    between atoms: S_14  and  N_17
REMARK   10  A    between atoms: N_17  and  C_18
REMARK   11  A    between atoms: C_18  and  C_19
REMARK                            x       y       z     vdW  Elec       q    Type
REMARK                         _______ _______ _______ _____ _____    ______ ____
ROOT
ATOM      1  C   UNL     1       4.692   3.988  16.810  0.00  0.00    +0.000 A 
ATOM      2  C   UNL     1       5.272   4.286  18.047  0.00  0.00    +0.000 A 
ATOM      3  C   UNL     1       4.529   4.234  19.223  0.00  0.00    +0.000 A 
ATOM      4  C   UNL     1       3.183   3.890  19.172  0.00  0.00    +0.000 A 
ATOM      5  C   UNL     1       2.582   3.592  17.943  0.00  0.00    +0.000 A 
ATOM      6  C   UNL     1       3.332   3.670  16.760  0.00  0.00    +0.000 A 
ENDROOT
BRANCH   1   9
ATOM      7  C   UNL     1       5.723   5.115  14.862  0.00  0.00    +0.000 C 
ATOM      8  O   UNL     1       5.406   6.271  15.150  0.00  0.00    +0.000 OA
ATOM      9  N   UNL     1       5.441   3.985  15.611  0.00  0.00    +0.000 N 
ATOM     10  H   UNL     1       5.911   3.123  15.363  0.00  0.00    +0.000 HD
BRANCH   7  11
ATOM     11  C   UNL     1       6.478   4.847  13.549  0.00  0.00    +0.000 C 
BRANCH  11  12
ATOM     12  N   UNL     1       7.894   5.227  13.766  0.00  0.00    +0.000 NA
ATOM     13  H   UNL     1       8.397   4.366  14.016  0.00  0.00    +0.000 HD
ATOM     14  H   UNL     1       7.957   5.796  14.612  0.00  0.00    +0.000 HD
ENDBRANCH  11  12
BRANCH  11  15
ATOM     15  C   UNL     1       6.411   3.349  13.205  0.00  0.00    +0.000 C 
BRANCH  15  17
ATOM     16  C   UNL     1       6.087   1.557  11.409  0.00  0.00    +0.000 C 
ATOM     17  C   UNL     1       5.899   3.027  11.784  0.00  0.00    +0.000 C 
ATOM     18  C   UNL     1       4.418   3.397  11.671  0.00  0.00    +0.000 C 
ENDBRANCH  15  17
ENDBRANCH  11  15
ENDBRANCH   7  11
ENDBRANCH   1   9
BRANCH   4  19
ATOM     19  S   UNL     1       2.271   3.814  20.700  0.00  0.00    +0.000 S 
ATOM     20  O   UNL     1       0.888   3.567  20.358  0.00  0.00    +0.000 OA
ATOM     21  O   UNL     1       3.007   2.958  21.599  0.00  0.00    +0.000 OA
BRANCH  19  22
ATOM     22  N   UNL     1       2.424   5.381  21.307  0.00  0.00    +0.000 NA
ATOM     23  H   UNL     1       3.328   5.798  21.085  0.00  0.00    +0.000 HD
BRANCH  22  24
ATOM     24  C   UNL     1       1.282   6.270  21.050  0.00  0.00    +0.000 C 
BRANCH  24  25
ATOM     25  C   UNL     1       1.610   7.346  20.049  0.00  0.00    +0.000 A 
ATOM     26  C   UNL     1       2.371   7.053  18.908  0.00  0.00    +0.000 A 
ATOM     27  C   UNL     1       2.636   8.045  17.964  0.00  0.00    +0.000 A 
ATOM     28  C   UNL     1       2.139   9.333  18.148  0.00  0.00    +0.000 A 
ATOM     29  C   UNL     1       1.375   9.632  19.275  0.00  0.00    +0.000 A 
ATOM     30  C   UNL     1       1.113   8.645  20.223  0.00  0.00    +0.000 A 
ENDBRANCH  24  25
ENDBRANCH  22  24
ENDBRANCH  19  22
ENDBRANCH   4  19
TORSDOF 9
ENDMDL
MODEL 5
REMARK VINA RESULT:      -7.3      3.783      7.364
REMARK  Name = 
REMARK  11 active torsions:
REMARK  status: ('A' for Active; 'I' for Inactive)
REMARK    1  A    between atoms: C_1  and  C_2
REMARK    2  A    between atoms: C_2  and  C_3
REMARK    3  A    between atoms: C_2  and  C_4
REMARK    4  A    between atoms: C_4  and  C_5
REMARK    5  A    between atoms: C_5  and  N_6
REMARK    6  A    between atoms: C_5  and  C_7
REMARK    7  A    between atoms: N_9  and  C_10
REMARK    8  A    between atoms: C_13  and  S_14
REMARK    9  A    between atoms: S_14  and  N_17
REMARK   10  A    between atoms: N_17  and  C_18
REMARK   11  A    between atoms: C_18  and  C_19
REMARK                            x       y       z     vdW  Elec       q    Type
REMARK                         _______ _______ _______ _____ _____    ______ ____
ROOT
ATOM      1  C   UNL     1       2.318   7.929  18.097  0.00  0.00    +0.000 A 
ATOM      2  C   UNL     1       3.368   7.899  17.174  0.00  0.00    +0.000 A 
ATOM      3  C   UNL     1       4.412   6.985  17.297  0.00  0.00    +0.000 A 
ATOM      4  C   UNL     1       4.420   6.089  18.360  0.00  0.00    +0.000 A 
ATOM      5  C   UNL     1       3.380   6.105  19.298  0.00  0.00    +0.000 A 
ATOM      6  C   UNL     1       2.346   7.045  19.180  0.00  0.00    +0.000 A 
ENDROOT
BRANCH   1   9
ATOM      7  C   UNL     1       0.779   9.665  18.959  0.00  0.00    +0.000 C 
ATOM      8  O   UNL     1       1.289   9.803  20.073  0.00  0.00    +0.000 OA
ATOM      9  N   UNL     1       1.225   8.813  17.962  0.00  0.00    +0.000 N 
ATOM     10  H   UNL     1       0.834   8.925  17.034  0.00  0.00    +0.000 HD
BRANCH   7  11
ATOM     11  C   UNL     1      -0.484  10.467  18.605  0.00  0.00    +0.000 C 
BRANCH  11  12
ATOM     12  N   UNL     1      -0.047  11.820  18.186  0.00  0.00    +0.000 NA
ATOM     13  H   UNL     1      -0.603  12.068  17.358  0.00  0.00    +0.000 HD
ATOM     14  H   UNL     1       0.907  11.762  17.825  0.00  0.00    +0.000 HD
ENDBRANCH  11  12
BRANCH  11  15
ATOM     15  C   UNL     1      -1.219   9.795  17.432  0.00  0.00    +0.000 C 
BRANCH  15  17
ATOM     16  C   UNL     1      -2.795  10.122  15.446  0.00  0.00    +0.000 C 
ATOM     17  C   UNL     1      -2.378  10.618  16.830  0.00  0.00    +0.000 C 
ATOM     18  C   UNL     1      -3.586  10.578  17.771  0.00  0.00    +0.000 C 
ENDBRANCH  15  17
ENDBRANCH  11  15
ENDBRANCH   7  11
ENDBRANCH   1   9
BRANCH   4  19
ATOM     19  S   UNL     1       5.760   4.921  18.472  0.00  0.00    +0.000 S 
ATOM     20  O   UNL     1       6.716   5.271  17.446  0.00  0.00    +0.000 OA
ATOM     21  O   UNL     1       6.126   4.820  19.864  0.00  0.00    +0.000 OA
BRANCH  19  22
ATOM     22  N   UNL     1       5.019   3.459  18.070  0.00  0.00    +0.000 NA
ATOM     23  H   UNL     1       5.518   2.960  17.333  0.00  0.00    +0.000 HD
BRANCH  22  24
ATOM     24  C   UNL     1       4.641   2.611  19.209  0.00  0.00    +0.000 C 
BRANCH  24  25
ATOM     25  C   UNL     1       3.189   2.765  19.579  0.00  0.00    +0.000 A 
ATOM     26  C   UNL     1       2.190   2.691  18.598  0.00  0.00    +0.000 A 
ATOM     27  C   UNL     1       0.845   2.793  18.952  0.00  0.00    +0.000 A 
ATOM     28  C   UNL     1       0.487   2.965  20.288  0.00  0.00    +0.000 A 
ATOM     29  C   UNL     1       1.473   3.033  21.271  0.00  0.00    +0.000 A 
ATOM     30  C   UNL     1       2.818   2.936  20.920  0.00  0.00    +0.000 A 
ENDBRANCH  24  25
ENDBRANCH  22  24
ENDBRANCH  19  22
ENDBRANCH   4  19
TORSDOF 9
ENDMDL
MODEL 6
REMARK VINA RESULT:      -7.2      3.701      7.514
REMARK  Name = 
REMARK  11 active torsions:
REMARK  status: ('A' for Active; 'I' for Inactive)
REMARK    1  A    between atoms: C_1  and  C_2
REMARK    2  A    between atoms: C_2  and  C_3
REMARK    3  A    between atoms: C_2  and  C_4
REMARK    4  A    between atoms: C_4  and  C_5
REMARK    5  A    between atoms: C_5  and  N_6
REMARK    6  A    between atoms: C_5  and  C_7
REMARK    7  A    between atoms: N_9  and  C_10
REMARK    8  A    between atoms: C_13  and  S_14
REMARK    9  A    between atoms: S_14  and  N_17
REMARK   10  A    between atoms: N_17  and  C_18
REMARK   11  A    between atoms: C_18  and  C_19
REMARK                            x       y       z     vdW  Elec       q    Type
REMARK                         _______ _______ _______ _____ _____    ______ ____
ROOT
ATOM      1  C   UNL     1       2.249   7.851  18.799  0.00  0.00    +0.000 A 
ATOM      2  C   UNL     1       2.492   6.817  19.708  0.00  0.00    +0.000 A 
ATOM      3  C   UNL     1       3.454   5.842  19.453  0.00  0.00    +0.000 A 
ATOM      4  C   UNL     1       4.182   5.888  18.270  0.00  0.00    +0.000 A 
ATOM      5  C   UNL     1       3.951   6.912  17.344  0.00  0.00    +0.000 A 
ATOM      6  C   UNL     1       2.964   7.875  17.597  0.00  0.00    +0.000 A 
ENDROOT
BRANCH   1   9
ATOM      7  C   UNL     1       1.435  10.180  18.607  0.00  0.00    +0.000 C 
ATOM      8  O   UNL     1       2.334  10.614  17.884  0.00  0.00    +0.000 OA
ATOM      9  N   UNL     1       1.315   8.877  19.062  0.00  0.00    +0.000 N 
ATOM     10  H   UNL     1       0.440   8.605  19.494  0.00  0.00    +0.000 HD
BRANCH   7  11
ATOM     11  C   UNL     1       0.336  11.138  19.098  0.00  0.00    +0.000 C 
BRANCH  11  12
ATOM     12  N   UNL     1       0.363  12.332  18.221  0.00  0.00    +0.000 NA
ATOM     13  H   UNL     1      -0.438  12.249  17.583  0.00  0.00    +0.000 HD
ATOM     14  H   UNL     1       1.172  12.266  17.600  0.00  0.00    +0.000 HD
ENDBRANCH  11  12
BRANCH  11  15
ATOM     15  C   UNL     1      -1.040  10.461  18.977  0.00  0.00    +0.000 C 
BRANCH  15  17
ATOM     16  C   UNL     1      -2.225   9.879  16.787  0.00  0.00    +0.000 C 
ATOM     17  C   UNL     1      -1.918  10.970  17.813  0.00  0.00    +0.000 C 
ATOM     18  C   UNL     1      -3.230  11.538  18.362  0.00  0.00    +0.000 C 
ENDBRANCH  15  17
ENDBRANCH  11  15
ENDBRANCH   7  11
ENDBRANCH   1   9
BRANCH   4  19
ATOM     19  S   UNL     1       5.417   4.636  17.988  0.00  0.00    +0.000 S 
ATOM     20  O   UNL     1       6.259   5.103  16.909  0.00  0.00    +0.000 OA
ATOM     21  O   UNL     1       5.951   4.261  19.275  0.00  0.00    +0.000 OA
BRANCH  19  22
ATOM     22  N   UNL     1       4.504   3.320  17.454  0.00  0.00    +0.000 NA
ATOM     23  H   UNL     1       4.797   2.993  16.532  0.00  0.00    +0.000 HD
BRANCH  22  24
ATOM     24  C   UNL     1       4.320   2.243  18.435  0.00  0.00    +0.000 C 
BRANCH  24  25
ATOM     25  C   UNL     1       3.130   2.479  19.327  0.00  0.00    +0.000 A 
ATOM     26  C   UNL     1       3.283   2.548  20.719  0.00  0.00    +0.000 A 
ATOM     27  C   UNL     1       2.183   2.808  21.537  0.00  0.00    +0.000 A 
ATOM     28  C   UNL     1       0.925   3.005  20.971  0.00  0.00    +0.000 A 
ATOM     29  C   UNL     1       0.764   2.945  19.588  0.00  0.00    +0.000 A 
ATOM     30  C   UNL     1       1.860   2.681  18.768  0.00  0.00    +0.000 A 
ENDBRANCH  24  25
ENDBRANCH  22  24
ENDBRANCH  19  22
ENDBRANCH   4  19
TORSDOF 9
ENDMDL
MODEL 7
REMARK VINA RESULT:      -7.1      3.879      7.451
REMARK  Name = 
REMARK  11 active torsions:
REMARK  status: ('A' for Active; 'I' for Inactive)
REMARK    1  A    between atoms: C_1  and  C_2
REMARK    2  A    between atoms: C_2  and  C_3
REMARK    3  A    between atoms: C_2  and  C_4
REMARK    4  A    between atoms: C_4  and  C_5
REMARK    5  A    between atoms: C_5  and  N_6
REMARK    6  A    between atoms: C_5  and  C_7
REMARK    7  A    between atoms: N_9  and  C_10
REMARK    8  A    between atoms: C_13  and  S_14
REMARK    9  A    between atoms: S_14  and  N_17
REMARK   10  A    between atoms: N_17  and  C_18
REMARK   11  A    between atoms: C_18  and  C_19
REMARK                            x       y       z     vdW  Elec       q    Type
REMARK                         _______ _______ _______ _____ _____    ______ ____
ROOT
ATOM      1  C   UNL     1       2.390   7.879  17.789  0.00  0.00    +0.000 A 
ATOM      2  C   UNL     1       3.737   8.073  17.469  0.00  0.00    +0.000 A 
ATOM      3  C   UNL     1       4.626   7.002  17.411  0.00  0.00    +0.000 A 
ATOM      4  C   UNL     1       4.174   5.716  17.684  0.00  0.00    +0.000 A 
ATOM      5  C   UNL     1       2.830   5.502  18.011  0.00  0.00    +0.000 A 
ATOM      6  C   UNL     1       1.946   6.588  18.091  0.00  0.00    +0.000 A 
ENDROOT
BRANCH   1   9
ATOM      7  C   UNL     1       0.953   9.524  18.954  0.00  0.00    +0.000 C 
ATOM      8  O   UNL     1       1.265   9.230  20.110  0.00  0.00    +0.000 OA
ATOM      9  N   UNL     1       1.461   8.944  17.803  0.00  0.00    +0.000 N 
ATOM     10  H   UNL     1       1.263   9.395  16.918  0.00  0.00    +0.000 HD
BRANCH   7  11
ATOM     11  C   UNL     1      -0.112  10.607  18.714  0.00  0.00    +0.000 C 
BRANCH  11  12
ATOM     12  N   UNL     1       0.571  11.773  18.106  0.00  0.00    +0.000 NA
ATOM     13  H   UNL     1       1.395  11.410  17.611  0.00  0.00    +0.000 HD
ATOM     14  H   UNL     1       0.972  12.346  18.851  0.00  0.00    +0.000 HD
ENDBRANCH  11  12
BRANCH  11  15
ATOM     15  C   UNL     1      -1.176  10.086  17.733  0.00  0.00    +0.000 C 
BRANCH  15  17
ATOM     16  C   UNL     1      -2.727  10.791  15.826  0.00  0.00    +0.000 C 
ATOM     17  C   UNL     1      -2.146  11.158  17.191  0.00  0.00    +0.000 C 
ATOM     18  C   UNL     1      -3.288  11.376  18.188  0.00  0.00    +0.000 C 
ENDBRANCH  15  17
ENDBRANCH  11  15
ENDBRANCH   7  11
ENDBRANCH   1   9
BRANCH   4  19
ATOM     19  S   UNL     1       5.336   4.371  17.580  0.00  0.00    +0.000 S 
ATOM     20  O   UNL     1       4.791   3.409  16.648  0.00  0.00    +0.000 OA
ATOM     21  O   UNL     1       6.648   4.948  17.413  0.00  0.00    +0.000 OA
BRANCH  19  22
ATOM     22  N   UNL     1       5.299   3.721  19.137  0.00  0.00    +0.000 NA
ATOM     23  H   UNL     1       5.030   4.410  19.840  0.00  0.00    +0.000 HD
BRANCH  22  24
ATOM     24  C   UNL     1       4.598   2.437  19.267  0.00  0.00    +0.000 C 
BRANCH  24  25
ATOM     25  C   UNL     1       3.131   2.613  19.561  0.00  0.00    +0.000 A 
ATOM     26  C   UNL     1       2.711   3.243  20.742  0.00  0.00    +0.000 A 
ATOM     27  C   UNL     1       1.352   3.440  20.990  0.00  0.00    +0.000 A 
ATOM     28  C   UNL     1       0.406   3.016  20.060  0.00  0.00    +0.000 A 
ATOM     29  C   UNL     1       0.814   2.396  18.881  0.00  0.00    +0.000 A 
ATOM     30  C   UNL     1       2.170   2.192  18.632  0.00  0.00    +0.000 A 
ENDBRANCH  24  25
ENDBRANCH  22  24
ENDBRANCH  19  22
ENDBRANCH   4  19
TORSDOF 9
ENDMDL
MODEL 8
REMARK VINA RESULT:      -7.1      3.840      5.423
REMARK  Name = 
REMARK  11 active torsions:
REMARK  status: ('A' for Active; 'I' for Inactive)
REMARK    1  A    between atoms: C_1  and  C_2
REMARK    2  A    between atoms: C_2  and  C_3
REMARK    3  A    between atoms: C_2  and  C_4
REMARK    4  A    between atoms: C_4  and  C_5
REMARK    5  A    between atoms: C_5  and  N_6
REMARK    6  A    between atoms: C_5  and  C_7
REMARK    7  A    between atoms: N_9  and  C_10
REMARK    8  A    between atoms: C_13  and  S_14
REMARK    9  A    between atoms: S_14  and  N_17
REMARK   10  A    between atoms: N_17  and  C_18
REMARK   11  A    between atoms: C_18  and  C_19
REMARK                            x       y       z     vdW  Elec       q    Type
REMARK                         _______ _______ _______ _____ _____    ______ ____
ROOT
ATOM      1  C   UNL     1       2.529   6.667  18.854  0.00  0.00    +0.000 A 
ATOM      2  C   UNL     1       2.386   7.782  18.023  0.00  0.00    +0.000 A 
ATOM      3  C   UNL     1       1.816   8.964  18.492  0.00  0.00    +0.000 A 
ATOM      4  C   UNL     1       1.372   9.038  19.807  0.00  0.00    +0.000 A 
ATOM      5  C   UNL     1       1.502   7.931  20.654  0.00  0.00    +0.000 A 
ATOM      6  C   UNL     1       2.054   6.738  20.167  0.00  0.00    +0.000 A 
ENDROOT
BRANCH   1   9
ATOM      7  C   UNL     1       4.446   5.107  18.729  0.00  0.00    +0.000 C 
ATOM      8  O   UNL     1       5.217   5.729  19.463  0.00  0.00    +0.000 OA
ATOM      9  N   UNL     1       3.150   5.477  18.413  0.00  0.00    +0.000 N 
ATOM     10  H   UNL     1       2.561   4.794  17.951  0.00  0.00    +0.000 HD
BRANCH   7  11
ATOM     11  C   UNL     1       4.929   3.810  18.057  0.00  0.00    +0.000 C 
BRANCH  11  12
ATOM     12  N   UNL     1       4.184   2.687  18.674  0.00  0.00    +0.000 NA
ATOM     13  H   UNL     1       3.255   3.049  18.923  0.00  0.00    +0.000 HD
ATOM     14  H   UNL     1       4.607   2.468  19.578  0.00  0.00    +0.000 HD
ENDBRANCH  11  12
BRANCH  11  15
ATOM     15  C   UNL     1       4.611   3.852  16.552  0.00  0.00    +0.000 C 
BRANCH  15  17
ATOM     16  C   UNL     1       5.283   6.057  15.446  0.00  0.00    +0.000 C 
ATOM     17  C   UNL     1       5.651   4.593  15.685  0.00  0.00    +0.000 C 
ATOM     18  C   UNL     1       7.029   4.515  16.348  0.00  0.00    +0.000 C 
ENDBRANCH  15  17
ENDBRANCH  11  15
ENDBRANCH   7  11
ENDBRANCH   1   9
BRANCH   4  19
ATOM     19  S   UNL     1       0.669  10.572  20.377  0.00  0.00    +0.000 S 
ATOM     20  O   UNL     1       0.934  10.662  21.795  0.00  0.00    +0.000 OA
ATOM     21  O   UNL     1       1.075  11.602  19.451  0.00  0.00    +0.000 OA
BRANCH  19  22
ATOM     22  N   UNL     1      -0.985  10.341  20.132  0.00  0.00    +0.000 NA
ATOM     23  H   UNL     1      -1.454   9.976  20.962  0.00  0.00    +0.000 HD
BRANCH  22  24
ATOM     24  C   UNL     1      -1.690  11.464  19.499  0.00  0.00    +0.000 C 
BRANCH  24  25
ATOM     25  C   UNL     1      -2.303  11.082  18.177  0.00  0.00    +0.000 A 
ATOM     26  C   UNL     1      -1.679  10.140  17.347  0.00  0.00    +0.000 A 
ATOM     27  C   UNL     1      -2.273   9.760  16.142  0.00  0.00    +0.000 A 
ATOM     28  C   UNL     1      -3.493  10.312  15.762  0.00  0.00    +0.000 A 
ATOM     29  C   UNL     1      -4.125  11.244  16.585  0.00  0.00    +0.000 A 
ATOM     30  C   UNL     1      -3.532  11.630  17.786  0.00  0.00    +0.000 A 
ENDBRANCH  24  25
ENDBRANCH  22  24
ENDBRANCH  19  22
ENDBRANCH   4  19
TORSDOF 9
ENDMDL
MODEL 9
REMARK VINA RESULT:      -7.1      3.845      5.390
REMARK  Name = 
REMARK  11 active torsions:
REMARK  status: ('A' for Active; 'I' for Inactive)
REMARK    1  A    between atoms: C_1  and  C_2
REMARK    2  A    between atoms: C_2  and  C_3
REMARK    3  A    between atoms: C_2  and  C_4
REMARK    4  A    between atoms: C_4  and  C_5
REMARK    5  A    between atoms: C_5  and  N_6
REMARK    6  A    between atoms: C_5  and  C_7
REMARK    7  A    between atoms: N_9  and  C_10
REMARK    8  A    between atoms: C_13  and  S_14
REMARK    9  A    between atoms: S_14  and  N_17
REMARK   10  A    between atoms: N_17  and  C_18
REMARK   11  A    between atoms: C_18  and  C_19
REMARK                            x       y       z     vdW  Elec       q    Type
REMARK                         _______ _______ _______ _____ _____    ______ ____
ROOT
ATOM      1  C   UNL     1       2.436   6.717  18.701  0.00  0.00    +0.000 A 
ATOM      2  C   UNL     1       2.257   7.869  17.930  0.00  0.00    +0.000 A 
ATOM      3  C   UNL     1       1.727   9.033  18.482  0.00  0.00    +0.000 A 
ATOM      4  C   UNL     1       1.358   9.051  19.823  0.00  0.00    +0.000 A 
ATOM      5  C   UNL     1       1.524   7.907  20.611  0.00  0.00    +0.000 A 
ATOM      6  C   UNL     1       2.035   6.732  20.041  0.00  0.00    +0.000 A 
ENDROOT
BRANCH   1   9
ATOM      7  C   UNL     1       4.273   5.068  18.518  0.00  0.00    +0.000 C 
ATOM      8  O   UNL     1       5.030   5.567  19.353  0.00  0.00    +0.000 OA
ATOM      9  N   UNL     1       3.018   5.543  18.173  0.00  0.00    +0.000 N 
ATOM     10  H   UNL     1       2.423   4.945  17.612  0.00  0.00    +0.000 HD
BRANCH   7  11
ATOM     11  C   UNL     1       4.726   3.819  17.743  0.00  0.00    +0.000 C 
BRANCH  11  12
ATOM     12  N   UNL     1       3.699   2.771  17.951  0.00  0.00    +0.000 NA
ATOM     13  H   UNL     1       2.803   3.168  17.641  0.00  0.00    +0.000 HD
ATOM     14  H   UNL     1       3.566   2.634  18.954  0.00  0.00    +0.000 HD
ENDBRANCH  11  12
BRANCH  11  15
ATOM     15  C   UNL     1       4.813   4.140  16.241  0.00  0.00    +0.000 C 
BRANCH  15  17
ATOM     16  C   UNL     1       6.204   3.946  14.104  0.00  0.00    +0.000 C 
ATOM     17  C   UNL     1       6.226   4.028  15.630  0.00  0.00    +0.000 C 
ATOM     18  C   UNL     1       7.075   5.227  16.063  0.00  0.00    +0.000 C 
ENDBRANCH  15  17
ENDBRANCH  11  15
ENDBRANCH   7  11
ENDBRANCH   1   9
BRANCH   4  19
ATOM     19  S   UNL     1       0.704  10.563  20.498  0.00  0.00    +0.000 S 
ATOM     20  O   UNL     1       0.912  10.516  21.928  0.00  0.00    +0.000 OA
ATOM     21  O   UNL     1       1.197  11.648  19.683  0.00  0.00    +0.000 OA
BRANCH  19  22
ATOM     22  N   UNL     1      -0.947  10.438  20.170  0.00  0.00    +0.000 NA
ATOM     23  H   UNL     1      -1.487  10.160  20.991  0.00  0.00    +0.000 HD
BRANCH  22  24
ATOM     24  C   UNL     1      -1.530  11.568  19.434  0.00  0.00    +0.000 C 
BRANCH  24  25
ATOM     25  C   UNL     1      -2.299  11.122  18.218  0.00  0.00    +0.000 A 
ATOM     26  C   UNL     1      -3.584  11.623  17.963  0.00  0.00    +0.000 A 
ATOM     27  C   UNL     1      -4.275  11.238  16.813  0.00  0.00    +0.000 A 
ATOM     28  C   UNL     1      -3.687  10.355  15.910  0.00  0.00    +0.000 A 
ATOM     29  C   UNL     1      -2.407   9.858  16.152  0.00  0.00    +0.000 A 
ATOM     30  C   UNL     1      -1.716  10.237  17.301  0.00  0.00    +0.000 A 
ENDBRANCH  24  25
ENDBRANCH  22  24
ENDBRANCH  19  22
ENDBRANCH   4  19
TORSDOF 9
ENDMDL
