MODEL 1
REMARK VINA RESULT:      -7.9      0.000      0.000
REMARK  Name = 
REMARK  6 active torsions:
REMARK  status: ('A' for Active; 'I' for Inactive)
REMARK    1  A    between atoms: C_1  and  C_2
REMARK    2  A    between atoms: C_4  and  C_5
REMARK    3  A    between atoms: C_4  and  C_6
REMARK    4  A    between atoms: C_11  and  O_12
REMARK    5  A    between atoms: O_12  and  C_13
REMARK    6  A    between atoms: C_13  and  C_15
REMARK                            x       y       z     vdW  Elec       q    Type
REMARK                         _______ _______ _______ _____ _____    ______ ____
ROOT
ATOM      1  C   UNL     1       0.234   9.315  22.386  0.00  0.00    +0.000 C 
ATOM      2  C   UNL     1       0.328   9.778  20.963  0.00  0.00    +0.000 C 
ATOM      3  C   UNL     1      -0.285  10.908  20.562  0.00  0.00    +0.000 C 
ATOM      4  C   UNL     1      -0.230  11.499  19.175  0.00  0.00    +0.000 C 
ATOM      5  C   UNL     1       0.521  12.837  19.227  0.00  0.00    +0.000 C 
ATOM      6  C   UNL     1      -1.656  11.714  18.647  0.00  0.00    +0.000 C 
ATOM      7  N   UNL     1       0.440  10.618  18.227  0.00  0.00    +0.000 N 
ATOM      8  C   UNL     1       1.177   9.515  18.644  0.00  0.00    +0.000 A 
ATOM      9  C   UNL     1       1.884   8.793  17.672  0.00  0.00    +0.000 A 
ATOM     10  C   UNL     1       2.553   7.613  17.990  0.00  0.00    +0.000 A 
ATOM     11  C   UNL     1       2.530   7.144  19.297  0.00  0.00    +0.000 A 
ATOM     12  C   UNL     1       1.803   7.829  20.280  0.00  0.00    +0.000 A 
ATOM     13  C   UNL     1       1.115   9.018  19.964  0.00  0.00    +0.000 A 
ATOM     14  H   UNL     1       0.764  11.059  17.375  0.00  0.00    +0.000 HD
ENDROOT
BRANCH  11  15
ATOM     15  O   UNL     1       3.158   5.937  19.697  0.00  0.00    +0.000 OA
BRANCH  15  16
ATOM     16  C   UNL     1       3.332   4.887  18.801  0.00  0.00    +0.000 C 
ATOM     17  O   UNL     1       2.483   4.103  18.407  0.00  0.00    +0.000 OA
BRANCH  16  18
ATOM     18  C   UNL     1       4.734   4.812  18.330  0.00  0.00    +0.000 A 
ATOM     19  C   UNL     1       5.120   4.480  17.029  0.00  0.00    +0.000 A 
ATOM     20  C   UNL     1       6.481   4.438  16.713  0.00  0.00    +0.000 A 
ATOM     21  C   UNL     1       7.407   4.726  17.702  0.00  0.00    +0.000 A 
ATOM     22  N   UNL     1       7.068   5.050  18.967  0.00  0.00    +0.000 NA
ATOM     23  C   UNL     1       5.740   5.087  19.250  0.00  0.00    +0.000 A 
ENDBRANCH  16  18
ENDBRANCH  15  16
ENDBRANCH  11  15
TORSDOF 3
ENDMDL
MODEL 2
REMARK VINA RESULT:      -7.9      0.945      1.009
REMARK  Name = 
REMARK  6 active torsions:
REMARK  status: ('A' for Active; 'I' for Inactive)
REMARK    1  A    between atoms: C_1  and  C_2
REMARK    2  A    between atoms: C_4  and  C_5
REMARK    3  A    between atoms: C_4  and  C_6
REMARK    4  A    between atoms: C_11  and  O_12
REMARK    5  A    between atoms: O_12  and  C_13
REMARK    6  A    between atoms: C_13  and  C_15
REMARK                            x       y       z     vdW  Elec       q    Type
REMARK                         _______ _______ _______ _____ _____    ______ ____
ROOT
ATOM      1  C   UNL     1       0.360   9.103  22.555  0.00  0.00    +0.000 C 
ATOM      2  C   UNL     1       0.404   9.744  21.199  0.00  0.00    +0.000 C 
ATOM      3  C   UNL     1      -0.175  10.939  20.981  0.00  0.00    +0.000 C 
ATOM      4  C   UNL     1      -0.163  11.703  19.680  0.00  0.00    +0.000 C 
ATOM      5  C   UNL     1       0.650  12.992  19.861  0.00  0.00    +0.000 C 
ATOM      6  C   UNL     1      -1.602  12.040  19.263  0.00  0.00    +0.000 C 
ATOM      7  N   UNL     1       0.419  10.927  18.592  0.00  0.00    +0.000 N 
ATOM      8  C   UNL     1       1.125   9.751  18.823  0.00  0.00    +0.000 A 
ATOM      9  C   UNL     1       1.750   9.135  17.730  0.00  0.00    +0.000 A 
ATOM     10  C   UNL     1       2.379   7.899  17.857  0.00  0.00    +0.000 A 
ATOM     11  C   UNL     1       2.399   7.265  19.092  0.00  0.00    +0.000 A 
ATOM     12  C   UNL     1       1.754   7.845  20.193  0.00  0.00    +0.000 A 
ATOM     13  C   UNL     1       1.106   9.091  20.070  0.00  0.00    +0.000 A 
ATOM     14  H   UNL     1       0.720  11.463  17.787  0.00  0.00    +0.000 HD
ENDROOT
BRANCH  11  15
ATOM     15  O   UNL     1       2.991   5.994  19.299  0.00  0.00    +0.000 OA
BRANCH  15  16
ATOM     16  C   UNL     1       3.726   5.372  18.295  0.00  0.00    +0.000 C 
ATOM     17  O   UNL     1       3.305   4.631  17.420  0.00  0.00    +0.000 OA
BRANCH  16  18
ATOM     18  C   UNL     1       5.161   5.725  18.386  0.00  0.00    +0.000 A 
ATOM     19  C   UNL     1       5.834   6.560  17.490  0.00  0.00    +0.000 A 
ATOM     20  C   UNL     1       7.195   6.811  17.684  0.00  0.00    +0.000 A 
ATOM     21  C   UNL     1       7.838   6.221  18.760  0.00  0.00    +0.000 A 
ATOM     22  N   UNL     1       7.218   5.411  19.643  0.00  0.00    +0.000 NA
ATOM     23  C   UNL     1       5.895   5.184  19.436  0.00  0.00    +0.000 A 
ENDBRANCH  16  18
ENDBRANCH  15  16
ENDBRANCH  11  15
TORSDOF 3
ENDMDL
MODEL 3
REMARK VINA RESULT:      -7.8      2.099      3.475
REMARK  Name = 
REMARK  6 active torsions:
REMARK  status: ('A' for Active; 'I' for Inactive)
REMARK    1  A    between atoms: C_1  and  C_2
REMARK    2  A    between atoms: C_4  and  C_5
REMARK    3  A    between atoms: C_4  and  C_6
REMARK    4  A    between atoms: C_11  and  O_12
REMARK    5  A    between atoms: O_12  and  C_13
REMARK    6  A    between atoms: C_13  and  C_15
REMARK                            x       y       z     vdW  Elec       q    Type
REMARK                         _______ _______ _______ _____ _____    ______ ____
ROOT
ATOM      1  C   UNL     1       1.758   9.862  17.725  0.00  0.00    +0.000 C 
ATOM      2  C   UNL     1       1.693   8.976  18.933  0.00  0.00    +0.000 C 
ATOM      3  C   UNL     1       1.093   9.393  20.064  0.00  0.00    +0.000 C 
ATOM      4  C   UNL     1       0.925   8.584  21.326  0.00  0.00    +0.000 C 
ATOM      5  C   UNL     1      -0.568   8.303  21.549  0.00  0.00    +0.000 C 
ATOM      6  C   UNL     1       1.501   9.359  22.519  0.00  0.00    +0.000 C 
ATOM      7  N   UNL     1       1.640   7.315  21.265  0.00  0.00    +0.000 N 
ATOM      8  C   UNL     1       2.157   6.819  20.073  0.00  0.00    +0.000 A 
ATOM      9  C   UNL     1       2.725   5.537  20.088  0.00  0.00    +0.000 A 
ATOM     10  C   UNL     1       3.365   5.016  18.965  0.00  0.00    +0.000 A 
ATOM     11  C   UNL     1       3.435   5.774  17.804  0.00  0.00    +0.000 A 
ATOM     12  C   UNL     1       2.905   7.071  17.775  0.00  0.00    +0.000 A 
ATOM     13  C   UNL     1       2.264   7.609  18.909  0.00  0.00    +0.000 A 
ATOM     14  H   UNL     1       1.342   6.615  21.934  0.00  0.00    +0.000 HD
ENDROOT
BRANCH  11  15
ATOM     15  O   UNL     1       4.094   5.330  16.629  0.00  0.00    +0.000 OA
BRANCH  15  16
ATOM     16  C   UNL     1       5.232   5.974  16.157  0.00  0.00    +0.000 C 
ATOM     17  O   UNL     1       5.381   6.512  15.071  0.00  0.00    +0.000 OA
BRANCH  16  18
ATOM     18  C   UNL     1       6.315   5.955  17.166  0.00  0.00    +0.000 A 
ATOM     19  C   UNL     1       6.972   7.089  17.650  0.00  0.00    +0.000 A 
ATOM     20  C   UNL     1       7.985   6.935  18.602  0.00  0.00    +0.000 A 
ATOM     21  C   UNL     1       8.308   5.660  19.035  0.00  0.00    +0.000 A 
ATOM     22  N   UNL     1       7.694   4.545  18.588  0.00  0.00    +0.000 NA
ATOM     23  C   UNL     1       6.711   4.720  17.666  0.00  0.00    +0.000 A 
ENDBRANCH  16  18
ENDBRANCH  15  16
ENDBRANCH  11  15
TORSDOF 3
ENDMDL
MODEL 4
REMARK VINA RESULT:      -7.8      2.118      2.887
REMARK  Name = 
REMARK  6 active torsions:
REMARK  status: ('A' for Active; 'I' for Inactive)
REMARK    1  A    between atoms: C_1  and  C_2
REMARK    2  A    between atoms: C_4  and  C_5
REMARK    3  A    between atoms: C_4  and  C_6
REMARK    4  A    between atoms: C_11  and  O_12
REMARK    5  A    between atoms: O_12  and  C_13
REMARK    6  A    between atoms: C_13  and  C_15
REMARK                            x       y       z     vdW  Elec       q    Type
REMARK                         _______ _______ _______ _____ _____    ______ ____
ROOT
ATOM      1  C   UNL     1      -0.215   9.571  22.534  0.00  0.00    +0.000 C 
ATOM      2  C   UNL     1      -0.177  10.066  21.119  0.00  0.00    +0.000 C 
ATOM      3  C   UNL     1      -0.906  11.133  20.740  0.00  0.00    +0.000 C 
ATOM      4  C   UNL     1      -0.921  11.750  19.364  0.00  0.00    +0.000 C 
ATOM      5  C   UNL     1      -0.312  13.158  19.438  0.00  0.00    +0.000 C 
ATOM      6  C   UNL     1      -2.363  11.825  18.844  0.00  0.00    +0.000 C 
ATOM      7  N   UNL     1      -0.166  10.961  18.399  0.00  0.00    +0.000 N 
ATOM      8  C   UNL     1       0.684   9.934  18.793  0.00  0.00    +0.000 A 
ATOM      9  C   UNL     1       1.458   9.307  17.807  0.00  0.00    +0.000 A 
ATOM     10  C   UNL     1       2.248   8.198  18.101  0.00  0.00    +0.000 A 
ATOM     11  C   UNL     1       2.280   7.706  19.400  0.00  0.00    +0.000 A 
ATOM     12  C   UNL     1       1.490   8.295  20.396  0.00  0.00    +0.000 A 
ATOM     13  C   UNL     1       0.681   9.411  20.104  0.00  0.00    +0.000 A 
ATOM     14  H   UNL     1       0.105  11.449  17.553  0.00  0.00    +0.000 HD
ENDROOT
BRANCH  11  15
ATOM     15  O   UNL     1       3.033   6.565  19.775  0.00  0.00    +0.000 OA
BRANCH  15  16
ATOM     16  C   UNL     1       3.406   5.610  18.836  0.00  0.00    +0.000 C 
ATOM     17  O   UNL     1       4.345   5.665  18.057  0.00  0.00    +0.000 OA
BRANCH  16  18
ATOM     18  C   UNL     1       2.503   4.437  18.879  0.00  0.00    +0.000 A 
ATOM     19  C   UNL     1       1.603   4.164  19.912  0.00  0.00    +0.000 A 
ATOM     20  C   UNL     1       0.808   3.016  19.836  0.00  0.00    +0.000 A 
ATOM     21  C   UNL     1       0.940   2.182  18.738  0.00  0.00    +0.000 A 
ATOM     22  N   UNL     1       1.799   2.416  17.725  0.00  0.00    +0.000 NA
ATOM     23  C   UNL     1       2.559   3.539  17.819  0.00  0.00    +0.000 A 
ENDBRANCH  16  18
ENDBRANCH  15  16
ENDBRANCH  11  15
TORSDOF 3
ENDMDL
MODEL 5
REMARK VINA RESULT:      -7.8      2.335      3.706
REMARK  Name = 
REMARK  6 active torsions:
REMARK  status: ('A' for Active; 'I' for Inactive)
REMARK    1  A    between atoms: C_1  and  C_2
REMARK    2  A    between atoms: C_4  and  C_5
REMARK    3  A    between atoms: C_4  and  C_6
REMARK    4  A    between atoms: C_11  and  O_12
REMARK    5  A    between atoms: O_12  and  C_13
REMARK    6  A    between atoms: C_13  and  C_15
REMARK                            x       y       z     vdW  Elec       q    Type
REMARK                         _______ _______ _______ _____ _____    ______ ____
ROOT
ATOM      1  C   UNL     1       2.306   8.994  17.712  0.00  0.00    +0.000 C 
ATOM      2  C   UNL     1       1.955   8.342  19.017  0.00  0.00    +0.000 C 
ATOM      3  C   UNL     1       1.258   9.008  19.956  0.00  0.00    +0.000 C 
ATOM      4  C   UNL     1       0.809   8.451  21.284  0.00  0.00    +0.000 C 
ATOM      5  C   UNL     1      -0.725   8.368  21.302  0.00  0.00    +0.000 C 
ATOM      6  C   UNL     1       1.302   9.359  22.420  0.00  0.00    +0.000 C 
ATOM      7  N   UNL     1       1.356   7.124  21.538  0.00  0.00    +0.000 N 
ATOM      8  C   UNL     1       1.972   6.380  20.538  0.00  0.00    +0.000 A 
ATOM      9  C   UNL     1       2.363   5.068  20.844  0.00  0.00    +0.000 A 
ATOM     10  C   UNL     1       3.085   4.297  19.935  0.00  0.00    +0.000 A 
ATOM     11  C   UNL     1       3.418   4.832  18.697  0.00  0.00    +0.000 A 
ATOM     12  C   UNL     1       3.068   6.151  18.381  0.00  0.00    +0.000 A 
ATOM     13  C   UNL     1       2.345   6.941  19.299  0.00  0.00    +0.000 A 
ATOM     14  H   UNL     1       0.879   6.585  22.250  0.00  0.00    +0.000 HD
ENDROOT
BRANCH  11  15
ATOM     15  O   UNL     1       4.176   4.126  17.729  0.00  0.00    +0.000 OA
BRANCH  15  16
ATOM     16  C   UNL     1       5.560   4.250  17.671  0.00  0.00    +0.000 C 
ATOM     17  O   UNL     1       6.344   4.238  18.609  0.00  0.00    +0.000 OA
BRANCH  16  18
ATOM     18  C   UNL     1       6.026   4.397  16.274  0.00  0.00    +0.000 A 
ATOM     19  C   UNL     1       5.435   3.779  15.169  0.00  0.00    +0.000 A 
ATOM     20  C   UNL     1       5.976   3.995  13.898  0.00  0.00    +0.000 A 
ATOM     21  C   UNL     1       7.085   4.816  13.773  0.00  0.00    +0.000 A 
ATOM     22  N   UNL     1       7.679   5.427  14.819  0.00  0.00    +0.000 NA
ATOM     23  C   UNL     1       7.134   5.205  16.043  0.00  0.00    +0.000 A 
ENDBRANCH  16  18
ENDBRANCH  15  16
ENDBRANCH  11  15
TORSDOF 3
ENDMDL
MODEL 6
REMARK VINA RESULT:      -7.8      0.630      1.027
REMARK  Name = 
REMARK  6 active torsions:
REMARK  status: ('A' for Active; 'I' for Inactive)
REMARK    1  A    between atoms: C_1  and  C_2
REMARK    2  A    between atoms: C_4  and  C_5
REMARK    3  A    between atoms: C_4  and  C_6
REMARK    4  A    between atoms: C_11  and  O_12
REMARK    5  A    between atoms: O_12  and  C_13
REMARK    6  A    between atoms: C_13  and  C_15
REMARK                            x       y       z     vdW  Elec       q    Type
REMARK                         _______ _______ _______ _____ _____    ______ ____
ROOT
ATOM      1  C   UNL     1       0.130   9.262  22.362  0.00  0.00    +0.000 C 
ATOM      2  C   UNL     1       0.253   9.738  20.945  0.00  0.00    +0.000 C 
ATOM      3  C   UNL     1      -0.374  10.857  20.535  0.00  0.00    +0.000 C 
ATOM      4  C   UNL     1      -0.294  11.459  19.155  0.00  0.00    +0.000 C 
ATOM      5  C   UNL     1       0.424  12.814  19.237  0.00  0.00    +0.000 C 
ATOM      6  C   UNL     1      -1.709  11.646  18.588  0.00  0.00    +0.000 C 
ATOM      7  N   UNL     1       0.423  10.601  18.220  0.00  0.00    +0.000 N 
ATOM      8  C   UNL     1       1.173   9.512  18.650  0.00  0.00    +0.000 A 
ATOM      9  C   UNL     1       1.924   8.814  17.693  0.00  0.00    +0.000 A 
ATOM     10  C   UNL     1       2.611   7.647  18.021  0.00  0.00    +0.000 A 
ATOM     11  C   UNL     1       2.561   7.168  19.324  0.00  0.00    +0.000 A 
ATOM     12  C   UNL     1       1.791   7.829  20.290  0.00  0.00    +0.000 A 
ATOM     13  C   UNL     1       1.086   9.004  19.963  0.00  0.00    +0.000 A 
ATOM     14  H   UNL     1       0.760  11.057  17.380  0.00  0.00    +0.000 HD
ENDROOT
BRANCH  11  15
ATOM     15  O   UNL     1       3.206   5.973  19.732  0.00  0.00    +0.000 OA
BRANCH  15  16
ATOM     16  C   UNL     1       3.399   4.921  18.843  0.00  0.00    +0.000 C 
ATOM     17  O   UNL     1       2.565   4.115  18.458  0.00  0.00    +0.000 OA
BRANCH  16  18
ATOM     18  C   UNL     1       4.799   4.873  18.367  0.00  0.00    +0.000 A 
ATOM     19  C   UNL     1       5.904   5.317  19.098  0.00  0.00    +0.000 A 
ATOM     20  C   UNL     1       7.179   5.222  18.531  0.00  0.00    +0.000 A 
ATOM     21  C   UNL     1       7.307   4.691  17.258  0.00  0.00    +0.000 A 
ATOM     22  N   UNL     1       6.262   4.254  16.526  0.00  0.00    +0.000 NA
ATOM     23  C   UNL     1       5.034   4.354  17.098  0.00  0.00    +0.000 A 
ENDBRANCH  16  18
ENDBRANCH  15  16
ENDBRANCH  11  15
TORSDOF 3
ENDMDL
MODEL 7
REMARK VINA RESULT:      -7.6      4.301      6.393
REMARK  Name = 
REMARK  6 active torsions:
REMARK  status: ('A' for Active; 'I' for Inactive)
REMARK    1  A    between atoms: C_1  and  C_2
REMARK    2  A    between atoms: C_4  and  C_5
REMARK    3  A    between atoms: C_4  and  C_6
REMARK    4  A    between atoms: C_11  and  O_12
REMARK    5  A    between atoms: O_12  and  C_13
REMARK    6  A    between atoms: C_13  and  C_15
REMARK                            x       y       z     vdW  Elec       q    Type
REMARK                         _______ _______ _______ _____ _____    ______ ____
ROOT
ATOM      1  C   UNL     1       4.071   1.540  17.737  0.00  0.00    +0.000 C 
ATOM      2  C   UNL     1       3.379   2.678  18.428  0.00  0.00    +0.000 C 
ATOM      3  C   UNL     1       2.453   2.448  19.377  0.00  0.00    +0.000 C 
ATOM      4  C   UNL     1       1.721   3.501  20.171  0.00  0.00    +0.000 C 
ATOM      5  C   UNL     1       2.141   3.403  21.645  0.00  0.00    +0.000 C 
ATOM      6  C   UNL     1       0.206   3.290  20.039  0.00  0.00    +0.000 C 
ATOM      7  N   UNL     1       2.001   4.848  19.689  0.00  0.00    +0.000 N 
ATOM      8  C   UNL     1       3.037   5.109  18.800  0.00  0.00    +0.000 A 
ATOM      9  C   UNL     1       3.308   6.447  18.483  0.00  0.00    +0.000 A 
ATOM     10  C   UNL     1       4.252   6.787  17.516  0.00  0.00    +0.000 A 
ATOM     11  C   UNL     1       4.949   5.782  16.859  0.00  0.00    +0.000 A 
ATOM     12  C   UNL     1       4.674   4.436  17.134  0.00  0.00    +0.000 A 
ATOM     13  C   UNL     1       3.713   4.084  18.103  0.00  0.00    +0.000 A 
ATOM     14  H   UNL     1       1.785   5.596  20.337  0.00  0.00    +0.000 HD
ENDROOT
BRANCH  11  15
ATOM     15  O   UNL     1       5.904   6.041  15.843  0.00  0.00    +0.000 OA
BRANCH  15  16
ATOM     16  C   UNL     1       6.900   5.118  15.542  0.00  0.00    +0.000 C 
ATOM     17  O   UNL     1       7.799   4.734  16.275  0.00  0.00    +0.000 OA
BRANCH  16  18
ATOM     18  C   UNL     1       6.753   4.603  14.162  0.00  0.00    +0.000 A 
ATOM     19  C   UNL     1       5.771   3.699  13.750  0.00  0.00    +0.000 A 
ATOM     20  C   UNL     1       5.742   3.284  12.415  0.00  0.00    +0.000 A 
ATOM     21  C   UNL     1       6.693   3.783  11.540  0.00  0.00    +0.000 A 
ATOM     22  N   UNL     1       7.654   4.657  11.904  0.00  0.00    +0.000 NA
ATOM     23  C   UNL     1       7.660   5.047  13.206  0.00  0.00    +0.000 A 
ENDBRANCH  16  18
ENDBRANCH  15  16
ENDBRANCH  11  15
TORSDOF 3
ENDMDL
MODEL 8
REMARK VINA RESULT:      -7.6      3.690      5.699
REMARK  Name = 
REMARK  6 active torsions:
REMARK  status: ('A' for Active; 'I' for Inactive)
REMARK    1  A    between atoms: C_1  and  C_2
REMARK    2  A    between atoms: C_4  and  C_5
REMARK    3  A    between atoms: C_4  and  C_6
REMARK    4  A    between atoms: C_11  and  O_12
REMARK    5  A    between atoms: O_12  and  C_13
REMARK    6  A    between atoms: C_13  and  C_15
REMARK                            x       y       z     vdW  Elec       q    Type
REMARK                         _______ _______ _______ _____ _____    ______ ____
ROOT
ATOM      1  C   UNL     1       2.419   7.283  19.253  0.00  0.00    +0.000 C 
ATOM      2  C   UNL     1       2.465   5.786  19.331  0.00  0.00    +0.000 C 
ATOM      3  C   UNL     1       1.796   5.123  20.293  0.00  0.00    +0.000 C 
ATOM      4  C   UNL     1       1.729   3.625  20.452  0.00  0.00    +0.000 C 
ATOM      5  C   UNL     1       0.289   3.156  20.198  0.00  0.00    +0.000 C 
ATOM      6  C   UNL     1       2.171   3.233  21.869  0.00  0.00    +0.000 C 
ATOM      7  N   UNL     1       2.620   2.933  19.528  0.00  0.00    +0.000 N 
ATOM      8  C   UNL     1       3.221   3.588  18.458  0.00  0.00    +0.000 A 
ATOM      9  C   UNL     1       3.967   2.818  17.554  0.00  0.00    +0.000 A 
ATOM     10  C   UNL     1       4.691   3.412  16.523  0.00  0.00    +0.000 A 
ATOM     11  C   UNL     1       4.667   4.793  16.377  0.00  0.00    +0.000 A 
ATOM     12  C   UNL     1       3.956   5.586  17.287  0.00  0.00    +0.000 A 
ATOM     13  C   UNL     1       3.229   4.994  18.339  0.00  0.00    +0.000 A 
ATOM     14  H   UNL     1       2.418   1.952  19.379  0.00  0.00    +0.000 HD
ENDROOT
BRANCH  11  15
ATOM     15  O   UNL     1       5.400   5.477  15.374  0.00  0.00    +0.000 OA
BRANCH  15  16
ATOM     16  C   UNL     1       6.790   5.507  15.395  0.00  0.00    +0.000 C 
ATOM     17  O   UNL     1       7.549   5.256  14.471  0.00  0.00    +0.000 OA
BRANCH  16  18
ATOM     18  C   UNL     1       7.297   5.908  16.726  0.00  0.00    +0.000 A 
ATOM     19  C   UNL     1       7.580   5.022  17.770  0.00  0.00    +0.000 A 
ATOM     20  C   UNL     1       8.049   5.529  18.985  0.00  0.00    +0.000 A 
ATOM     21  C   UNL     1       8.217   6.898  19.119  0.00  0.00    +0.000 A 
ATOM     22  N   UNL     1       7.953   7.779  18.132  0.00  0.00    +0.000 NA
ATOM     23  C   UNL     1       7.501   7.263  16.960  0.00  0.00    +0.000 A 
ENDBRANCH  16  18
ENDBRANCH  15  16
ENDBRANCH  11  15
TORSDOF 3
ENDMDL
MODEL 9
REMARK VINA RESULT:      -7.6      1.739      2.091
REMARK  Name = 
REMARK  6 active torsions:
REMARK  status: ('A' for Active; 'I' for Inactive)
REMARK    1  A    between atoms: C_1  and  C_2
REMARK    2  A    between atoms: C_4  and  C_5
REMARK    3  A    between atoms: C_4  and  C_6
REMARK    4  A    between atoms: C_11  and  O_12
REMARK    5  A    between atoms: O_12  and  C_13
REMARK    6  A    between atoms: C_13  and  C_15
REMARK                            x       y       z     vdW  Elec       q    Type
REMARK                         _______ _______ _______ _____ _____    ______ ____
ROOT
ATOM      1  C   UNL     1       0.088   9.497  22.606  0.00  0.00    +0.000 C 
ATOM      2  C   UNL     1       0.117  10.025  21.203  0.00  0.00    +0.000 C 
ATOM      3  C   UNL     1      -0.531  11.160  20.878  0.00  0.00    +0.000 C 
ATOM      4  C   UNL     1      -0.543  11.813  19.519  0.00  0.00    +0.000 C 
ATOM      5  C   UNL     1       0.186  13.162  19.603  0.00  0.00    +0.000 C 
ATOM      6  C   UNL     1      -1.993  12.024  19.058  0.00  0.00    +0.000 C 
ATOM      7  N   UNL     1       0.104  10.989  18.506  0.00  0.00    +0.000 N 
ATOM      8  C   UNL     1       0.877   9.883  18.843  0.00  0.00    +0.000 A 
ATOM      9  C   UNL     1       1.557   9.219  17.812  0.00  0.00    +0.000 A 
ATOM     10  C   UNL     1       2.259   8.039  18.049  0.00  0.00    +0.000 A 
ATOM     11  C   UNL     1       2.296   7.512  19.333  0.00  0.00    +0.000 A 
ATOM     12  C   UNL     1       1.597   8.138  20.374  0.00  0.00    +0.000 A 
ATOM     13  C   UNL     1       0.877   9.327  20.140  0.00  0.00    +0.000 A 
ATOM     14  H   UNL     1       0.385  11.474  17.663  0.00  0.00    +0.000 HD
ENDROOT
BRANCH  11  15
ATOM     15  O   UNL     1       2.962   6.301  19.652  0.00  0.00    +0.000 OA
BRANCH  15  16
ATOM     16  C   UNL     1       3.848   5.712  18.757  0.00  0.00    +0.000 C 
ATOM     17  O   UNL     1       4.766   6.253  18.159  0.00  0.00    +0.000 OA
BRANCH  16  18
ATOM     18  C   UNL     1       3.562   4.269  18.593  0.00  0.00    +0.000 A 
ATOM     19  C   UNL     1       2.668   3.735  17.662  0.00  0.00    +0.000 A 
ATOM     20  C   UNL     1       2.482   2.350  17.612  0.00  0.00    +0.000 A 
ATOM     21  C   UNL     1       3.191   1.548  18.491  0.00  0.00    +0.000 A 
ATOM     22  N   UNL     1       4.062   2.030  19.401  0.00  0.00    +0.000 NA
ATOM     23  C   UNL     1       4.228   3.379  19.429  0.00  0.00    +0.000 A 
ENDBRANCH  16  18
ENDBRANCH  15  16
ENDBRANCH  11  15
TORSDOF 3
ENDMDL
