MODEL 1
REMARK VINA RESULT:      -5.1      0.000      0.000
REMARK  Name = 
REMARK  9 active torsions:
REMARK  status: ('A' for Active; 'I' for Inactive)
REMARK    1  A    between atoms: C_2  and  C_3
REMARK    2  A    between atoms: C_3  and  O_4
REMARK    3  A    between atoms: C_3  and  C_5
REMARK    4  A    between atoms: C_5  and  O_6
REMARK    5  A    between atoms: C_5  and  C_7
REMARK    6  A    between atoms: C_7  and  O_8
REMARK    7  A    between atoms: O_8  and  P_9
REMARK    8  A    between atoms: P_9  and  O_11
REMARK    9  A    between atoms: P_9  and  O_12
REMARK                            x       y       z     vdW  Elec       q    Type
REMARK                         _______ _______ _______ _____ _____    ______ ____
ROOT
ATOM      1  C   UNL     1       4.270   3.141  19.708  0.00  0.00    +0.000 C 
ENDROOT
BRANCH   1   2
ATOM      2  O   UNL     1       5.102   2.036  20.096  0.00  0.00    +0.000 OA
ATOM      3  H   UNL     1       4.593   1.442  20.677  0.00  0.00    +0.000 HD
ENDBRANCH   1   2
BRANCH   1   4
ATOM      4  C   UNL     1       2.807   2.667  19.621  0.00  0.00    +0.000 C 
BRANCH   4   6
ATOM      5  O   UNL     1       2.743   2.472  22.038  0.00  0.00    +0.000 OA
ATOM      6  C   UNL     1       2.174   2.802  21.001  0.00  0.00    +0.000 C 
ENDBRANCH   4   6
BRANCH   4   7
ATOM      7  O   UNL     1       2.038   3.384  18.665  0.00  0.00    +0.000 OA
ATOM      8  H   UNL     1       2.224   2.987  17.790  0.00  0.00    +0.000 HD
ENDBRANCH   4   7
ENDBRANCH   1   4
BRANCH   1   9
ATOM      9  C   UNL     1       4.812   3.747  18.406  0.00  0.00    +0.000 C 
BRANCH   9  10
ATOM     10  O   UNL     1       6.086   4.328  18.593  0.00  0.00    +0.000 OA
BRANCH  10  11
ATOM     11  P   UNL     1       6.886   4.753  17.119  0.00  0.00    +0.000 P 
ATOM     12  O   UNL     1       8.205   4.139  17.579  0.00  0.00    +0.000 OA
BRANCH  11  13
ATOM     13  O   UNL     1       6.142   3.533  16.341  0.00  0.00    +0.000 OA
ATOM     14  H   UNL     1       6.244   2.726  16.880  0.00  0.00    +0.000 HD
ENDBRANCH  11  13
BRANCH  11  15
ATOM     15  O   UNL     1       7.686   5.178  15.645  0.00  0.00    +0.000 OA
ATOM     16  H   UNL     1       7.249   6.018  15.396  0.00  0.00    +0.000 HD
ENDBRANCH  11  15
ENDBRANCH  10  11
ENDBRANCH   9  10
ENDBRANCH   1   9
TORSDOF 9
ENDMDL
MODEL 2
REMARK VINA RESULT:      -5.1      2.813      5.022
REMARK  Name = 
REMARK  9 active torsions:
REMARK  status: ('A' for Active; 'I' for Inactive)
REMARK    1  A    between atoms: C_2  and  C_3
REMARK    2  A    between atoms: C_3  and  O_4
REMARK    3  A    between atoms: C_3  and  C_5
REMARK    4  A    between atoms: C_5  and  O_6
REMARK    5  A    between atoms: C_5  and  C_7
REMARK    6  A    between atoms: C_7  and  O_8
REMARK    7  A    between atoms: O_8  and  P_9
REMARK    8  A    between atoms: P_9  and  O_11
REMARK    9  A    between atoms: P_9  and  O_12
REMARK                            x       y       z     vdW  Elec       q    Type
REMARK                         _______ _______ _______ _____ _____    ______ ____
ROOT
ATOM      1  C   UNL     1       6.454   5.329  16.824  0.00  0.00    +0.000 C 
ENDROOT
BRANCH   1   2
ATOM      2  O   UNL     1       7.201   4.157  17.190  0.00  0.00    +0.000 OA
ATOM      3  H   UNL     1       7.367   3.624  16.393  0.00  0.00    +0.000 HD
ENDBRANCH   1   2
BRANCH   1   4
ATOM      4  C   UNL     1       6.895   6.508  17.712  0.00  0.00    +0.000 C 
BRANCH   4   6
ATOM      5  O   UNL     1       7.153   5.401  19.856  0.00  0.00    +0.000 OA
ATOM      6  C   UNL     1       7.682   5.952  18.894  0.00  0.00    +0.000 C 
ENDBRANCH   4   6
BRANCH   4   7
ATOM      7  O   UNL     1       7.677   7.472  17.022  0.00  0.00    +0.000 OA
ATOM      8  H   UNL     1       7.478   7.376  16.070  0.00  0.00    +0.000 HD
ENDBRANCH   4   7
ENDBRANCH   1   4
BRANCH   1   9
ATOM      9  C   UNL     1       4.954   5.014  16.899  0.00  0.00    +0.000 C 
BRANCH   9  10
ATOM     10  O   UNL     1       4.720   3.632  17.075  0.00  0.00    +0.000 OA
BRANCH  10  11
ATOM     11  P   UNL     1       3.922   3.238  18.558  0.00  0.00    +0.000 P 
ATOM     12  O   UNL     1       3.627   1.813  18.099  0.00  0.00    +0.000 OA
BRANCH  11  13
ATOM     13  O   UNL     1       5.356   3.110  19.317  0.00  0.00    +0.000 OA
ATOM     14  H   UNL     1       5.463   2.184  19.605  0.00  0.00    +0.000 HD
ENDBRANCH  11  13
BRANCH  11  15
ATOM     15  O   UNL     1       3.124   2.844  20.042  0.00  0.00    +0.000 OA
ATOM     16  H   UNL     1       2.187   2.764  19.769  0.00  0.00    +0.000 HD
ENDBRANCH  11  15
ENDBRANCH  10  11
ENDBRANCH   9  10
ENDBRANCH   1   9
TORSDOF 9
ENDMDL
MODEL 3
REMARK VINA RESULT:      -5.0      1.450      2.303
REMARK  Name = 
REMARK  9 active torsions:
REMARK  status: ('A' for Active; 'I' for Inactive)
REMARK    1  A    between atoms: C_2  and  C_3
REMARK    2  A    between atoms: C_3  and  O_4
REMARK    3  A    between atoms: C_3  and  C_5
REMARK    4  A    between atoms: C_5  and  O_6
REMARK    5  A    between atoms: C_5  and  C_7
REMARK    6  A    between atoms: C_7  and  O_8
REMARK    7  A    between atoms: O_8  and  P_9
REMARK    8  A    between atoms: P_9  and  O_11
REMARK    9  A    between atoms: P_9  and  O_12
REMARK                            x       y       z     vdW  Elec       q    Type
REMARK                         _______ _______ _______ _____ _____    ______ ____
ROOT
ATOM      1  C   UNL     1       4.026   3.196  19.540  0.00  0.00    +0.000 C 
ENDROOT
BRANCH   1   2
ATOM      2  O   UNL     1       4.838   2.275  20.287  0.00  0.00    +0.000 OA
ATOM      3  H   UNL     1       4.501   1.371  20.151  0.00  0.00    +0.000 HD
ENDBRANCH   1   2
BRANCH   1   4
ATOM      4  C   UNL     1       3.371   2.453  18.361  0.00  0.00    +0.000 C 
BRANCH   4   6
ATOM      5  O   UNL     1       1.621   3.789  17.342  0.00  0.00    +0.000 OA
ATOM      6  C   UNL     1       2.811   3.488  17.391  0.00  0.00    +0.000 C 
ENDBRANCH   4   6
BRANCH   4   7
ATOM      7  O   UNL     1       4.263   1.583  17.677  0.00  0.00    +0.000 OA
ATOM      8  H   UNL     1       5.035   2.119  17.406  0.00  0.00    +0.000 HD
ENDBRANCH   4   7
ENDBRANCH   1   4
BRANCH   1   9
ATOM      9  C   UNL     1       4.883   4.400  19.125  0.00  0.00    +0.000 C 
BRANCH   9  10
ATOM     10  O   UNL     1       6.136   3.996  18.614  0.00  0.00    +0.000 OA
BRANCH  10  11
ATOM     11  P   UNL     1       6.805   5.088  17.450  0.00  0.00    +0.000 P 
ATOM     12  O   UNL     1       7.243   6.074  18.528  0.00  0.00    +0.000 OA
BRANCH  11  13
ATOM     13  O   UNL     1       8.101   4.122  17.261  0.00  0.00    +0.000 OA
ATOM     14  H   UNL     1       8.561   4.392  16.444  0.00  0.00    +0.000 HD
ENDBRANCH  11  13
BRANCH  11  15
ATOM     15  O   UNL     1       7.473   6.180  16.286  0.00  0.00    +0.000 OA
ATOM     16  H   UNL     1       8.423   5.942  16.288  0.00  0.00    +0.000 HD
ENDBRANCH  11  15
ENDBRANCH  10  11
ENDBRANCH   9  10
ENDBRANCH   1   9
TORSDOF 9
ENDMDL
MODEL 4
REMARK VINA RESULT:      -5.0      2.840      5.040
REMARK  Name = 
REMARK  9 active torsions:
REMARK  status: ('A' for Active; 'I' for Inactive)
REMARK    1  A    between atoms: C_2  and  C_3
REMARK    2  A    between atoms: C_3  and  O_4
REMARK    3  A    between atoms: C_3  and  C_5
REMARK    4  A    between atoms: C_5  and  O_6
REMARK    5  A    between atoms: C_5  and  C_7
REMARK    6  A    between atoms: C_7  and  O_8
REMARK    7  A    between atoms: O_8  and  P_9
REMARK    8  A    between atoms: P_9  and  O_11
REMARK    9  A    between atoms: P_9  and  O_12
REMARK                            x       y       z     vdW  Elec       q    Type
REMARK                         _______ _______ _______ _____ _____    ______ ____
ROOT
ATOM      1  C   UNL     1       7.023   4.919  16.878  0.00  0.00    +0.000 C 
ENDROOT
BRANCH   1   2
ATOM      2  O   UNL     1       8.076   4.062  17.353  0.00  0.00    +0.000 OA
ATOM      3  H   UNL     1       8.060   3.230  16.849  0.00  0.00    +0.000 HD
ENDBRANCH   1   2
BRANCH   1   4
ATOM      4  C   UNL     1       7.093   6.265  17.622  0.00  0.00    +0.000 C 
BRANCH   4   6
ATOM      5  O   UNL     1       7.264   5.453  19.901  0.00  0.00    +0.000 OA
ATOM      6  C   UNL     1       7.789   6.042  18.960  0.00  0.00    +0.000 C 
ENDBRANCH   4   6
BRANCH   4   7
ATOM      7  O   UNL     1       7.768   7.279  16.890  0.00  0.00    +0.000 OA
ATOM      8  H   UNL     1       7.860   6.957  15.971  0.00  0.00    +0.000 HD
ENDBRANCH   4   7
ENDBRANCH   1   4
BRANCH   1   9
ATOM      9  C   UNL     1       5.679   4.191  17.022  0.00  0.00    +0.000 C 
BRANCH   9  10
ATOM     10  O   UNL     1       4.666   5.057  17.493  0.00  0.00    +0.000 OA
BRANCH  10  11
ATOM     11  P   UNL     1       3.780   4.431  18.840  0.00  0.00    +0.000 P 
ATOM     12  O   UNL     1       4.811   3.336  19.096  0.00  0.00    +0.000 OA
BRANCH  11  13
ATOM     13  O   UNL     1       4.288   5.665  19.772  0.00  0.00    +0.000 OA
ATOM     14  H   UNL     1       3.530   6.261  19.921  0.00  0.00    +0.000 HD
ENDBRANCH  11  13
BRANCH  11  15
ATOM     15  O   UNL     1       2.893   3.805  20.187  0.00  0.00    +0.000 OA
ATOM     16  H   UNL     1       2.230   4.506  20.355  0.00  0.00    +0.000 HD
ENDBRANCH  11  15
ENDBRANCH  10  11
ENDBRANCH   9  10
ENDBRANCH   1   9
TORSDOF 9
ENDMDL
MODEL 5
REMARK VINA RESULT:      -4.9      1.012      1.894
REMARK  Name = 
REMARK  9 active torsions:
REMARK  status: ('A' for Active; 'I' for Inactive)
REMARK    1  A    between atoms: C_2  and  C_3
REMARK    2  A    between atoms: C_3  and  O_4
REMARK    3  A    between atoms: C_3  and  C_5
REMARK    4  A    between atoms: C_5  and  O_6
REMARK    5  A    between atoms: C_5  and  C_7
REMARK    6  A    between atoms: C_7  and  O_8
REMARK    7  A    between atoms: O_8  and  P_9
REMARK    8  A    between atoms: P_9  and  O_11
REMARK    9  A    between atoms: P_9  and  O_12
REMARK                            x       y       z     vdW  Elec       q    Type
REMARK                         _______ _______ _______ _____ _____    ______ ____
ROOT
ATOM      1  C   UNL     1       2.928   3.560  18.767  0.00  0.00    +0.000 C 
ENDROOT
BRANCH   1   2
ATOM      2  O   UNL     1       1.898   4.482  19.161  0.00  0.00    +0.000 OA
ATOM      3  H   UNL     1       1.097   4.308  18.636  0.00  0.00    +0.000 HD
ENDBRANCH   1   2
BRANCH   1   4
ATOM      4  C   UNL     1       3.801   3.223  19.990  0.00  0.00    +0.000 C 
BRANCH   4   6
ATOM      5  O   UNL     1       2.338   3.126  21.922  0.00  0.00    +0.000 OA
ATOM      6  C   UNL     1       2.928   2.526  21.027  0.00  0.00    +0.000 C 
ENDBRANCH   4   6
BRANCH   4   7
ATOM      7  O   UNL     1       4.921   2.408  19.676  0.00  0.00    +0.000 OA
ATOM      8  H   UNL     1       5.684   3.006  19.542  0.00  0.00    +0.000 HD
ENDBRANCH   4   7
ENDBRANCH   1   4
BRANCH   1   9
ATOM      9  C   UNL     1       3.708   4.152  17.584  0.00  0.00    +0.000 C 
BRANCH   9  10
ATOM     10  O   UNL     1       4.703   5.057  18.016  0.00  0.00    +0.000 OA
BRANCH  10  11
ATOM     11  P   UNL     1       6.262   4.769  17.322  0.00  0.00    +0.000 P 
ATOM     12  O   UNL     1       6.865   4.383  18.669  0.00  0.00    +0.000 OA
BRANCH  11  13
ATOM     13  O   UNL     1       5.748   3.352  16.709  0.00  0.00    +0.000 OA
ATOM     14  H   UNL     1       6.302   3.141  15.934  0.00  0.00    +0.000 HD
ENDBRANCH  11  13
BRANCH  11  15
ATOM     15  O   UNL     1       7.820   4.482  16.628  0.00  0.00    +0.000 OA
ATOM     16  H   UNL     1       8.049   5.352  16.243  0.00  0.00    +0.000 HD
ENDBRANCH  11  15
ENDBRANCH  10  11
ENDBRANCH   9  10
ENDBRANCH   1   9
TORSDOF 9
ENDMDL
MODEL 6
REMARK VINA RESULT:      -4.9      1.849      2.866
REMARK  Name = 
REMARK  9 active torsions:
REMARK  status: ('A' for Active; 'I' for Inactive)
REMARK    1  A    between atoms: C_2  and  C_3
REMARK    2  A    between atoms: C_3  and  O_4
REMARK    3  A    between atoms: C_3  and  C_5
REMARK    4  A    between atoms: C_5  and  O_6
REMARK    5  A    between atoms: C_5  and  C_7
REMARK    6  A    between atoms: C_7  and  O_8
REMARK    7  A    between atoms: O_8  and  P_9
REMARK    8  A    between atoms: P_9  and  O_11
REMARK    9  A    between atoms: P_9  and  O_12
REMARK                            x       y       z     vdW  Elec       q    Type
REMARK                         _______ _______ _______ _____ _____    ______ ____
ROOT
ATOM      1  C   UNL     1       1.972   4.561  19.085  0.00  0.00    +0.000 C 
ENDROOT
BRANCH   1   2
ATOM      2  O   UNL     1       1.694   5.279  20.300  0.00  0.00    +0.000 OA
ATOM      3  H   UNL     1       1.261   6.122  20.079  0.00  0.00    +0.000 HD
ENDBRANCH   1   2
BRANCH   1   4
ATOM      4  C   UNL     1       2.064   3.056  19.396  0.00  0.00    +0.000 C 
BRANCH   4   6
ATOM      5  O   UNL     1       3.358   1.612  17.939  0.00  0.00    +0.000 OA
ATOM      6  C   UNL     1       2.363   2.313  18.099  0.00  0.00    +0.000 C 
ENDBRANCH   4   6
BRANCH   4   7
ATOM      7  O   UNL     1       3.048   2.741  20.371  0.00  0.00    +0.000 OA
ATOM      8  H   UNL     1       2.685   2.999  21.241  0.00  0.00    +0.000 HD
ENDBRANCH   4   7
ENDBRANCH   1   4
BRANCH   1   9
ATOM      9  C   UNL     1       3.232   5.145  18.432  0.00  0.00    +0.000 C 
BRANCH   9  10
ATOM     10  O   UNL     1       4.305   5.225  19.349  0.00  0.00    +0.000 OA
BRANCH  10  11
ATOM     11  P   UNL     1       5.828   4.737  18.691  0.00  0.00    +0.000 P 
ATOM     12  O   UNL     1       6.604   5.375  19.839  0.00  0.00    +0.000 OA
BRANCH  11  13
ATOM     13  O   UNL     1       5.578   3.210  19.195  0.00  0.00    +0.000 OA
ATOM     14  H   UNL     1       6.304   2.970  19.801  0.00  0.00    +0.000 HD
ENDBRANCH  11  13
BRANCH  11  15
ATOM     15  O   UNL     1       7.352   4.249  18.032  0.00  0.00    +0.000 OA
ATOM     16  H   UNL     1       7.733   5.095  17.719  0.00  0.00    +0.000 HD
ENDBRANCH  11  15
ENDBRANCH  10  11
ENDBRANCH   9  10
ENDBRANCH   1   9
TORSDOF 9
ENDMDL
MODEL 7
REMARK VINA RESULT:      -4.9      1.854      2.789
REMARK  Name = 
REMARK  9 active torsions:
REMARK  status: ('A' for Active; 'I' for Inactive)
REMARK    1  A    between atoms: C_2  and  C_3
REMARK    2  A    between atoms: C_3  and  O_4
REMARK    3  A    between atoms: C_3  and  C_5
REMARK    4  A    between atoms: C_5  and  O_6
REMARK    5  A    between atoms: C_5  and  C_7
REMARK    6  A    between atoms: C_7  and  O_8
REMARK    7  A    between atoms: O_8  and  P_9
REMARK    8  A    between atoms: P_9  and  O_11
REMARK    9  A    between atoms: P_9  and  O_12
REMARK                            x       y       z     vdW  Elec       q    Type
REMARK                         _______ _______ _______ _____ _____    ______ ____
ROOT
ATOM      1  C   UNL     1       3.559   4.178  17.964  0.00  0.00    +0.000 C 
ENDROOT
BRANCH   1   2
ATOM      2  O   UNL     1       2.181   4.589  17.979  0.00  0.00    +0.000 OA
ATOM      3  H   UNL     1       1.661   3.941  18.486  0.00  0.00    +0.000 HD
ENDBRANCH   1   2
BRANCH   1   4
ATOM      4  C   UNL     1       3.778   3.105  19.046  0.00  0.00    +0.000 C 
BRANCH   4   6
ATOM      5  O   UNL     1       1.717   1.828  18.980  0.00  0.00    +0.000 OA
ATOM      6  C   UNL     1       2.912   1.896  18.708  0.00  0.00    +0.000 C 
ENDBRANCH   4   6
BRANCH   4   7
ATOM      7  O   UNL     1       5.135   2.705  19.176  0.00  0.00    +0.000 OA
ATOM      8  H   UNL     1       5.678   3.519  19.159  0.00  0.00    +0.000 HD
ENDBRANCH   4   7
ENDBRANCH   1   4
BRANCH   1   9
ATOM      9  C   UNL     1       4.455   5.415  18.115  0.00  0.00    +0.000 C 
BRANCH   9  10
ATOM     10  O   UNL     1       5.707   5.231  17.486  0.00  0.00    +0.000 OA
BRANCH  10  11
ATOM     11  P   UNL     1       7.060   5.629  18.487  0.00  0.00    +0.000 P 
ATOM     12  O   UNL     1       6.294   5.311  19.766  0.00  0.00    +0.000 OA
BRANCH  11  13
ATOM     13  O   UNL     1       7.780   4.221  18.106  0.00  0.00    +0.000 OA
ATOM     14  H   UNL     1       7.156   3.700  17.566  0.00  0.00    +0.000 HD
ENDBRANCH  11  13
BRANCH  11  15
ATOM     15  O   UNL     1       8.414   6.028  19.487  0.00  0.00    +0.000 OA
ATOM     16  H   UNL     1       8.368   7.005  19.535  0.00  0.00    +0.000 HD
ENDBRANCH  11  15
ENDBRANCH  10  11
ENDBRANCH   9  10
ENDBRANCH   1   9
TORSDOF 9
ENDMDL
MODEL 8
REMARK VINA RESULT:      -4.9      1.513      2.091
REMARK  Name = 
REMARK  9 active torsions:
REMARK  status: ('A' for Active; 'I' for Inactive)
REMARK    1  A    between atoms: C_2  and  C_3
REMARK    2  A    between atoms: C_3  and  O_4
REMARK    3  A    between atoms: C_3  and  C_5
REMARK    4  A    between atoms: C_5  and  O_6
REMARK    5  A    between atoms: C_5  and  C_7
REMARK    6  A    between atoms: C_7  and  O_8
REMARK    7  A    between atoms: O_8  and  P_9
REMARK    8  A    between atoms: P_9  and  O_11
REMARK    9  A    between atoms: P_9  and  O_12
REMARK                            x       y       z     vdW  Elec       q    Type
REMARK                         _______ _______ _______ _____ _____    ______ ____
ROOT
ATOM      1  C   UNL     1       4.218   3.206  19.251  0.00  0.00    +0.000 C 
ENDROOT
BRANCH   1   2
ATOM      2  O   UNL     1       5.063   2.145  19.728  0.00  0.00    +0.000 OA
ATOM      3  H   UNL     1       4.883   1.339  19.213  0.00  0.00    +0.000 HD
ENDBRANCH   1   2
BRANCH   1   4
ATOM      4  C   UNL     1       2.867   2.616  18.807  0.00  0.00    +0.000 C 
BRANCH   4   6
ATOM      5  O   UNL     1       1.226   3.819  17.487  0.00  0.00    +0.000 OA
ATOM      6  C   UNL     1       2.374   3.398  17.594  0.00  0.00    +0.000 C 
ENDBRANCH   4   6
BRANCH   4   7
ATOM      7  O   UNL     1       2.931   1.231  18.495  0.00  0.00    +0.000 OA
ATOM      8  H   UNL     1       2.397   0.760  19.165  0.00  0.00    +0.000 HD
ENDBRANCH   4   7
ENDBRANCH   1   4
BRANCH   1   9
ATOM      9  C   UNL     1       4.956   3.981  18.151  0.00  0.00    +0.000 C 
BRANCH   9  10
ATOM     10  O   UNL     1       6.265   4.333  18.550  0.00  0.00    +0.000 OA
BRANCH  10  11
ATOM     11  P   UNL     1       7.010   5.522  17.539  0.00  0.00    +0.000 P 
ATOM     12  O   UNL     1       7.919   4.490  16.879  0.00  0.00    +0.000 OA
BRANCH  11  13
ATOM     13  O   UNL     1       5.699   5.554  16.576  0.00  0.00    +0.000 OA
ATOM     14  H   UNL     1       5.691   4.732  16.051  0.00  0.00    +0.000 HD
ENDBRANCH  11  13
BRANCH  11  15
ATOM     15  O   UNL     1       7.756   6.712  16.528  0.00  0.00    +0.000 OA
ATOM     16  H   UNL     1       7.501   7.553  16.960  0.00  0.00    +0.000 HD
ENDBRANCH  11  15
ENDBRANCH  10  11
ENDBRANCH   9  10
ENDBRANCH   1   9
TORSDOF 9
ENDMDL
MODEL 9
REMARK VINA RESULT:      -4.9      1.475      2.309
REMARK  Name = 
REMARK  9 active torsions:
REMARK  status: ('A' for Active; 'I' for Inactive)
REMARK    1  A    between atoms: C_2  and  C_3
REMARK    2  A    between atoms: C_3  and  O_4
REMARK    3  A    between atoms: C_3  and  C_5
REMARK    4  A    between atoms: C_5  and  O_6
REMARK    5  A    between atoms: C_5  and  C_7
REMARK    6  A    between atoms: C_7  and  O_8
REMARK    7  A    between atoms: O_8  and  P_9
REMARK    8  A    between atoms: P_9  and  O_11
REMARK    9  A    between atoms: P_9  and  O_12
REMARK                            x       y       z     vdW  Elec       q    Type
REMARK                         _______ _______ _______ _____ _____    ______ ____
ROOT
ATOM      1  C   UNL     1       3.342   4.417  18.975  0.00  0.00    +0.000 C 
ENDROOT
BRANCH   1   2
ATOM      2  O   UNL     1       2.211   5.052  19.593  0.00  0.00    +0.000 OA
ATOM      3  H   UNL     1       1.435   4.471  19.511  0.00  0.00    +0.000 HD
ENDBRANCH   1   2
BRANCH   1   4
ATOM      4  C   UNL     1       3.553   3.030  19.611  0.00  0.00    +0.000 C 
BRANCH   4   6
ATOM      5  O   UNL     1       1.468   2.285  18.620  0.00  0.00    +0.000 OA
ATOM      6  C   UNL     1       2.634   2.034  18.911  0.00  0.00    +0.000 C 
ENDBRANCH   4   6
BRANCH   4   7
ATOM      7  O   UNL     1       4.898   2.577  19.542  0.00  0.00    +0.000 OA
ATOM      8  H   UNL     1       5.471   3.342  19.747  0.00  0.00    +0.000 HD
ENDBRANCH   4   7
ENDBRANCH   1   4
BRANCH   1   9
ATOM      9  C   UNL     1       4.560   5.346  19.078  0.00  0.00    +0.000 C 
BRANCH   9  10
ATOM     10  O   UNL     1       5.088   5.654  17.804  0.00  0.00    +0.000 OA
BRANCH  10  11
ATOM     11  P   UNL     1       6.611   4.902  17.475  0.00  0.00    +0.000 P 
ATOM     12  O   UNL     1       6.827   4.543  18.942  0.00  0.00    +0.000 OA
BRANCH  11  13
ATOM     13  O   UNL     1       5.856   3.597  16.864  0.00  0.00    +0.000 OA
ATOM     14  H   UNL     1       5.020   3.894  16.460  0.00  0.00    +0.000 HD
ENDBRANCH  11  13
BRANCH  11  15
ATOM     15  O   UNL     1       8.135   4.151  17.146  0.00  0.00    +0.000 OA
ATOM     16  H   UNL     1       8.025   3.259  17.535  0.00  0.00    +0.000 HD
ENDBRANCH  11  15
ENDBRANCH  10  11
ENDBRANCH   9  10
ENDBRANCH   1   9
TORSDOF 9
ENDMDL
