MODEL 1
REMARK VINA RESULT:      -7.7      0.000      0.000
REMARK  Name = 
REMARK  5 active torsions:
REMARK  status: ('A' for Active; 'I' for Inactive)
REMARK    1  A    between atoms: C_1  and  C_2
REMARK    2  A    between atoms: N_8  and  C_9
REMARK    3  A    between atoms: C_9  and  C_10
REMARK    4  A    between atoms: C_10  and  N_11
REMARK    5  A    between atoms: C_14  and  C_15
REMARK                            x       y       z     vdW  Elec       q    Type
REMARK                         _______ _______ _______ _____ _____    ______ ____
ROOT
ATOM      1  C   UNL     1       4.280   7.375  17.766  0.00  0.00    +0.000 C 
ENDROOT
BRANCH   1   2
ATOM      2  N   UNL     1       4.810   5.987  17.728  0.00  0.00    +0.000 NA
ATOM      3  C   UNL     1       5.133   5.531  19.093  0.00  0.00    +0.000 C 
ATOM      4  C   UNL     1       5.561   4.066  19.155  0.00  0.00    +0.000 C 
ATOM      5  C   UNL     1       4.492   3.133  18.566  0.00  0.00    +0.000 C 
ATOM      6  C   UNL     1       4.265   3.619  17.121  0.00  0.00    +0.000 C 
ATOM      7  C   UNL     1       3.845   5.093  17.064  0.00  0.00    +0.000 C 
BRANCH   5   8
ATOM      8  C   UNL     1       3.228   2.968  19.419  0.00  0.00    +0.000 A 
ATOM      9  C   UNL     1       3.293   2.880  20.820  0.00  0.00    +0.000 A 
ATOM     10  C   UNL     1       2.138   2.793  21.605  0.00  0.00    +0.000 A 
ATOM     11  C   UNL     1       0.887   2.806  21.006  0.00  0.00    +0.000 A 
ATOM     12  C   UNL     1       0.789   2.910  19.625  0.00  0.00    +0.000 A 
ATOM     13  C   UNL     1       1.945   3.000  18.841  0.00  0.00    +0.000 A 
ENDBRANCH   5   8
ENDBRANCH   1   2
BRANCH   1  14
ATOM     14  C   UNL     1       2.737   7.419  17.701  0.00  0.00    +0.000 C 
BRANCH  14  22
ATOM     15  C   UNL     1      -0.157   9.525  23.258  0.00  0.00    +0.000 C 
ATOM     16  C   UNL     1       0.097  10.005  21.872  0.00  0.00    +0.000 A 
ATOM     17  C   UNL     1      -0.336  11.219  21.358  0.00  0.00    +0.000 A 
ATOM     18  S   UNL     1       0.139  11.458  19.723  0.00  0.00    +0.000 S 
ATOM     19  C   UNL     1       0.921   9.958  19.689  0.00  0.00    +0.000 A 
ATOM     20  C   UNL     1       1.606   9.417  18.549  0.00  0.00    +0.000 A 
ATOM     21  O   UNL     1       1.727   9.984  17.465  0.00  0.00    +0.000 OA
ATOM     22  N   UNL     1       2.124   8.144  18.801  0.00  0.00    +0.000 N 
ATOM     23  C   UNL     1       1.982   7.539  20.040  0.00  0.00    +0.000 A 
ATOM     24  N   UNL     1       1.381   8.022  21.081  0.00  0.00    +0.000 NA
ATOM     25  C   UNL     1       0.820   9.290  20.878  0.00  0.00    +0.000 A 
ENDBRANCH  14  22
ENDBRANCH   1  14
TORSDOF 4
ENDMDL
MODEL 2
REMARK VINA RESULT:      -7.7      1.724      3.534
REMARK  Name = 
REMARK  5 active torsions:
REMARK  status: ('A' for Active; 'I' for Inactive)
REMARK    1  A    between atoms: C_1  and  C_2
REMARK    2  A    between atoms: N_8  and  C_9
REMARK    3  A    between atoms: C_9  and  C_10
REMARK    4  A    between atoms: C_10  and  N_11
REMARK    5  A    between atoms: C_14  and  C_15
REMARK                            x       y       z     vdW  Elec       q    Type
REMARK                         _______ _______ _______ _____ _____    ______ ____
ROOT
ATOM      1  C   UNL     1       1.804   5.678  20.421  0.00  0.00    +0.000 C 
ENDROOT
BRANCH   1   2
ATOM      2  N   UNL     1       2.099   4.442  19.652  0.00  0.00    +0.000 NA
ATOM      3  C   UNL     1       2.002   4.711  18.204  0.00  0.00    +0.000 C 
ATOM      4  C   UNL     1       2.420   3.524  17.339  0.00  0.00    +0.000 C 
ATOM      5  C   UNL     1       3.850   3.062  17.656  0.00  0.00    +0.000 C 
ATOM      6  C   UNL     1       3.856   2.725  19.161  0.00  0.00    +0.000 C 
ATOM      7  C   UNL     1       3.425   3.918  20.024  0.00  0.00    +0.000 C 
BRANCH   5   8
ATOM      8  C   UNL     1       4.963   4.007  17.183  0.00  0.00    +0.000 A 
ATOM      9  C   UNL     1       6.024   4.371  18.029  0.00  0.00    +0.000 A 
ATOM     10  C   UNL     1       7.075   5.181  17.581  0.00  0.00    +0.000 A 
ATOM     11  C   UNL     1       7.093   5.636  16.271  0.00  0.00    +0.000 A 
ATOM     12  C   UNL     1       6.066   5.280  15.407  0.00  0.00    +0.000 A 
ATOM     13  C   UNL     1       5.019   4.467  15.854  0.00  0.00    +0.000 A 
ENDBRANCH   5   8
ENDBRANCH   1   2
BRANCH   1  14
ATOM     14  C   UNL     1       2.299   6.953  19.703  0.00  0.00    +0.000 C 
BRANCH  14  22
ATOM     15  C   UNL     1      -1.045  11.757  22.774  0.00  0.00    +0.000 C 
ATOM     16  C   UNL     1      -0.532  11.439  21.413  0.00  0.00    +0.000 A 
ATOM     17  C   UNL     1      -0.715  12.228  20.288  0.00  0.00    +0.000 A 
ATOM     18  S   UNL     1       0.017  11.565  18.881  0.00  0.00    +0.000 S 
ATOM     19  C   UNL     1       0.583  10.232  19.755  0.00  0.00    +0.000 A 
ATOM     20  C   UNL     1       1.343   9.150  19.198  0.00  0.00    +0.000 A 
ATOM     21  O   UNL     1       1.695   9.067  18.023  0.00  0.00    +0.000 OA
ATOM     22  N   UNL     1       1.641   8.170  20.149  0.00  0.00    +0.000 N 
ATOM     23  C   UNL     1       1.241   8.301  21.470  0.00  0.00    +0.000 A 
ATOM     24  N   UNL     1       0.568   9.279  21.989  0.00  0.00    +0.000 NA
ATOM     25  C   UNL     1       0.222  10.281  21.074  0.00  0.00    +0.000 A 
ENDBRANCH  14  22
ENDBRANCH   1  14
TORSDOF 4
ENDMDL
MODEL 3
REMARK VINA RESULT:      -7.5      1.879      3.793
REMARK  Name = 
REMARK  5 active torsions:
REMARK  status: ('A' for Active; 'I' for Inactive)
REMARK    1  A    between atoms: C_1  and  C_2
REMARK    2  A    between atoms: N_8  and  C_9
REMARK    3  A    between atoms: C_9  and  C_10
REMARK    4  A    between atoms: C_10  and  N_11
REMARK    5  A    between atoms: C_14  and  C_15
REMARK                            x       y       z     vdW  Elec       q    Type
REMARK                         _______ _______ _______ _____ _____    ______ ____
ROOT
ATOM      1  C   UNL     1       1.063   4.543  20.398  0.00  0.00    +0.000 C 
ENDROOT
BRANCH   1   2
ATOM      2  N   UNL     1       1.749   3.579  19.500  0.00  0.00    +0.000 NA
ATOM      3  C   UNL     1       1.752   4.090  18.115  0.00  0.00    +0.000 C 
ATOM      4  C   UNL     1       2.555   3.218  17.152  0.00  0.00    +0.000 C 
ATOM      5  C   UNL     1       4.009   3.046  17.614  0.00  0.00    +0.000 C 
ATOM      6  C   UNL     1       3.929   2.437  19.029  0.00  0.00    +0.000 C 
ATOM      7  C   UNL     1       3.113   3.312  19.990  0.00  0.00    +0.000 C 
BRANCH   5   8
ATOM      8  C   UNL     1       4.891   4.293  17.477  0.00  0.00    +0.000 A 
ATOM      9  C   UNL     1       5.874   4.606  18.432  0.00  0.00    +0.000 A 
ATOM     10  C   UNL     1       6.724   5.707  18.278  0.00  0.00    +0.000 A 
ATOM     11  C   UNL     1       6.618   6.516  17.156  0.00  0.00    +0.000 A 
ATOM     12  C   UNL     1       5.668   6.224  16.186  0.00  0.00    +0.000 A 
ATOM     13  C   UNL     1       4.821   5.120  16.340  0.00  0.00    +0.000 A 
ENDBRANCH   5   8
ENDBRANCH   1   2
BRANCH   1  14
ATOM     14  C   UNL     1       2.026   5.609  20.966  0.00  0.00    +0.000 C 
BRANCH  14  22
ATOM     15  C   UNL     1      -0.844  11.548  20.535  0.00  0.00    +0.000 C 
ATOM     16  C   UNL     1       0.145  10.722  19.789  0.00  0.00    +0.000 A 
ATOM     17  C   UNL     1       0.762  11.093  18.604  0.00  0.00    +0.000 A 
ATOM     18  S   UNL     1       1.856   9.903  18.019  0.00  0.00    +0.000 S 
ATOM     19  C   UNL     1       1.521   8.891  19.333  0.00  0.00    +0.000 A 
ATOM     20  C   UNL     1       2.108   7.599  19.542  0.00  0.00    +0.000 A 
ATOM     21  O   UNL     1       2.941   7.076  18.806  0.00  0.00    +0.000 OA
ATOM     22  N   UNL     1       1.616   6.976  20.692  0.00  0.00    +0.000 N 
ATOM     23  C   UNL     1       0.686   7.600  21.509  0.00  0.00    +0.000 A 
ATOM     24  N   UNL     1       0.159   8.772  21.341  0.00  0.00    +0.000 NA
ATOM     25  C   UNL     1       0.601   9.434  20.188  0.00  0.00    +0.000 A 
ENDBRANCH  14  22
ENDBRANCH   1  14
TORSDOF 4
ENDMDL
MODEL 4
REMARK VINA RESULT:      -7.3      2.320      4.202
REMARK  Name = 
REMARK  5 active torsions:
REMARK  status: ('A' for Active; 'I' for Inactive)
REMARK    1  A    between atoms: C_1  and  C_2
REMARK    2  A    between atoms: N_8  and  C_9
REMARK    3  A    between atoms: C_9  and  C_10
REMARK    4  A    between atoms: C_10  and  N_11
REMARK    5  A    between atoms: C_14  and  C_15
REMARK                            x       y       z     vdW  Elec       q    Type
REMARK                         _______ _______ _______ _____ _____    ______ ____
ROOT
ATOM      1  C   UNL     1       3.782   5.507  18.907  0.00  0.00    +0.000 C 
ENDROOT
BRANCH   1   2
ATOM      2  N   UNL     1       5.212   5.739  18.578  0.00  0.00    +0.000 NA
ATOM      3  C   UNL     1       5.870   4.460  18.250  0.00  0.00    +0.000 C 
ATOM      4  C   UNL     1       7.311   4.627  17.772  0.00  0.00    +0.000 C 
ATOM      5  C   UNL     1       7.403   5.552  16.549  0.00  0.00    +0.000 C 
ATOM      6  C   UNL     1       6.771   6.888  16.988  0.00  0.00    +0.000 C 
ATOM      7  C   UNL     1       5.327   6.713  17.477  0.00  0.00    +0.000 C 
BRANCH   5   8
ATOM      8  C   UNL     1       6.865   4.960  15.240  0.00  0.00    +0.000 A 
ATOM      9  C   UNL     1       7.560   5.110  14.028  0.00  0.00    +0.000 A 
ATOM     10  C   UNL     1       7.107   4.518  12.843  0.00  0.00    +0.000 A 
ATOM     11  C   UNL     1       5.950   3.751  12.847  0.00  0.00    +0.000 A 
ATOM     12  C   UNL     1       5.250   3.571  14.033  0.00  0.00    +0.000 A 
ATOM     13  C   UNL     1       5.707   4.161  15.217  0.00  0.00    +0.000 A 
ENDBRANCH   5   8
ENDBRANCH   1   2
BRANCH   1  14
ATOM     14  C   UNL     1       2.840   6.485  18.169  0.00  0.00    +0.000 C 
BRANCH  14  22
ATOM     15  C   UNL     1      -0.317   9.864  22.891  0.00  0.00    +0.000 C 
ATOM     16  C   UNL     1       0.104  10.041  21.475  0.00  0.00    +0.000 A 
ATOM     17  C   UNL     1      -0.161  11.159  20.698  0.00  0.00    +0.000 A 
ATOM     18  S   UNL     1       0.479  11.034  19.107  0.00  0.00    +0.000 S 
ATOM     19  C   UNL     1       1.111   9.500  19.439  0.00  0.00    +0.000 A 
ATOM     20  C   UNL     1       1.838   8.694  18.501  0.00  0.00    +0.000 A 
ATOM     21  O   UNL     1       2.109   9.024  17.349  0.00  0.00    +0.000 OA
ATOM     22  N   UNL     1       2.206   7.458  19.041  0.00  0.00    +0.000 N 
ATOM     23  C   UNL     1       1.896   7.122  20.350  0.00  0.00    +0.000 A 
ATOM     24  N   UNL     1       1.254   7.846  21.212  0.00  0.00    +0.000 NA
ATOM     25  C   UNL     1       0.840   9.089  20.715  0.00  0.00    +0.000 A 
ENDBRANCH  14  22
ENDBRANCH   1  14
TORSDOF 4
ENDMDL
MODEL 5
REMARK VINA RESULT:      -7.3      1.759      3.727
REMARK  Name = 
REMARK  5 active torsions:
REMARK  status: ('A' for Active; 'I' for Inactive)
REMARK    1  A    between atoms: C_1  and  C_2
REMARK    2  A    between atoms: N_8  and  C_9
REMARK    3  A    between atoms: C_9  and  C_10
REMARK    4  A    between atoms: C_10  and  N_11
REMARK    5  A    between atoms: C_14  and  C_15
REMARK                            x       y       z     vdW  Elec       q    Type
REMARK                         _______ _______ _______ _____ _____    ______ ____
ROOT
ATOM      1  C   UNL     1       1.514   6.005  20.149  0.00  0.00    +0.000 C 
ENDROOT
BRANCH   1   2
ATOM      2  N   UNL     1       2.237   4.928  19.424  0.00  0.00    +0.000 NA
ATOM      3  C   UNL     1       2.589   5.381  18.064  0.00  0.00    +0.000 C 
ATOM      4  C   UNL     1       3.450   4.380  17.298  0.00  0.00    +0.000 C 
ATOM      5  C   UNL     1       4.745   4.045  18.053  0.00  0.00    +0.000 C 
ATOM      6  C   UNL     1       4.300   3.506  19.427  0.00  0.00    +0.000 C 
ATOM      7  C   UNL     1       3.426   4.512  20.188  0.00  0.00    +0.000 C 
BRANCH   5   8
ATOM      8  C   UNL     1       5.791   5.166  18.086  0.00  0.00    +0.000 A 
ATOM      9  C   UNL     1       6.880   5.127  18.973  0.00  0.00    +0.000 A 
ATOM     10  C   UNL     1       7.872   6.114  18.963  0.00  0.00    +0.000 A 
ATOM     11  C   UNL     1       7.802   7.161  18.055  0.00  0.00    +0.000 A 
ATOM     12  C   UNL     1       6.747   7.218  17.154  0.00  0.00    +0.000 A 
ATOM     13  C   UNL     1       5.758   6.228  17.163  0.00  0.00    +0.000 A 
ENDBRANCH   5   8
ENDBRANCH   1   2
BRANCH   1  14
ATOM     14  C   UNL     1       2.212   7.377  20.018  0.00  0.00    +0.000 C 
BRANCH  14  22
ATOM     15  C   UNL     1      -1.646  11.700  23.200  0.00  0.00    +0.000 C 
ATOM     16  C   UNL     1      -1.162  11.431  21.817  0.00  0.00    +0.000 A 
ATOM     17  C   UNL     1      -1.519  12.159  20.692  0.00  0.00    +0.000 A 
ATOM     18  S   UNL     1      -0.770  11.581  19.257  0.00  0.00    +0.000 S 
ATOM     19  C   UNL     1       0.032  10.366  20.118  0.00  0.00    +0.000 A 
ATOM     20  C   UNL     1       0.915   9.396  19.535  0.00  0.00    +0.000 A 
ATOM     21  O   UNL     1       1.214   9.341  18.344  0.00  0.00    +0.000 OA
ATOM     22  N   UNL     1       1.404   8.492  20.481  0.00  0.00    +0.000 N 
ATOM     23  C   UNL     1       1.058   8.591  21.820  0.00  0.00    +0.000 A 
ATOM     24  N   UNL     1       0.276   9.470  22.362  0.00  0.00    +0.000 NA
ATOM     25  C   UNL     1      -0.263  10.390  21.453  0.00  0.00    +0.000 A 
ENDBRANCH  14  22
ENDBRANCH   1  14
TORSDOF 4
ENDMDL
MODEL 6
REMARK VINA RESULT:      -7.3      1.742      3.824
REMARK  Name = 
REMARK  5 active torsions:
REMARK  status: ('A' for Active; 'I' for Inactive)
REMARK    1  A    between atoms: C_1  and  C_2
REMARK    2  A    between atoms: N_8  and  C_9
REMARK    3  A    between atoms: C_9  and  C_10
REMARK    4  A    between atoms: C_10  and  N_11
REMARK    5  A    between atoms: C_14  and  C_15
REMARK                            x       y       z     vdW  Elec       q    Type
REMARK                         _______ _______ _______ _____ _____    ______ ____
ROOT
ATOM      1  C   UNL     1       1.685   6.364  20.461  0.00  0.00    +0.000 C 
ENDROOT
BRANCH   1   2
ATOM      2  N   UNL     1       2.203   5.242  19.636  0.00  0.00    +0.000 NA
ATOM      3  C   UNL     1       2.534   5.721  18.280  0.00  0.00    +0.000 C 
ATOM      4  C   UNL     1       3.197   4.657  17.409  0.00  0.00    +0.000 C 
ATOM      5  C   UNL     1       4.475   4.103  18.057  0.00  0.00    +0.000 C 
ATOM      6  C   UNL     1       4.041   3.551  19.430  0.00  0.00    +0.000 C 
ATOM      7  C   UNL     1       3.365   4.622  20.298  0.00  0.00    +0.000 C 
BRANCH   5   8
ATOM      8  C   UNL     1       5.669   5.065  18.076  0.00  0.00    +0.000 A 
ATOM      9  C   UNL     1       5.763   6.135  17.170  0.00  0.00    +0.000 A 
ATOM     10  C   UNL     1       6.818   7.053  17.225  0.00  0.00    +0.000 A 
ATOM     11  C   UNL     1       7.800   6.927  18.196  0.00  0.00    +0.000 A 
ATOM     12  C   UNL     1       7.726   5.889  19.116  0.00  0.00    +0.000 A 
ATOM     13  C   UNL     1       6.668   4.975  19.063  0.00  0.00    +0.000 A 
ENDBRANCH   5   8
ENDBRANCH   1   2
BRANCH   1  14
ATOM     14  C   UNL     1       2.002   7.745  19.846  0.00  0.00    +0.000 C 
BRANCH  14  22
ATOM     15  C   UNL     1      -2.054  11.758  23.183  0.00  0.00    +0.000 C 
ATOM     16  C   UNL     1      -1.386  11.688  21.854  0.00  0.00    +0.000 A 
ATOM     17  C   UNL     1      -1.534  12.620  20.837  0.00  0.00    +0.000 A 
ATOM     18  S   UNL     1      -0.613  12.234  19.438  0.00  0.00    +0.000 S 
ATOM     19  C   UNL     1      -0.010  10.833  20.173  0.00  0.00    +0.000 A 
ATOM     20  C   UNL     1       0.897   9.910  19.554  0.00  0.00    +0.000 A 
ATOM     21  O   UNL     1       1.365  10.032  18.424  0.00  0.00    +0.000 OA
ATOM     22  N   UNL     1       1.193   8.826  20.384  0.00  0.00    +0.000 N 
ATOM     23  C   UNL     1       0.659   8.726  21.660  0.00  0.00    +0.000 A 
ATOM     24  N   UNL     1      -0.149   9.560  22.236  0.00  0.00    +0.000 NA
ATOM     25  C   UNL     1      -0.499  10.657  21.438  0.00  0.00    +0.000 A 
ENDBRANCH  14  22
ENDBRANCH   1  14
TORSDOF 4
ENDMDL
MODEL 7
REMARK VINA RESULT:      -7.2      2.479      4.404
REMARK  Name = 
REMARK  5 active torsions:
REMARK  status: ('A' for Active; 'I' for Inactive)
REMARK    1  A    between atoms: C_1  and  C_2
REMARK    2  A    between atoms: N_8  and  C_9
REMARK    3  A    between atoms: C_9  and  C_10
REMARK    4  A    between atoms: C_10  and  N_11
REMARK    5  A    between atoms: C_14  and  C_15
REMARK                            x       y       z     vdW  Elec       q    Type
REMARK                         _______ _______ _______ _____ _____    ______ ____
ROOT
ATOM      1  C   UNL     1       4.054   7.586  17.395  0.00  0.00    +0.000 C 
ENDROOT
BRANCH   1   2
ATOM      2  N   UNL     1       4.985   6.457  17.656  0.00  0.00    +0.000 NA
ATOM      3  C   UNL     1       4.455   5.216  17.059  0.00  0.00    +0.000 C 
ATOM      4  C   UNL     1       5.417   4.035  17.168  0.00  0.00    +0.000 C 
ATOM      5  C   UNL     1       6.778   4.345  16.526  0.00  0.00    +0.000 C 
ATOM      6  C   UNL     1       7.304   5.601  17.250  0.00  0.00    +0.000 C 
ATOM      7  C   UNL     1       6.329   6.781  17.145  0.00  0.00    +0.000 C 
BRANCH   5   8
ATOM      8  C   UNL     1       6.778   4.412  14.994  0.00  0.00    +0.000 A 
ATOM      9  C   UNL     1       7.710   5.197  14.294  0.00  0.00    +0.000 A 
ATOM     10  C   UNL     1       7.755   5.212  12.895  0.00  0.00    +0.000 A 
ATOM     11  C   UNL     1       6.873   4.430  12.163  0.00  0.00    +0.000 A 
ATOM     12  C   UNL     1       5.951   3.631  12.826  0.00  0.00    +0.000 A 
ATOM     13  C   UNL     1       5.910   3.615  14.224  0.00  0.00    +0.000 A 
ENDBRANCH   5   8
ENDBRANCH   1   2
BRANCH   1  14
ATOM     14  C   UNL     1       2.588   7.231  17.731  0.00  0.00    +0.000 C 
BRANCH  14  22
ATOM     15  C   UNL     1      -0.063   9.559  23.320  0.00  0.00    +0.000 C 
ATOM     16  C   UNL     1       0.171  10.002  21.918  0.00  0.00    +0.000 A 
ATOM     17  C   UNL     1      -0.227  11.221  21.391  0.00  0.00    +0.000 A 
ATOM     18  S   UNL     1       0.210  11.410  19.740  0.00  0.00    +0.000 S 
ATOM     19  C   UNL     1       0.931   9.879  19.715  0.00  0.00    +0.000 A 
ATOM     20  C   UNL     1       1.562   9.290  18.568  0.00  0.00    +0.000 A 
ATOM     21  O   UNL     1       1.674   9.830  17.470  0.00  0.00    +0.000 OA
ATOM     22  N   UNL     1       2.036   8.002  18.832  0.00  0.00    +0.000 N 
ATOM     23  C   UNL     1       1.905   7.427  20.087  0.00  0.00    +0.000 A 
ATOM     24  N   UNL     1       1.353   7.954  21.133  0.00  0.00    +0.000 NA
ATOM     25  C   UNL     1       0.837   9.239  20.920  0.00  0.00    +0.000 A 
ENDBRANCH  14  22
ENDBRANCH   1  14
TORSDOF 4
ENDMDL
MODEL 8
REMARK VINA RESULT:      -7.2      1.764      3.917
REMARK  Name = 
REMARK  5 active torsions:
REMARK  status: ('A' for Active; 'I' for Inactive)
REMARK    1  A    between atoms: C_1  and  C_2
REMARK    2  A    between atoms: N_8  and  C_9
REMARK    3  A    between atoms: C_9  and  C_10
REMARK    4  A    between atoms: C_10  and  N_11
REMARK    5  A    between atoms: C_14  and  C_15
REMARK                            x       y       z     vdW  Elec       q    Type
REMARK                         _______ _______ _______ _____ _____    ______ ____
ROOT
ATOM      1  C   UNL     1       1.995   5.841  18.814  0.00  0.00    +0.000 C 
ENDROOT
BRANCH   1   2
ATOM      2  N   UNL     1       3.031   4.821  18.509  0.00  0.00    +0.000 NA
ATOM      3  C   UNL     1       3.650   5.103  17.200  0.00  0.00    +0.000 C 
ATOM      4  C   UNL     1       4.818   4.176  16.872  0.00  0.00    +0.000 C 
ATOM      5  C   UNL     1       5.910   4.229  17.950  0.00  0.00    +0.000 C 
ATOM      6  C   UNL     1       5.211   3.849  19.271  0.00  0.00    +0.000 C 
ATOM      7  C   UNL     1       4.032   4.777  19.591  0.00  0.00    +0.000 C 
BRANCH   5   8
ATOM      8  C   UNL     1       6.734   5.523  17.984  0.00  0.00    +0.000 A 
ATOM      9  C   UNL     1       6.492   6.570  17.079  0.00  0.00    +0.000 A 
ATOM     10  C   UNL     1       7.197   7.777  17.146  0.00  0.00    +0.000 A 
ATOM     11  C   UNL     1       8.156   7.968  18.130  0.00  0.00    +0.000 A 
ATOM     12  C   UNL     1       8.407   6.958  19.050  0.00  0.00    +0.000 A 
ATOM     13  C   UNL     1       7.698   5.753  18.983  0.00  0.00    +0.000 A 
ENDBRANCH   5   8
ENDBRANCH   1   2
BRANCH   1  14
ATOM     14  C   UNL     1       2.540   7.284  18.719  0.00  0.00    +0.000 C 
BRANCH  14  22
ATOM     15  C   UNL     1      -1.047  10.661  23.125  0.00  0.00    +0.000 C 
ATOM     16  C   UNL     1      -0.630  10.766  21.700  0.00  0.00    +0.000 A 
ATOM     17  C   UNL     1      -1.011  11.776  20.830  0.00  0.00    +0.000 A 
ATOM     18  S   UNL     1      -0.341  11.592  19.258  0.00  0.00    +0.000 S 
ATOM     19  C   UNL     1       0.459  10.175  19.722  0.00  0.00    +0.000 A 
ATOM     20  C   UNL     1       1.287   9.382  18.858  0.00  0.00    +0.000 A 
ATOM     21  O   UNL     1       1.533   9.644  17.683  0.00  0.00    +0.000 OA
ATOM     22  N   UNL     1       1.787   8.248  19.503  0.00  0.00    +0.000 N 
ATOM     23  C   UNL     1       1.500   7.989  20.835  0.00  0.00    +0.000 A 
ATOM     24  N   UNL     1       0.768   8.704  21.629  0.00  0.00    +0.000 NA
ATOM     25  C   UNL     1       0.220   9.845  21.027  0.00  0.00    +0.000 A 
ENDBRANCH  14  22
ENDBRANCH   1  14
TORSDOF 4
ENDMDL
MODEL 9
REMARK VINA RESULT:      -7.0      1.310      1.770
REMARK  Name = 
REMARK  5 active torsions:
REMARK  status: ('A' for Active; 'I' for Inactive)
REMARK    1  A    between atoms: C_1  and  C_2
REMARK    2  A    between atoms: N_8  and  C_9
REMARK    3  A    between atoms: C_9  and  C_10
REMARK    4  A    between atoms: C_10  and  N_11
REMARK    5  A    between atoms: C_14  and  C_15
REMARK                            x       y       z     vdW  Elec       q    Type
REMARK                         _______ _______ _______ _____ _____    ______ ____
ROOT
ATOM      1  C   UNL     1       4.359   7.443  17.744  0.00  0.00    +0.000 C 
ENDROOT
BRANCH   1   2
ATOM      2  N   UNL     1       4.896   6.057  17.732  0.00  0.00    +0.000 NA
ATOM      3  C   UNL     1       5.191   5.617  19.109  0.00  0.00    +0.000 C 
ATOM      4  C   UNL     1       5.624   4.156  19.197  0.00  0.00    +0.000 C 
ATOM      5  C   UNL     1       4.571   3.212  18.596  0.00  0.00    +0.000 C 
ATOM      6  C   UNL     1       4.372   3.680  17.141  0.00  0.00    +0.000 C 
ATOM      7  C   UNL     1       3.948   5.152  17.059  0.00  0.00    +0.000 C 
BRANCH   5   8
ATOM      8  C   UNL     1       3.289   3.051  19.424  0.00  0.00    +0.000 A 
ATOM      9  C   UNL     1       3.335   2.802  20.806  0.00  0.00    +0.000 A 
ATOM     10  C   UNL     1       2.169   2.719  21.576  0.00  0.00    +0.000 A 
ATOM     11  C   UNL     1       0.928   2.894  20.981  0.00  0.00    +0.000 A 
ATOM     12  C   UNL     1       0.851   3.158  19.619  0.00  0.00    +0.000 A 
ATOM     13  C   UNL     1       2.018   3.245  18.852  0.00  0.00    +0.000 A 
ENDBRANCH   5   8
ENDBRANCH   1   2
BRANCH   1  14
ATOM     14  C   UNL     1       2.845   7.492  17.437  0.00  0.00    +0.000 C 
BRANCH  14  22
ATOM     15  C   UNL     1      -0.145  12.490  20.562  0.00  0.00    +0.000 C 
ATOM     16  C   UNL     1       0.288  11.092  20.837  0.00  0.00    +0.000 A 
ATOM     17  C   UNL     1       0.151  10.440  22.053  0.00  0.00    +0.000 A 
ATOM     18  S   UNL     1       0.751   8.829  22.017  0.00  0.00    +0.000 S 
ATOM     19  C   UNL     1       1.192   8.987  20.391  0.00  0.00    +0.000 A 
ATOM     20  C   UNL     1       1.817   7.959  19.609  0.00  0.00    +0.000 A 
ATOM     21  O   UNL     1       2.090   6.832  20.016  0.00  0.00    +0.000 OA
ATOM     22  N   UNL     1       2.100   8.384  18.309  0.00  0.00    +0.000 N 
ATOM     23  C   UNL     1       1.765   9.659  17.877  0.00  0.00    +0.000 A 
ATOM     24  N   UNL     1       1.188  10.591  18.568  0.00  0.00    +0.000 NA
ATOM     25  C   UNL     1       0.901  10.226  19.890  0.00  0.00    +0.000 A 
ENDBRANCH  14  22
ENDBRANCH   1  14
TORSDOF 4
ENDMDL
