MODEL 1
REMARK VINA RESULT:      -7.0      0.000      0.000
REMARK  Name = 
REMARK  7 active torsions:
REMARK  status: ('A' for Active; 'I' for Inactive)
REMARK    1  A    between atoms: C_1  and  C_2
REMARK    2  A    between atoms: C_2  and  O_3
REMARK    3  A    between atoms: O_3  and  C_4
REMARK    4  A    between atoms: C_4  and  C_6
REMARK    5  A    between atoms: C_8  and  C_9
REMARK    6  A    between atoms: N_13  and  C_14
REMARK    7  A    between atoms: C_14  and  C_15
REMARK                            x       y       z     vdW  Elec       q    Type
REMARK                         _______ _______ _______ _____ _____    ______ ____
ROOT
ATOM      1  C   UNL     1       5.580   5.094  17.166  0.00  0.00    +0.000 A 
ATOM      2  S   UNL     1       5.098   6.649  16.619  0.00  0.00    +0.000 S 
ATOM      3  C   UNL     1       3.820   6.747  17.759  0.00  0.00    +0.000 A 
ATOM      4  C   UNL     1       2.936   7.950  17.767  0.00  0.00    +0.000 C 
ATOM      5  C   UNL     1       3.786   5.626  18.567  0.00  0.00    +0.000 A 
ATOM      6  C   UNL     1       2.883   5.328  19.650  0.00  0.00    +0.000 A 
ATOM      7  O   UNL     1       1.981   6.090  19.990  0.00  0.00    +0.000 OA
ATOM      8  N   UNL     1       3.151   4.109  20.269  0.00  0.00    +0.000 N 
ATOM      9  N   UNL     1       4.122   3.226  19.857  0.00  0.00    +0.000 NA
ATOM     10  N   UNL     1       4.892   3.486  18.904  0.00  0.00    +0.000 NA
ATOM     11  C   UNL     1       4.787   4.700  18.219  0.00  0.00    +0.000 A 
ENDROOT
BRANCH   1  12
ATOM     12  C   UNL     1       6.642   4.409  16.463  0.00  0.00    +0.000 C 
ATOM     13  O   UNL     1       7.836   4.451  16.739  0.00  0.00    +0.000 OA
BRANCH  12  14
ATOM     14  O   UNL     1       6.142   3.795  15.355  0.00  0.00    +0.000 OA
BRANCH  14  16
ATOM     15  C   UNL     1       5.844   3.621  12.997  0.00  0.00    +0.000 C 
ATOM     16  C   UNL     1       6.662   4.262  14.105  0.00  0.00    +0.000 C 
ENDBRANCH  14  16
ENDBRANCH  12  14
ENDBRANCH   1  12
BRANCH   8  17
ATOM     17  C   UNL     1       2.372   3.684  21.422  0.00  0.00    +0.000 C 
ATOM     18  C   UNL     1       1.181   2.824  21.038  0.00  0.00    +0.000 C 
ENDBRANCH   8  17
TORSDOF 4
ENDMDL
MODEL 2
REMARK VINA RESULT:      -6.6      1.056      1.233
REMARK  Name = 
REMARK  7 active torsions:
REMARK  status: ('A' for Active; 'I' for Inactive)
REMARK    1  A    between atoms: C_1  and  C_2
REMARK    2  A    between atoms: C_2  and  O_3
REMARK    3  A    between atoms: O_3  and  C_4
REMARK    4  A    between atoms: C_4  and  C_6
REMARK    5  A    between atoms: C_8  and  C_9
REMARK    6  A    between atoms: N_13  and  C_14
REMARK    7  A    between atoms: C_14  and  C_15
REMARK                            x       y       z     vdW  Elec       q    Type
REMARK                         _______ _______ _______ _____ _____    ______ ____
ROOT
ATOM      1  C   UNL     1       5.950   5.155  18.036  0.00  0.00    +0.000 A 
ATOM      2  S   UNL     1       5.388   6.702  17.544  0.00  0.00    +0.000 S 
ATOM      3  C   UNL     1       3.790   6.384  18.079  0.00  0.00    +0.000 A 
ATOM      4  C   UNL     1       2.732   7.420  17.884  0.00  0.00    +0.000 C 
ATOM      5  C   UNL     1       3.697   5.131  18.656  0.00  0.00    +0.000 A 
ATOM      6  C   UNL     1       2.542   4.496  19.239  0.00  0.00    +0.000 A 
ATOM      7  O   UNL     1       1.439   5.035  19.283  0.00  0.00    +0.000 OA
ATOM      8  N   UNL     1       2.813   3.230  19.753  0.00  0.00    +0.000 N 
ATOM      9  N   UNL     1       4.031   2.597  19.656  0.00  0.00    +0.000 NA
ATOM     10  N   UNL     1       5.025   3.150  19.133  0.00  0.00    +0.000 NA
ATOM     11  C   UNL     1       4.927   4.449  18.624  0.00  0.00    +0.000 A 
ENDROOT
BRANCH   1  12
ATOM     12  C   UNL     1       7.316   4.786  17.737  0.00  0.00    +0.000 C 
ATOM     13  O   UNL     1       8.172   4.461  18.552  0.00  0.00    +0.000 OA
BRANCH  12  14
ATOM     14  O   UNL     1       7.565   4.969  16.410  0.00  0.00    +0.000 OA
BRANCH  14  16
ATOM     15  C   UNL     1       6.367   4.834  14.354  0.00  0.00    +0.000 C 
ATOM     16  C   UNL     1       6.916   4.044  15.530  0.00  0.00    +0.000 C 
ENDBRANCH  14  16
ENDBRANCH  12  14
ENDBRANCH   1  12
BRANCH   8  17
ATOM     17  C   UNL     1       1.772   2.475  20.433  0.00  0.00    +0.000 C 
ATOM     18  C   UNL     1       1.749   2.729  21.930  0.00  0.00    +0.000 C 
ENDBRANCH   8  17
TORSDOF 4
ENDMDL
MODEL 3
REMARK VINA RESULT:      -6.5      1.029      1.995
REMARK  Name = 
REMARK  7 active torsions:
REMARK  status: ('A' for Active; 'I' for Inactive)
REMARK    1  A    between atoms: C_1  and  C_2
REMARK    2  A    between atoms: C_2  and  O_3
REMARK    3  A    between atoms: O_3  and  C_4
REMARK    4  A    between atoms: C_4  and  C_6
REMARK    5  A    between atoms: C_8  and  C_9
REMARK    6  A    between atoms: N_13  and  C_14
REMARK    7  A    between atoms: C_14  and  C_15
REMARK                            x       y       z     vdW  Elec       q    Type
REMARK                         _______ _______ _______ _____ _____    ______ ____
ROOT
ATOM      1  C   UNL     1       5.233   5.171  17.125  0.00  0.00    +0.000 A 
ATOM      2  S   UNL     1       4.763   6.749  16.636  0.00  0.00    +0.000 S 
ATOM      3  C   UNL     1       3.557   6.857  17.850  0.00  0.00    +0.000 A 
ATOM      4  C   UNL     1       2.707   8.083  17.931  0.00  0.00    +0.000 C 
ATOM      5  C   UNL     1       3.538   5.721  18.637  0.00  0.00    +0.000 A 
ATOM      6  C   UNL     1       2.691   5.426  19.765  0.00  0.00    +0.000 A 
ATOM      7  O   UNL     1       1.831   6.204  20.172  0.00  0.00    +0.000 OA
ATOM      8  N   UNL     1       2.960   4.188  20.344  0.00  0.00    +0.000 N 
ATOM      9  N   UNL     1       3.881   3.288  19.860  0.00  0.00    +0.000 NA
ATOM     10  N   UNL     1       4.601   3.547  18.869  0.00  0.00    +0.000 NA
ATOM     11  C   UNL     1       4.491   4.777  18.215  0.00  0.00    +0.000 A 
ENDROOT
BRANCH   1  12
ATOM     12  C   UNL     1       6.233   4.473  16.348  0.00  0.00    +0.000 C 
ATOM     13  O   UNL     1       6.031   3.536  15.584  0.00  0.00    +0.000 OA
BRANCH  12  14
ATOM     14  O   UNL     1       7.475   4.927  16.678  0.00  0.00    +0.000 OA
BRANCH  14  16
ATOM     15  C   UNL     1       7.957   5.945  18.778  0.00  0.00    +0.000 C 
ATOM     16  C   UNL     1       7.902   4.634  18.013  0.00  0.00    +0.000 C 
ENDBRANCH  14  16
ENDBRANCH  12  14
ENDBRANCH   1  12
BRANCH   8  17
ATOM     17  C   UNL     1       2.237   3.760  21.533  0.00  0.00    +0.000 C 
ATOM     18  C   UNL     1       1.174   2.721  21.227  0.00  0.00    +0.000 C 
ENDBRANCH   8  17
TORSDOF 4
ENDMDL
MODEL 4
REMARK VINA RESULT:      -6.4      2.491      5.200
REMARK  Name = 
REMARK  7 active torsions:
REMARK  status: ('A' for Active; 'I' for Inactive)
REMARK    1  A    between atoms: C_1  and  C_2
REMARK    2  A    between atoms: C_2  and  O_3
REMARK    3  A    between atoms: O_3  and  C_4
REMARK    4  A    between atoms: C_4  and  C_6
REMARK    5  A    between atoms: C_8  and  C_9
REMARK    6  A    between atoms: N_13  and  C_14
REMARK    7  A    between atoms: C_14  and  C_15
REMARK                            x       y       z     vdW  Elec       q    Type
REMARK                         _______ _______ _______ _____ _____    ______ ____
ROOT
ATOM      1  C   UNL     1       4.031   4.104  18.822  0.00  0.00    +0.000 A 
ATOM      2  S   UNL     1       3.208   5.552  19.240  0.00  0.00    +0.000 S 
ATOM      3  C   UNL     1       3.766   6.373  17.842  0.00  0.00    +0.000 A 
ATOM      4  C   UNL     1       3.386   7.802  17.631  0.00  0.00    +0.000 C 
ATOM      5  C   UNL     1       4.540   5.544  17.052  0.00  0.00    +0.000 A 
ATOM      6  C   UNL     1       5.179   5.843  15.795  0.00  0.00    +0.000 A 
ATOM      7  O   UNL     1       5.104   6.945  15.258  0.00  0.00    +0.000 OA
ATOM      8  N   UNL     1       5.867   4.758  15.258  0.00  0.00    +0.000 N 
ATOM      9  N   UNL     1       6.003   3.538  15.881  0.00  0.00    +0.000 NA
ATOM     10  N   UNL     1       5.457   3.293  16.981  0.00  0.00    +0.000 NA
ATOM     11  C   UNL     1       4.681   4.264  17.619  0.00  0.00    +0.000 A 
ENDROOT
BRANCH   1  12
ATOM     12  C   UNL     1       3.999   2.994  19.748  0.00  0.00    +0.000 C 
ATOM     13  O   UNL     1       4.968   2.364  20.155  0.00  0.00    +0.000 OA
BRANCH  12  14
ATOM     14  O   UNL     1       2.707   2.657  20.021  0.00  0.00    +0.000 OA
BRANCH  14  16
ATOM     15  C   UNL     1       0.661   2.543  18.806  0.00  0.00    +0.000 C 
ATOM     16  C   UNL     1       2.033   1.921  18.994  0.00  0.00    +0.000 C 
ENDBRANCH  14  16
ENDBRANCH  12  14
ENDBRANCH   1  12
BRANCH   8  17
ATOM     17  C   UNL     1       6.517   4.870  13.961  0.00  0.00    +0.000 C 
ATOM     18  C   UNL     1       6.178   3.715  13.035  0.00  0.00    +0.000 C 
ENDBRANCH   8  17
TORSDOF 4
ENDMDL
MODEL 5
REMARK VINA RESULT:      -6.4      1.226      1.297
REMARK  Name = 
REMARK  7 active torsions:
REMARK  status: ('A' for Active; 'I' for Inactive)
REMARK    1  A    between atoms: C_1  and  C_2
REMARK    2  A    between atoms: C_2  and  O_3
REMARK    3  A    between atoms: O_3  and  C_4
REMARK    4  A    between atoms: C_4  and  C_6
REMARK    5  A    between atoms: C_8  and  C_9
REMARK    6  A    between atoms: N_13  and  C_14
REMARK    7  A    between atoms: C_14  and  C_15
REMARK                            x       y       z     vdW  Elec       q    Type
REMARK                         _______ _______ _______ _____ _____    ______ ____
ROOT
ATOM      1  C   UNL     1       5.404   5.083  16.253  0.00  0.00    +0.000 A 
ATOM      2  S   UNL     1       5.139   6.779  16.316  0.00  0.00    +0.000 S 
ATOM      3  C   UNL     1       3.851   6.621  17.438  0.00  0.00    +0.000 A 
ATOM      4  C   UNL     1       3.127   7.843  17.898  0.00  0.00    +0.000 C 
ATOM      5  C   UNL     1       3.651   5.298  17.784  0.00  0.00    +0.000 A 
ATOM      6  C   UNL     1       2.685   4.747  18.702  0.00  0.00    +0.000 A 
ATOM      7  O   UNL     1       1.877   5.443  19.312  0.00  0.00    +0.000 OA
ATOM      8  N   UNL     1       2.778   3.363  18.831  0.00  0.00    +0.000 N 
ATOM      9  N   UNL     1       3.641   2.572  18.108  0.00  0.00    +0.000 NA
ATOM     10  N   UNL     1       4.465   3.057  17.301  0.00  0.00    +0.000 NA
ATOM     11  C   UNL     1       4.536   4.440  17.106  0.00  0.00    +0.000 A 
ENDROOT
BRANCH   1  12
ATOM     12  C   UNL     1       6.391   4.568  15.329  0.00  0.00    +0.000 C 
ATOM     13  O   UNL     1       7.600   4.760  15.383  0.00  0.00    +0.000 OA
BRANCH  12  14
ATOM     14  O   UNL     1       5.770   3.927  14.299  0.00  0.00    +0.000 OA
BRANCH  14  16
ATOM     15  C   UNL     1       5.688   3.080  12.074  0.00  0.00    +0.000 C 
ATOM     16  C   UNL     1       6.498   3.895  13.067  0.00  0.00    +0.000 C 
ENDBRANCH  14  16
ENDBRANCH  12  14
ENDBRANCH   1  12
BRANCH   8  17
ATOM     17  C   UNL     1       1.917   2.654  19.766  0.00  0.00    +0.000 C 
ATOM     18  C   UNL     1       0.621   2.187  19.127  0.00  0.00    +0.000 C 
ENDBRANCH   8  17
TORSDOF 4
ENDMDL
MODEL 6
REMARK VINA RESULT:      -6.2      2.929      4.368
REMARK  Name = 
REMARK  7 active torsions:
REMARK  status: ('A' for Active; 'I' for Inactive)
REMARK    1  A    between atoms: C_1  and  C_2
REMARK    2  A    between atoms: C_2  and  O_3
REMARK    3  A    between atoms: O_3  and  C_4
REMARK    4  A    between atoms: C_4  and  C_6
REMARK    5  A    between atoms: C_8  and  C_9
REMARK    6  A    between atoms: N_13  and  C_14
REMARK    7  A    between atoms: C_14  and  C_15
REMARK                            x       y       z     vdW  Elec       q    Type
REMARK                         _______ _______ _______ _____ _____    ______ ____
ROOT
ATOM      1  C   UNL     1       4.019   4.041  19.234  0.00  0.00    +0.000 A 
ATOM      2  S   UNL     1       4.986   4.243  17.828  0.00  0.00    +0.000 S 
ATOM      3  C   UNL     1       4.390   5.825  17.543  0.00  0.00    +0.000 A 
ATOM      4  C   UNL     1       4.866   6.583  16.348  0.00  0.00    +0.000 C 
ATOM      5  C   UNL     1       3.494   6.205  18.526  0.00  0.00    +0.000 A 
ATOM      6  C   UNL     1       2.787   7.454  18.660  0.00  0.00    +0.000 A 
ATOM      7  O   UNL     1       2.909   8.376  17.856  0.00  0.00    +0.000 OA
ATOM      8  N   UNL     1       1.976   7.507  19.791  0.00  0.00    +0.000 N 
ATOM      9  N   UNL     1       1.791   6.459  20.663  0.00  0.00    +0.000 NA
ATOM     10  N   UNL     1       2.397   5.372  20.529  0.00  0.00    +0.000 NA
ATOM     11  C   UNL     1       3.295   5.186  19.474  0.00  0.00    +0.000 A 
ENDROOT
BRANCH   1  12
ATOM     12  C   UNL     1       4.034   2.761  19.909  0.00  0.00    +0.000 C 
ATOM     13  O   UNL     1       5.031   2.127  20.232  0.00  0.00    +0.000 OA
BRANCH  12  14
ATOM     14  O   UNL     1       2.762   2.289  20.031  0.00  0.00    +0.000 OA
BRANCH  14  16
ATOM     15  C   UNL     1       0.745   2.452  18.772  0.00  0.00    +0.000 C 
ATOM     16  C   UNL     1       2.144   1.862  18.812  0.00  0.00    +0.000 C 
ENDBRANCH  14  16
ENDBRANCH  12  14
ENDBRANCH   1  12
BRANCH   8  17
ATOM     17  C   UNL     1       1.240   8.720  20.111  0.00  0.00    +0.000 C 
ATOM     18  C   UNL     1       0.980   8.871  21.599  0.00  0.00    +0.000 C 
ENDBRANCH   8  17
TORSDOF 4
ENDMDL
MODEL 7
REMARK VINA RESULT:      -6.2      2.687      5.535
REMARK  Name = 
REMARK  7 active torsions:
REMARK  status: ('A' for Active; 'I' for Inactive)
REMARK    1  A    between atoms: C_1  and  C_2
REMARK    2  A    between atoms: C_2  and  O_3
REMARK    3  A    between atoms: O_3  and  C_4
REMARK    4  A    between atoms: C_4  and  C_6
REMARK    5  A    between atoms: C_8  and  C_9
REMARK    6  A    between atoms: N_13  and  C_14
REMARK    7  A    between atoms: C_14  and  C_15
REMARK                            x       y       z     vdW  Elec       q    Type
REMARK                         _______ _______ _______ _____ _____    ______ ____
ROOT
ATOM      1  C   UNL     1       4.467   3.392  18.515  0.00  0.00    +0.000 A 
ATOM      2  S   UNL     1       4.104   3.002  16.882  0.00  0.00    +0.000 S 
ATOM      3  C   UNL     1       5.204   4.166  16.270  0.00  0.00    +0.000 A 
ATOM      4  C   UNL     1       5.334   4.347  14.794  0.00  0.00    +0.000 C 
ATOM      5  C   UNL     1       5.863   4.817  17.297  0.00  0.00    +0.000 A 
ATOM      6  C   UNL     1       6.870   5.844  17.206  0.00  0.00    +0.000 A 
ATOM      7  O   UNL     1       7.273   6.286  16.133  0.00  0.00    +0.000 OA
ATOM      8  N   UNL     1       7.339   6.263  18.449  0.00  0.00    +0.000 N 
ATOM      9  N   UNL     1       6.852   5.814  19.655  0.00  0.00    +0.000 NA
ATOM     10  N   UNL     1       5.965   4.933  19.723  0.00  0.00    +0.000 NA
ATOM     11  C   UNL     1       5.436   4.368  18.560  0.00  0.00    +0.000 A 
ENDROOT
BRANCH   1  12
ATOM     12  C   UNL     1       3.719   2.741  19.567  0.00  0.00    +0.000 C 
ATOM     13  O   UNL     1       4.186   2.248  20.587  0.00  0.00    +0.000 OA
BRANCH  12  14
ATOM     14  O   UNL     1       2.408   2.640  19.209  0.00  0.00    +0.000 OA
BRANCH  14  16
ATOM     15  C   UNL     1       1.085   4.187  20.446  0.00  0.00    +0.000 C 
ATOM     16  C   UNL     1       1.467   2.727  20.284  0.00  0.00    +0.000 C 
ENDBRANCH  14  16
ENDBRANCH  12  14
ENDBRANCH   1  12
BRANCH   8  17
ATOM     17  C   UNL     1       8.404   7.252  18.537  0.00  0.00    +0.000 C 
ATOM     18  C   UNL     1       8.006   8.592  17.945  0.00  0.00    +0.000 C 
ENDBRANCH   8  17
TORSDOF 4
ENDMDL
MODEL 8
REMARK VINA RESULT:      -6.2      1.445      2.277
REMARK  Name = 
REMARK  7 active torsions:
REMARK  status: ('A' for Active; 'I' for Inactive)
REMARK    1  A    between atoms: C_1  and  C_2
REMARK    2  A    between atoms: C_2  and  O_3
REMARK    3  A    between atoms: O_3  and  C_4
REMARK    4  A    between atoms: C_4  and  C_6
REMARK    5  A    between atoms: C_8  and  C_9
REMARK    6  A    between atoms: N_13  and  C_14
REMARK    7  A    between atoms: C_14  and  C_15
REMARK                            x       y       z     vdW  Elec       q    Type
REMARK                         _______ _______ _______ _____ _____    ______ ____
ROOT
ATOM      1  C   UNL     1       5.484   5.732  17.411  0.00  0.00    +0.000 A 
ATOM      2  S   UNL     1       4.643   7.162  16.967  0.00  0.00    +0.000 S 
ATOM      3  C   UNL     1       3.348   6.834  18.042  0.00  0.00    +0.000 A 
ATOM      4  C   UNL     1       2.189   7.774  18.100  0.00  0.00    +0.000 C 
ATOM      5  C   UNL     1       3.572   5.670  18.752  0.00  0.00    +0.000 A 
ATOM      6  C   UNL     1       2.739   5.059  19.758  0.00  0.00    +0.000 A 
ATOM      7  O   UNL     1       1.664   5.538  20.111  0.00  0.00    +0.000 OA
ATOM      8  N   UNL     1       3.286   3.893  20.288  0.00  0.00    +0.000 N 
ATOM      9  N   UNL     1       4.461   3.320  19.858  0.00  0.00    +0.000 NA
ATOM     10  N   UNL     1       5.169   3.849  18.972  0.00  0.00    +0.000 NA
ATOM     11  C   UNL     1       4.784   5.058  18.384  0.00  0.00    +0.000 A 
ENDROOT
BRANCH   1  12
ATOM     12  C   UNL     1       6.706   5.400  16.711  0.00  0.00    +0.000 C 
ATOM     13  O   UNL     1       7.006   4.299  16.264  0.00  0.00    +0.000 OA
BRANCH  12  14
ATOM     14  O   UNL     1       7.551   6.469  16.723  0.00  0.00    +0.000 OA
BRANCH  14  16
ATOM     15  C   UNL     1       8.073   8.490  17.872  0.00  0.00    +0.000 C 
ATOM     16  C   UNL     1       7.861   6.993  18.019  0.00  0.00    +0.000 C 
ENDBRANCH  14  16
ENDBRANCH  12  14
ENDBRANCH   1  12
BRANCH   8  17
ATOM     17  C   UNL     1       2.603   3.183  21.360  0.00  0.00    +0.000 C 
ATOM     18  C   UNL     1       1.296   2.558  20.907  0.00  0.00    +0.000 C 
ENDBRANCH   8  17
TORSDOF 4
ENDMDL
MODEL 9
REMARK VINA RESULT:      -6.1      2.597      5.517
REMARK  Name = 
REMARK  7 active torsions:
REMARK  status: ('A' for Active; 'I' for Inactive)
REMARK    1  A    between atoms: C_1  and  C_2
REMARK    2  A    between atoms: C_2  and  O_3
REMARK    3  A    between atoms: O_3  and  C_4
REMARK    4  A    between atoms: C_4  and  C_6
REMARK    5  A    between atoms: C_8  and  C_9
REMARK    6  A    between atoms: N_13  and  C_14
REMARK    7  A    between atoms: C_14  and  C_15
REMARK                            x       y       z     vdW  Elec       q    Type
REMARK                         _______ _______ _______ _____ _____    ______ ____
ROOT
ATOM      1  C   UNL     1       5.255   4.220  18.613  0.00  0.00    +0.000 A 
ATOM      2  S   UNL     1       6.077   5.537  19.348  0.00  0.00    +0.000 S 
ATOM      3  C   UNL     1       6.898   5.943  17.899  0.00  0.00    +0.000 A 
ATOM      4  C   UNL     1       7.867   7.079  17.899  0.00  0.00    +0.000 C 
ATOM      5  C   UNL     1       6.523   5.108  16.862  0.00  0.00    +0.000 A 
ATOM      6  C   UNL     1       6.967   5.126  15.491  0.00  0.00    +0.000 A 
ATOM      7  O   UNL     1       7.787   5.938  15.069  0.00  0.00    +0.000 OA
ATOM      8  N   UNL     1       6.361   4.148  14.706  0.00  0.00    +0.000 N 
ATOM      9  N   UNL     1       5.486   3.199  15.184  0.00  0.00    +0.000 NA
ATOM     10  N   UNL     1       5.119   3.182  16.380  0.00  0.00    +0.000 NA
ATOM     11  C   UNL     1       5.593   4.139  17.282  0.00  0.00    +0.000 A 
ENDROOT
BRANCH   1  12
ATOM     12  C   UNL     1       4.416   3.377  19.438  0.00  0.00    +0.000 C 
ATOM     13  O   UNL     1       4.745   2.315  19.953  0.00  0.00    +0.000 OA
BRANCH  12  14
ATOM     14  O   UNL     1       3.148   3.873  19.465  0.00  0.00    +0.000 OA
BRANCH  14  16
ATOM     15  C   UNL     1       1.590   4.246  17.701  0.00  0.00    +0.000 C 
ATOM     16  C   UNL     1       2.207   3.204  18.618  0.00  0.00    +0.000 C 
ENDBRANCH  14  16
ENDBRANCH  12  14
ENDBRANCH   1  12
BRANCH   8  17
ATOM     17  C   UNL     1       6.650   4.067  13.282  0.00  0.00    +0.000 C 
ATOM     18  C   UNL     1       5.567   3.336  12.507  0.00  0.00    +0.000 C 
ENDBRANCH   8  17
TORSDOF 4
ENDMDL
