MODEL 1
REMARK VINA RESULT:      -5.3      0.000      0.000
REMARK  Name = 
REMARK  3 active torsions:
REMARK  status: ('A' for Active; 'I' for Inactive)
REMARK    1  A    between atoms: C_4  and  C_5
REMARK    2  A    between atoms: C_5  and  C_6
REMARK    3  A    between atoms: C_6  and  O_8
REMARK                            x       y       z     vdW  Elec       q    Type
REMARK                         _______ _______ _______ _____ _____    ______ ____
ROOT
ATOM      1  N   UNL     1       7.678   7.112  16.984  0.00  0.00    +0.000 N 
ATOM      2  C   UNL     1       7.033   5.972  16.515  0.00  0.00    +0.000 A 
ATOM      3  C   UNL     1       6.020   5.377  17.256  0.00  0.00    +0.000 A 
ATOM      4  C   UNL     1       5.374   4.240  16.754  0.00  0.00    +0.000 A 
ATOM      5  C   UNL     1       5.746   3.786  15.486  0.00  0.00    +0.000 A 
ATOM      6  C   UNL     1       6.754   4.455  14.810  0.00  0.00    +0.000 A 
ATOM      7  N   UNL     1       7.409   5.525  15.307  0.00  0.00    +0.000 NA
ATOM      8  H   UNL     1       8.047   6.988  17.918  0.00  0.00    +0.000 HD
ATOM      9  H   UNL     1       8.404   7.343  16.311  0.00  0.00    +0.000 HD
ENDROOT
BRANCH   4  10
ATOM     10  C   UNL     1       4.236   3.567  17.485  0.00  0.00    +0.000 C 
BRANCH  10  11
ATOM     11  C   UNL     1       4.326   3.586  18.995  0.00  0.00    +0.000 C 
ATOM     12  O   UNL     1       3.660   4.322  19.706  0.00  0.00    +0.000 OA
BRANCH  11  13
ATOM     13  O   UNL     1       5.186   2.674  19.508  0.00  0.00    +0.000 OA
ATOM     14  H   UNL     1       5.979   2.529  18.955  0.00  0.00    +0.000 HD
ENDBRANCH  11  13
ENDBRANCH  10  11
ENDBRANCH   4  10
TORSDOF 3
ENDMDL
MODEL 2
REMARK VINA RESULT:      -5.3      1.286      1.989
REMARK  Name = 
REMARK  3 active torsions:
REMARK  status: ('A' for Active; 'I' for Inactive)
REMARK    1  A    between atoms: C_4  and  C_5
REMARK    2  A    between atoms: C_5  and  C_6
REMARK    3  A    between atoms: C_6  and  O_8
REMARK                            x       y       z     vdW  Elec       q    Type
REMARK                         _______ _______ _______ _____ _____    ______ ____
ROOT
ATOM      1  N   UNL     1       7.402   5.209  14.792  0.00  0.00    +0.000 N 
ATOM      2  C   UNL     1       6.275   5.295  15.603  0.00  0.00    +0.000 A 
ATOM      3  C   UNL     1       5.664   4.146  16.090  0.00  0.00    +0.000 A 
ATOM      4  C   UNL     1       4.541   4.260  16.920  0.00  0.00    +0.000 A 
ATOM      5  C   UNL     1       4.118   5.544  17.270  0.00  0.00    +0.000 A 
ATOM      6  C   UNL     1       4.801   6.633  16.753  0.00  0.00    +0.000 A 
ATOM      7  N   UNL     1       5.857   6.530  15.919  0.00  0.00    +0.000 NA
ATOM      8  H   UNL     1       7.254   4.608  13.991  0.00  0.00    +0.000 HD
ATOM      9  H   UNL     1       7.648   6.157  14.520  0.00  0.00    +0.000 HD
ENDROOT
BRANCH   4  10
ATOM     10  C   UNL     1       3.853   3.055  17.518  0.00  0.00    +0.000 C 
BRANCH  10  11
ATOM     11  C   UNL     1       4.036   2.869  19.008  0.00  0.00    +0.000 C 
ATOM     12  O   UNL     1       3.126   2.596  19.776  0.00  0.00    +0.000 OA
BRANCH  11  13
ATOM     13  O   UNL     1       5.319   2.988  19.425  0.00  0.00    +0.000 OA
ATOM     14  H   UNL     1       5.453   2.730  20.358  0.00  0.00    +0.000 HD
ENDBRANCH  11  13
ENDBRANCH  10  11
ENDBRANCH   4  10
TORSDOF 3
ENDMDL
MODEL 3
REMARK VINA RESULT:      -5.3      3.101      4.041
REMARK  Name = 
REMARK  3 active torsions:
REMARK  status: ('A' for Active; 'I' for Inactive)
REMARK    1  A    between atoms: C_4  and  C_5
REMARK    2  A    between atoms: C_5  and  C_6
REMARK    3  A    between atoms: C_6  and  O_8
REMARK                            x       y       z     vdW  Elec       q    Type
REMARK                         _______ _______ _______ _____ _____    ______ ____
ROOT
ATOM      1  N   UNL     1       8.180   5.962  19.618  0.00  0.00    +0.000 N 
ATOM      2  C   UNL     1       7.055   5.544  18.915  0.00  0.00    +0.000 A 
ATOM      3  C   UNL     1       6.949   5.772  17.547  0.00  0.00    +0.000 A 
ATOM      4  C   UNL     1       5.814   5.325  16.859  0.00  0.00    +0.000 A 
ATOM      5  C   UNL     1       4.855   4.610  17.579  0.00  0.00    +0.000 A 
ATOM      6  C   UNL     1       5.054   4.414  18.936  0.00  0.00    +0.000 A 
ATOM      7  N   UNL     1       6.124   4.878  19.614  0.00  0.00    +0.000 NA
ATOM      8  H   UNL     1       8.376   6.945  19.480  0.00  0.00    +0.000 HD
ATOM      9  H   UNL     1       8.022   5.735  20.596  0.00  0.00    +0.000 HD
ENDROOT
BRANCH   4  10
ATOM     10  C   UNL     1       5.653   5.501  15.367  0.00  0.00    +0.000 C 
BRANCH  10  11
ATOM     11  C   UNL     1       6.693   4.814  14.510  0.00  0.00    +0.000 C 
ATOM     12  O   UNL     1       7.739   5.338  14.159  0.00  0.00    +0.000 OA
BRANCH  11  13
ATOM     13  O   UNL     1       6.388   3.533  14.192  0.00  0.00    +0.000 OA
ATOM     14  H   UNL     1       6.828   2.873  14.761  0.00  0.00    +0.000 HD
ENDBRANCH  11  13
ENDBRANCH  10  11
ENDBRANCH   4  10
TORSDOF 3
ENDMDL
MODEL 4
REMARK VINA RESULT:      -5.3      1.012      1.138
REMARK  Name = 
REMARK  3 active torsions:
REMARK  status: ('A' for Active; 'I' for Inactive)
REMARK    1  A    between atoms: C_4  and  C_5
REMARK    2  A    between atoms: C_5  and  C_6
REMARK    3  A    between atoms: C_6  and  O_8
REMARK                            x       y       z     vdW  Elec       q    Type
REMARK                         _______ _______ _______ _____ _____    ______ ____
ROOT
ATOM      1  N   UNL     1       7.445   7.451  17.243  0.00  0.00    +0.000 N 
ATOM      2  C   UNL     1       6.850   6.297  16.746  0.00  0.00    +0.000 A 
ATOM      3  C   UNL     1       5.661   5.824  17.288  0.00  0.00    +0.000 A 
ATOM      4  C   UNL     1       5.071   4.669  16.757  0.00  0.00    +0.000 A 
ATOM      5  C   UNL     1       5.687   4.072  15.654  0.00  0.00    +0.000 A 
ATOM      6  C   UNL     1       6.860   4.625  15.168  0.00  0.00    +0.000 A 
ATOM      7  N   UNL     1       7.456   5.712  15.702  0.00  0.00    +0.000 NA
ATOM      8  H   UNL     1       7.589   7.410  18.244  0.00  0.00    +0.000 HD
ATOM      9  H   UNL     1       8.317   7.581  16.735  0.00  0.00    +0.000 HD
ENDROOT
BRANCH   4  10
ATOM     10  C   UNL     1       3.759   4.123  17.269  0.00  0.00    +0.000 C 
BRANCH  10  11
ATOM     11  C   UNL     1       3.845   2.824  18.038  0.00  0.00    +0.000 C 
ATOM     12  O   UNL     1       3.148   1.849  17.805  0.00  0.00    +0.000 OA
BRANCH  11  13
ATOM     13  O   UNL     1       4.802   2.813  18.996  0.00  0.00    +0.000 OA
ATOM     14  H   UNL     1       5.588   2.285  18.758  0.00  0.00    +0.000 HD
ENDBRANCH  11  13
ENDBRANCH  10  11
ENDBRANCH   4  10
TORSDOF 3
ENDMDL
MODEL 5
REMARK VINA RESULT:      -5.2      3.591      4.701
REMARK  Name = 
REMARK  3 active torsions:
REMARK  status: ('A' for Active; 'I' for Inactive)
REMARK    1  A    between atoms: C_4  and  C_5
REMARK    2  A    between atoms: C_5  and  C_6
REMARK    3  A    between atoms: C_6  and  O_8
REMARK                            x       y       z     vdW  Elec       q    Type
REMARK                         _______ _______ _______ _____ _____    ______ ____
ROOT
ATOM      1  N   UNL     1       2.117   1.932  18.506  0.00  0.00    +0.000 N 
ATOM      2  C   UNL     1       3.063   2.949  18.440  0.00  0.00    +0.000 A 
ATOM      3  C   UNL     1       3.936   3.035  17.362  0.00  0.00    +0.000 A 
ATOM      4  C   UNL     1       4.869   4.079  17.310  0.00  0.00    +0.000 A 
ATOM      5  C   UNL     1       4.837   5.031  18.331  0.00  0.00    +0.000 A 
ATOM      6  C   UNL     1       3.919   4.875  19.357  0.00  0.00    +0.000 A 
ATOM      7  N   UNL     1       3.047   3.848  19.435  0.00  0.00    +0.000 NA
ATOM      8  H   UNL     1       2.531   1.014  18.405  0.00  0.00    +0.000 HD
ATOM      9  H   UNL     1       1.627   2.036  19.391  0.00  0.00    +0.000 HD
ENDROOT
BRANCH   4  10
ATOM     10  C   UNL     1       5.817   4.258  16.148  0.00  0.00    +0.000 C 
BRANCH  10  11
ATOM     11  C   UNL     1       7.140   4.914  16.477  0.00  0.00    +0.000 C 
ATOM     12  O   UNL     1       7.416   6.068  16.189  0.00  0.00    +0.000 OA
BRANCH  11  13
ATOM     13  O   UNL     1       7.993   4.120  17.167  0.00  0.00    +0.000 OA
ATOM     14  H   UNL     1       7.870   3.167  16.992  0.00  0.00    +0.000 HD
ENDBRANCH  11  13
ENDBRANCH  10  11
ENDBRANCH   4  10
TORSDOF 3
ENDMDL
MODEL 6
REMARK VINA RESULT:      -5.2      1.645      1.704
REMARK  Name = 
REMARK  3 active torsions:
REMARK  status: ('A' for Active; 'I' for Inactive)
REMARK    1  A    between atoms: C_4  and  C_5
REMARK    2  A    between atoms: C_5  and  C_6
REMARK    3  A    between atoms: C_6  and  O_8
REMARK                            x       y       z     vdW  Elec       q    Type
REMARK                         _______ _______ _______ _____ _____    ______ ____
ROOT
ATOM      1  N   UNL     1       7.800   5.206  18.989  0.00  0.00    +0.000 N 
ATOM      2  C   UNL     1       7.015   4.782  17.922  0.00  0.00    +0.000 A 
ATOM      3  C   UNL     1       5.696   4.393  18.124  0.00  0.00    +0.000 A 
ATOM      4  C   UNL     1       4.921   3.986  17.030  0.00  0.00    +0.000 A 
ATOM      5  C   UNL     1       5.503   4.047  15.761  0.00  0.00    +0.000 A 
ATOM      6  C   UNL     1       6.819   4.467  15.653  0.00  0.00    +0.000 A 
ATOM      7  N   UNL     1       7.584   4.819  16.707  0.00  0.00    +0.000 NA
ATOM      8  H   UNL     1       7.817   4.534  19.745  0.00  0.00    +0.000 HD
ATOM      9  H   UNL     1       8.729   5.394  18.621  0.00  0.00    +0.000 HD
ENDROOT
BRANCH   4  10
ATOM     10  C   UNL     1       3.470   3.591  17.170  0.00  0.00    +0.000 C 
BRANCH  10  11
ATOM     11  C   UNL     1       3.188   2.459  18.133  0.00  0.00    +0.000 C 
ATOM     12  O   UNL     1       2.308   2.490  18.979  0.00  0.00    +0.000 OA
BRANCH  11  13
ATOM     13  O   UNL     1       3.975   1.372  17.951  0.00  0.00    +0.000 OA
ATOM     14  H   UNL     1       3.611   0.555  18.344  0.00  0.00    +0.000 HD
ENDBRANCH  11  13
ENDBRANCH  10  11
ENDBRANCH   4  10
TORSDOF 3
ENDMDL
MODEL 7
REMARK VINA RESULT:      -5.2      3.630      4.724
REMARK  Name = 
REMARK  3 active torsions:
REMARK  status: ('A' for Active; 'I' for Inactive)
REMARK    1  A    between atoms: C_4  and  C_5
REMARK    2  A    between atoms: C_5  and  C_6
REMARK    3  A    between atoms: C_6  and  O_8
REMARK                            x       y       z     vdW  Elec       q    Type
REMARK                         _______ _______ _______ _____ _____    ______ ____
ROOT
ATOM      1  N   UNL     1       1.982   1.586  18.670  0.00  0.00    +0.000 N 
ATOM      2  C   UNL     1       2.576   2.784  18.289  0.00  0.00    +0.000 A 
ATOM      3  C   UNL     1       3.739   2.787  17.529  0.00  0.00    +0.000 A 
ATOM      4  C   UNL     1       4.309   4.007  17.143  0.00  0.00    +0.000 A 
ATOM      5  C   UNL     1       3.638   5.180  17.498  0.00  0.00    +0.000 A 
ATOM      6  C   UNL     1       2.473   5.080  18.240  0.00  0.00    +0.000 A 
ATOM      7  N   UNL     1       1.942   3.909  18.652  0.00  0.00    +0.000 NA
ATOM      8  H   UNL     1       2.629   0.969  19.143  0.00  0.00    +0.000 HD
ATOM      9  H   UNL     1       1.181   1.820  19.251  0.00  0.00    +0.000 HD
ENDROOT
BRANCH   4  10
ATOM     10  C   UNL     1       5.547   4.084  16.281  0.00  0.00    +0.000 C 
BRANCH  10  11
ATOM     11  C   UNL     1       6.791   4.605  16.966  0.00  0.00    +0.000 C 
ATOM     12  O   UNL     1       7.565   5.401  16.457  0.00  0.00    +0.000 OA
BRANCH  11  13
ATOM     13  O   UNL     1       6.961   4.143  18.228  0.00  0.00    +0.000 OA
ATOM     14  H   UNL     1       6.983   3.168  18.289  0.00  0.00    +0.000 HD
ENDBRANCH  11  13
ENDBRANCH  10  11
ENDBRANCH   4  10
TORSDOF 3
ENDMDL
MODEL 8
REMARK VINA RESULT:      -5.2      1.662      2.399
REMARK  Name = 
REMARK  3 active torsions:
REMARK  status: ('A' for Active; 'I' for Inactive)
REMARK    1  A    between atoms: C_4  and  C_5
REMARK    2  A    between atoms: C_5  and  C_6
REMARK    3  A    between atoms: C_6  and  O_8
REMARK                            x       y       z     vdW  Elec       q    Type
REMARK                         _______ _______ _______ _____ _____    ______ ____
ROOT
ATOM      1  N   UNL     1       6.678   4.217  13.948  0.00  0.00    +0.000 N 
ATOM      2  C   UNL     1       6.513   4.336  15.324  0.00  0.00    +0.000 A 
ATOM      3  C   UNL     1       5.269   4.131  15.908  0.00  0.00    +0.000 A 
ATOM      4  C   UNL     1       5.133   4.240  17.298  0.00  0.00    +0.000 A 
ATOM      5  C   UNL     1       6.284   4.497  18.047  0.00  0.00    +0.000 A 
ATOM      6  C   UNL     1       7.486   4.668  17.380  0.00  0.00    +0.000 A 
ATOM      7  N   UNL     1       7.616   4.606  16.038  0.00  0.00    +0.000 NA
ATOM      8  H   UNL     1       6.026   4.792  13.431  0.00  0.00    +0.000 HD
ATOM      9  H   UNL     1       7.645   4.452  13.741  0.00  0.00    +0.000 HD
ENDROOT
BRANCH   4  10
ATOM     10  C   UNL     1       3.821   3.988  18.004  0.00  0.00    +0.000 C 
BRANCH  10  11
ATOM     11  C   UNL     1       3.223   2.613  17.805  0.00  0.00    +0.000 C 
ATOM     12  O   UNL     1       2.104   2.417  17.357  0.00  0.00    +0.000 OA
BRANCH  11  13
ATOM     13  O   UNL     1       4.058   1.596  18.127  0.00  0.00    +0.000 OA
ATOM     14  H   UNL     1       4.345   1.066  17.358  0.00  0.00    +0.000 HD
ENDBRANCH  11  13
ENDBRANCH  10  11
ENDBRANCH   4  10
TORSDOF 3
ENDMDL
MODEL 9
REMARK VINA RESULT:      -5.1      3.620      4.627
REMARK  Name = 
REMARK  3 active torsions:
REMARK  status: ('A' for Active; 'I' for Inactive)
REMARK    1  A    between atoms: C_4  and  C_5
REMARK    2  A    between atoms: C_5  and  C_6
REMARK    3  A    between atoms: C_6  and  O_8
REMARK                            x       y       z     vdW  Elec       q    Type
REMARK                         _______ _______ _______ _____ _____    ______ ____
ROOT
ATOM      1  N   UNL     1       2.420   2.460  19.030  0.00  0.00    +0.000 N 
ATOM      2  C   UNL     1       3.117   3.472  18.379  0.00  0.00    +0.000 A 
ATOM      3  C   UNL     1       4.094   3.168  17.439  0.00  0.00    +0.000 A 
ATOM      4  C   UNL     1       4.770   4.205  16.784  0.00  0.00    +0.000 A 
ATOM      5  C   UNL     1       4.382   5.517  17.069  0.00  0.00    +0.000 A 
ATOM      6  C   UNL     1       3.383   5.725  18.006  0.00  0.00    +0.000 A 
ATOM      7  N   UNL     1       2.758   4.731  18.672  0.00  0.00    +0.000 NA
ATOM      8  H   UNL     1       3.037   1.791  19.472  0.00  0.00    +0.000 HD
ATOM      9  H   UNL     1       1.797   2.907  19.697  0.00  0.00    +0.000 HD
ENDROOT
BRANCH   4  10
ATOM     10  C   UNL     1       5.812   3.947  15.721  0.00  0.00    +0.000 C 
BRANCH  10  11
ATOM     11  C   UNL     1       7.150   4.617  15.940  0.00  0.00    +0.000 C 
ATOM     12  O   UNL     1       7.884   4.378  16.887  0.00  0.00    +0.000 OA
BRANCH  11  13
ATOM     13  O   UNL     1       7.499   5.487  14.962  0.00  0.00    +0.000 OA
ATOM     14  H   UNL     1       6.875   6.232  14.860  0.00  0.00    +0.000 HD
ENDBRANCH  11  13
ENDBRANCH  10  11
ENDBRANCH   4  10
TORSDOF 3
ENDMDL
