MODEL 1
REMARK VINA RESULT:      -7.9      0.000      0.000
REMARK  Name = 
REMARK  5 active torsions:
REMARK  status: ('A' for Active; 'I' for Inactive)
REMARK    1  A    between atoms: C_2  and  C_3
REMARK    2  A    between atoms: C_7  and  C_8
REMARK    3  A    between atoms: N_16  and  C_17
REMARK    4  A    between atoms: C_17  and  C_18
REMARK    5  A    between atoms: C_18  and  C_19
REMARK                            x       y       z     vdW  Elec       q    Type
REMARK                         _______ _______ _______ _____ _____    ______ ____
ROOT
ATOM      1  O   UNL     1       6.255   5.576  19.870  0.00  0.00    +0.000 OA
ATOM      2  C   UNL     1       5.395   5.435  19.004  0.00  0.00    +0.000 C 
ATOM      3  N   UNL     1       5.688   5.315  17.645  0.00  0.00    +0.000 N 
ATOM      4  C   UNL     1       7.084   5.460  17.213  0.00  0.00    +0.000 C 
ATOM      5  C   UNL     1       7.510   4.298  16.292  0.00  0.00    +0.000 C 
ATOM      6  N   UNL     1       6.608   4.062  15.137  0.00  0.00    +0.000 NA
ATOM      7  C   UNL     1       5.243   3.857  15.665  0.00  0.00    +0.000 C 
ATOM      8  C   UNL     1       4.737   4.992  16.572  0.00  0.00    +0.000 C 
ENDROOT
BRANCH   2   9
ATOM      9  C   UNL     1       3.981   5.335  19.450  0.00  0.00    +0.000 A 
ATOM     10  C   UNL     1       3.247   6.513  19.602  0.00  0.00    +0.000 A 
ATOM     11  C   UNL     1       1.956   6.463  20.129  0.00  0.00    +0.000 A 
ATOM     12  C   UNL     1       1.408   5.240  20.524  0.00  0.00    +0.000 A 
ATOM     13  C   UNL     1       2.124   4.047  20.345  0.00  0.00    +0.000 A 
ATOM     14  C   UNL     1       3.393   4.101  19.746  0.00  0.00    +0.000 A 
BRANCH  13  15
ATOM     15  C   UNL     1       1.603   2.726  20.854  0.00  0.00    +0.000 C 
ATOM     16  F   UNL     1       0.974   2.809  22.058  0.00  0.00    +0.000 F 
ATOM     17  F   UNL     1       0.718   2.145  20.001  0.00  0.00    +0.000 F 
ATOM     18  F   UNL     1       2.609   1.820  21.021  0.00  0.00    +0.000 F 
ENDBRANCH  13  15
ENDBRANCH   2   9
BRANCH   6  19
ATOM     19  C   UNL     1       6.617   5.162  14.153  0.00  0.00    +0.000 C 
BRANCH  19  20
ATOM     20  C   UNL     1       7.353   4.813  12.852  0.00  0.00    +0.000 C 
BRANCH  20  21
ATOM     21  C   UNL     1       6.737   3.607  12.186  0.00  0.00    +0.000 A 
ATOM     22  C   UNL     1       7.553   2.593  11.667  0.00  0.00    +0.000 A 
ATOM     23  C   UNL     1       6.988   1.484  11.037  0.00  0.00    +0.000 A 
ATOM     24  C   UNL     1       5.603   1.383  10.917  0.00  0.00    +0.000 A 
ATOM     25  C   UNL     1       4.783   2.393  11.420  0.00  0.00    +0.000 A 
ATOM     26  C   UNL     1       5.348   3.503  12.050  0.00  0.00    +0.000 A 
ENDBRANCH  20  21
ENDBRANCH  19  20
ENDBRANCH   6  19
TORSDOF 5
ENDMDL
MODEL 2
REMARK VINA RESULT:      -7.8      0.530      1.088
REMARK  Name = 
REMARK  5 active torsions:
REMARK  status: ('A' for Active; 'I' for Inactive)
REMARK    1  A    between atoms: C_2  and  C_3
REMARK    2  A    between atoms: C_7  and  C_8
REMARK    3  A    between atoms: N_16  and  C_17
REMARK    4  A    between atoms: C_17  and  C_18
REMARK    5  A    between atoms: C_18  and  C_19
REMARK                            x       y       z     vdW  Elec       q    Type
REMARK                         _______ _______ _______ _____ _____    ______ ____
ROOT
ATOM      1  O   UNL     1       6.089   5.762  19.789  0.00  0.00    +0.000 OA
ATOM      2  C   UNL     1       5.262   5.527  18.912  0.00  0.00    +0.000 C 
ATOM      3  N   UNL     1       5.593   5.382  17.565  0.00  0.00    +0.000 N 
ATOM      4  C   UNL     1       6.985   5.616  17.155  0.00  0.00    +0.000 C 
ATOM      5  C   UNL     1       7.516   4.458  16.286  0.00  0.00    +0.000 C 
ATOM      6  N   UNL     1       6.661   4.115  15.122  0.00  0.00    +0.000 NA
ATOM      7  C   UNL     1       5.304   3.826  15.631  0.00  0.00    +0.000 C 
ATOM      8  C   UNL     1       4.694   4.950  16.486  0.00  0.00    +0.000 C 
ENDROOT
BRANCH   2   9
ATOM      9  C   UNL     1       3.849   5.336  19.334  0.00  0.00    +0.000 A 
ATOM     10  C   UNL     1       3.157   6.432  19.851  0.00  0.00    +0.000 A 
ATOM     11  C   UNL     1       1.869   6.261  20.362  0.00  0.00    +0.000 A 
ATOM     12  C   UNL     1       1.285   4.992  20.376  0.00  0.00    +0.000 A 
ATOM     13  C   UNL     1       1.958   3.891  19.828  0.00  0.00    +0.000 A 
ATOM     14  C   UNL     1       3.223   4.088  19.250  0.00  0.00    +0.000 A 
BRANCH  13  15
ATOM     15  C   UNL     1       1.399   2.493  19.920  0.00  0.00    +0.000 C 
ATOM     16  F   UNL     1       1.231   2.050  21.195  0.00  0.00    +0.000 F 
ATOM     17  F   UNL     1       0.189   2.370  19.311  0.00  0.00    +0.000 F 
ATOM     18  F   UNL     1       2.215   1.584  19.314  0.00  0.00    +0.000 F 
ENDBRANCH  13  15
ENDBRANCH   2   9
BRANCH   6  19
ATOM     19  C   UNL     1       6.610   5.177  14.099  0.00  0.00    +0.000 C 
BRANCH  19  20
ATOM     20  C   UNL     1       7.361   4.821  12.810  0.00  0.00    +0.000 C 
BRANCH  20  21
ATOM     21  C   UNL     1       6.752   3.613  12.142  0.00  0.00    +0.000 A 
ATOM     22  C   UNL     1       5.360   3.503  12.015  0.00  0.00    +0.000 A 
ATOM     23  C   UNL     1       4.792   2.380  11.412  0.00  0.00    +0.000 A 
ATOM     24  C   UNL     1       5.611   1.356  10.938  0.00  0.00    +0.000 A 
ATOM     25  C   UNL     1       6.996   1.453  11.070  0.00  0.00    +0.000 A 
ATOM     26  C   UNL     1       7.565   2.574  11.673  0.00  0.00    +0.000 A 
ENDBRANCH  20  21
ENDBRANCH  19  20
ENDBRANCH   6  19
TORSDOF 5
ENDMDL
MODEL 3
REMARK VINA RESULT:      -7.7      1.373      1.780
REMARK  Name = 
REMARK  5 active torsions:
REMARK  status: ('A' for Active; 'I' for Inactive)
REMARK    1  A    between atoms: C_2  and  C_3
REMARK    2  A    between atoms: C_7  and  C_8
REMARK    3  A    between atoms: N_16  and  C_17
REMARK    4  A    between atoms: C_17  and  C_18
REMARK    5  A    between atoms: C_18  and  C_19
REMARK                            x       y       z     vdW  Elec       q    Type
REMARK                         _______ _______ _______ _____ _____    ______ ____
ROOT
ATOM      1  O   UNL     1       3.835   6.894  18.675  0.00  0.00    +0.000 OA
ATOM      2  C   UNL     1       3.828   5.847  18.035  0.00  0.00    +0.000 C 
ATOM      3  N   UNL     1       4.671   5.606  16.949  0.00  0.00    +0.000 N 
ATOM      4  C   UNL     1       5.545   6.692  16.485  0.00  0.00    +0.000 C 
ATOM      5  C   UNL     1       7.002   6.211  16.327  0.00  0.00    +0.000 C 
ATOM      6  N   UNL     1       7.164   4.993  15.494  0.00  0.00    +0.000 NA
ATOM      7  C   UNL     1       6.309   3.935  16.071  0.00  0.00    +0.000 C 
ATOM      8  C   UNL     1       4.831   4.332  16.233  0.00  0.00    +0.000 C 
ENDROOT
BRANCH   2   9
ATOM      9  C   UNL     1       2.907   4.771  18.486  0.00  0.00    +0.000 A 
ATOM     10  C   UNL     1       1.864   4.391  17.640  0.00  0.00    +0.000 A 
ATOM     11  C   UNL     1       0.914   3.468  18.080  0.00  0.00    +0.000 A 
ATOM     12  C   UNL     1       0.995   2.943  19.373  0.00  0.00    +0.000 A 
ATOM     13  C   UNL     1       2.057   3.293  20.219  0.00  0.00    +0.000 A 
ATOM     14  C   UNL     1       3.048   4.166  19.739  0.00  0.00    +0.000 A 
BRANCH  13  15
ATOM     15  C   UNL     1       2.117   2.825  21.652  0.00  0.00    +0.000 C 
ATOM     16  F   UNL     1       0.967   2.243  22.089  0.00  0.00    +0.000 F 
ATOM     17  F   UNL     1       3.109   1.921  21.869  0.00  0.00    +0.000 F 
ATOM     18  F   UNL     1       2.360   3.858  22.508  0.00  0.00    +0.000 F 
ENDBRANCH  13  15
ENDBRANCH   2   9
BRANCH   6  19
ATOM     19  C   UNL     1       6.828   5.206  14.073  0.00  0.00    +0.000 C 
BRANCH  19  20
ATOM     20  C   UNL     1       7.489   4.193  13.129  0.00  0.00    +0.000 C 
BRANCH  20  21
ATOM     21  C   UNL     1       6.452   3.412  12.359  0.00  0.00    +0.000 A 
ATOM     22  C   UNL     1       6.795   2.201  11.741  0.00  0.00    +0.000 A 
ATOM     23  C   UNL     1       5.843   1.484  11.015  0.00  0.00    +0.000 A 
ATOM     24  C   UNL     1       4.544   1.976  10.896  0.00  0.00    +0.000 A 
ATOM     25  C   UNL     1       4.197   3.185  11.498  0.00  0.00    +0.000 A 
ATOM     26  C   UNL     1       5.148   3.903  12.224  0.00  0.00    +0.000 A 
ENDBRANCH  20  21
ENDBRANCH  19  20
ENDBRANCH   6  19
TORSDOF 5
ENDMDL
MODEL 4
REMARK VINA RESULT:      -7.5      3.541      7.934
REMARK  Name = 
REMARK  5 active torsions:
REMARK  status: ('A' for Active; 'I' for Inactive)
REMARK    1  A    between atoms: C_2  and  C_3
REMARK    2  A    between atoms: C_7  and  C_8
REMARK    3  A    between atoms: N_16  and  C_17
REMARK    4  A    between atoms: C_17  and  C_18
REMARK    5  A    between atoms: C_18  and  C_19
REMARK                            x       y       z     vdW  Elec       q    Type
REMARK                         _______ _______ _______ _____ _____    ______ ____
ROOT
ATOM      1  O   UNL     1       7.814   4.119  16.711  0.00  0.00    +0.000 OA
ATOM      2  C   UNL     1       6.871   4.550  16.052  0.00  0.00    +0.000 C 
ATOM      3  N   UNL     1       5.743   5.140  16.624  0.00  0.00    +0.000 N 
ATOM      4  C   UNL     1       5.629   5.164  18.088  0.00  0.00    +0.000 C 
ATOM      5  C   UNL     1       5.285   6.577  18.601  0.00  0.00    +0.000 C 
ATOM      6  N   UNL     1       4.100   7.198  17.957  0.00  0.00    +0.000 NA
ATOM      7  C   UNL     1       4.330   7.198  16.497  0.00  0.00    +0.000 C 
ATOM      8  C   UNL     1       4.652   5.814  15.906  0.00  0.00    +0.000 C 
ENDROOT
BRANCH   2   9
ATOM      9  C   UNL     1       6.978   4.479  14.572  0.00  0.00    +0.000 A 
ATOM     10  C   UNL     1       7.953   5.252  13.938  0.00  0.00    +0.000 A 
ATOM     11  C   UNL     1       8.005   5.298  12.544  0.00  0.00    +0.000 A 
ATOM     12  C   UNL     1       7.070   4.590  11.785  0.00  0.00    +0.000 A 
ATOM     13  C   UNL     1       6.107   3.784  12.411  0.00  0.00    +0.000 A 
ATOM     14  C   UNL     1       6.111   3.687  13.812  0.00  0.00    +0.000 A 
BRANCH  13  15
ATOM     15  C   UNL     1       5.023   3.090  11.626  0.00  0.00    +0.000 C 
ATOM     16  F   UNL     1       5.360   1.840  11.208  0.00  0.00    +0.000 F 
ATOM     17  F   UNL     1       3.866   2.958  12.329  0.00  0.00    +0.000 F 
ATOM     18  F   UNL     1       4.695   3.785  10.499  0.00  0.00    +0.000 F 
ENDBRANCH  13  15
ENDBRANCH   2   9
BRANCH   6  19
ATOM     19  C   UNL     1       2.833   6.513  18.277  0.00  0.00    +0.000 C 
BRANCH  19  20
ATOM     20  C   UNL     1       2.605   6.322  19.782  0.00  0.00    +0.000 C 
BRANCH  20  21
ATOM     21  C   UNL     1       2.107   4.930  20.084  0.00  0.00    +0.000 A 
ATOM     22  C   UNL     1       2.295   4.372  21.356  0.00  0.00    +0.000 A 
ATOM     23  C   UNL     1       1.851   3.080  21.634  0.00  0.00    +0.000 A 
ATOM     24  C   UNL     1       1.219   2.333  20.641  0.00  0.00    +0.000 A 
ATOM     25  C   UNL     1       1.037   2.875  19.369  0.00  0.00    +0.000 A 
ATOM     26  C   UNL     1       1.483   4.167  19.090  0.00  0.00    +0.000 A 
ENDBRANCH  20  21
ENDBRANCH  19  20
ENDBRANCH   6  19
TORSDOF 5
ENDMDL
MODEL 5
REMARK VINA RESULT:      -7.4      3.550      7.795
REMARK  Name = 
REMARK  5 active torsions:
REMARK  status: ('A' for Active; 'I' for Inactive)
REMARK    1  A    between atoms: C_2  and  C_3
REMARK    2  A    between atoms: C_7  and  C_8
REMARK    3  A    between atoms: N_16  and  C_17
REMARK    4  A    between atoms: C_17  and  C_18
REMARK    5  A    between atoms: C_18  and  C_19
REMARK                            x       y       z     vdW  Elec       q    Type
REMARK                         _______ _______ _______ _____ _____    ______ ____
ROOT
ATOM      1  O   UNL     1       7.820   4.102  16.678  0.00  0.00    +0.000 OA
ATOM      2  C   UNL     1       6.882   4.553  16.027  0.00  0.00    +0.000 C 
ATOM      3  N   UNL     1       5.773   5.169  16.606  0.00  0.00    +0.000 N 
ATOM      4  C   UNL     1       5.672   5.198  18.072  0.00  0.00    +0.000 C 
ATOM      5  C   UNL     1       5.364   6.620  18.585  0.00  0.00    +0.000 C 
ATOM      6  N   UNL     1       4.188   7.266  17.950  0.00  0.00    +0.000 NA
ATOM      7  C   UNL     1       4.405   7.258  16.488  0.00  0.00    +0.000 C 
ATOM      8  C   UNL     1       4.691   5.866  15.897  0.00  0.00    +0.000 C 
ENDROOT
BRANCH   2   9
ATOM      9  C   UNL     1       6.975   4.477  14.545  0.00  0.00    +0.000 A 
ATOM     10  C   UNL     1       7.956   5.234  13.902  0.00  0.00    +0.000 A 
ATOM     11  C   UNL     1       7.996   5.276  12.507  0.00  0.00    +0.000 A 
ATOM     12  C   UNL     1       7.043   4.580  11.758  0.00  0.00    +0.000 A 
ATOM     13  C   UNL     1       6.074   3.791  12.394  0.00  0.00    +0.000 A 
ATOM     14  C   UNL     1       6.088   3.697  13.795  0.00  0.00    +0.000 A 
BRANCH  13  15
ATOM     15  C   UNL     1       4.972   3.113  11.620  0.00  0.00    +0.000 C 
ATOM     16  F   UNL     1       4.601   3.777  10.493  0.00  0.00    +0.000 F 
ATOM     17  F   UNL     1       5.302   1.852  11.229  0.00  0.00    +0.000 F 
ATOM     18  F   UNL     1       3.838   2.985  12.367  0.00  0.00    +0.000 F 
ENDBRANCH  13  15
ENDBRANCH   2   9
BRANCH   6  19
ATOM     19  C   UNL     1       2.909   6.610  18.282  0.00  0.00    +0.000 C 
BRANCH  19  20
ATOM     20  C   UNL     1       2.840   6.102  19.729  0.00  0.00    +0.000 C 
BRANCH  20  21
ATOM     21  C   UNL     1       2.205   4.735  19.794  0.00  0.00    +0.000 A 
ATOM     22  C   UNL     1       1.865   4.056  18.616  0.00  0.00    +0.000 A 
ATOM     23  C   UNL     1       1.265   2.798  18.673  0.00  0.00    +0.000 A 
ATOM     24  C   UNL     1       0.994   2.212  19.909  0.00  0.00    +0.000 A 
ATOM     25  C   UNL     1       1.319   2.885  21.086  0.00  0.00    +0.000 A 
ATOM     26  C   UNL     1       1.919   4.143  21.030  0.00  0.00    +0.000 A 
ENDBRANCH  20  21
ENDBRANCH  19  20
ENDBRANCH   6  19
TORSDOF 5
ENDMDL
MODEL 6
REMARK VINA RESULT:      -7.4      3.774      8.122
REMARK  Name = 
REMARK  5 active torsions:
REMARK  status: ('A' for Active; 'I' for Inactive)
REMARK    1  A    between atoms: C_2  and  C_3
REMARK    2  A    between atoms: C_7  and  C_8
REMARK    3  A    between atoms: N_16  and  C_17
REMARK    4  A    between atoms: C_17  and  C_18
REMARK    5  A    between atoms: C_18  and  C_19
REMARK                            x       y       z     vdW  Elec       q    Type
REMARK                         _______ _______ _______ _____ _____    ______ ____
ROOT
ATOM      1  O   UNL     1       7.782   5.403  13.308  0.00  0.00    +0.000 OA
ATOM      2  C   UNL     1       6.917   4.631  13.713  0.00  0.00    +0.000 C 
ATOM      3  N   UNL     1       6.425   4.649  15.019  0.00  0.00    +0.000 N 
ATOM      4  C   UNL     1       7.036   5.570  15.987  0.00  0.00    +0.000 C 
ATOM      5  C   UNL     1       5.965   6.391  16.733  0.00  0.00    +0.000 C 
ATOM      6  N   UNL     1       4.891   5.582  17.361  0.00  0.00    +0.000 NA
ATOM      7  C   UNL     1       4.286   4.741  16.307  0.00  0.00    +0.000 C 
ATOM      8  C   UNL     1       5.291   3.869  15.536  0.00  0.00    +0.000 C 
ENDROOT
BRANCH   2   9
ATOM      9  C   UNL     1       6.337   3.673  12.736  0.00  0.00    +0.000 A 
ATOM     10  C   UNL     1       7.142   2.631  12.270  0.00  0.00    +0.000 A 
ATOM     11  C   UNL     1       6.668   1.784  11.267  0.00  0.00    +0.000 A 
ATOM     12  C   UNL     1       5.401   1.992  10.716  0.00  0.00    +0.000 A 
ATOM     13  C   UNL     1       4.572   3.015  11.200  0.00  0.00    +0.000 A 
ATOM     14  C   UNL     1       5.030   3.814  12.260  0.00  0.00    +0.000 A 
BRANCH  13  15
ATOM     15  C   UNL     1       3.244   3.329  10.558  0.00  0.00    +0.000 C 
ATOM     16  F   UNL     1       2.174   2.836  11.238  0.00  0.00    +0.000 F 
ATOM     17  F   UNL     1       3.028   4.665  10.422  0.00  0.00    +0.000 F 
ATOM     18  F   UNL     1       3.158   2.809   9.300  0.00  0.00    +0.000 F 
ENDBRANCH  13  15
ENDBRANCH   2   9
BRANCH   6  19
ATOM     19  C   UNL     1       5.367   4.742  18.477  0.00  0.00    +0.000 C 
BRANCH  19  20
ATOM     20  C   UNL     1       4.636   5.008  19.799  0.00  0.00    +0.000 C 
BRANCH  20  21
ATOM     21  C   UNL     1       3.333   4.250  19.861  0.00  0.00    +0.000 A 
ATOM     22  C   UNL     1       3.234   2.968  19.304  0.00  0.00    +0.000 A 
ATOM     23  C   UNL     1       2.027   2.270  19.346  0.00  0.00    +0.000 A 
ATOM     24  C   UNL     1       0.908   2.851  19.940  0.00  0.00    +0.000 A 
ATOM     25  C   UNL     1       0.994   4.131  20.487  0.00  0.00    +0.000 A 
ATOM     26  C   UNL     1       2.200   4.830  20.445  0.00  0.00    +0.000 A 
ENDBRANCH  20  21
ENDBRANCH  19  20
ENDBRANCH   6  19
TORSDOF 5
ENDMDL
MODEL 7
REMARK VINA RESULT:      -7.4      5.161      9.005
REMARK  Name = 
REMARK  5 active torsions:
REMARK  status: ('A' for Active; 'I' for Inactive)
REMARK    1  A    between atoms: C_2  and  C_3
REMARK    2  A    between atoms: C_7  and  C_8
REMARK    3  A    between atoms: N_16  and  C_17
REMARK    4  A    between atoms: C_17  and  C_18
REMARK    5  A    between atoms: C_18  and  C_19
REMARK                            x       y       z     vdW  Elec       q    Type
REMARK                         _______ _______ _______ _____ _____    ______ ____
ROOT
ATOM      1  O   UNL     1       2.633   5.591  20.709  0.00  0.00    +0.000 OA
ATOM      2  C   UNL     1       2.703   6.086  19.588  0.00  0.00    +0.000 C 
ATOM      3  N   UNL     1       1.987   7.221  19.205  0.00  0.00    +0.000 N 
ATOM      4  C   UNL     1       1.027   7.798  20.155  0.00  0.00    +0.000 C 
ATOM      5  C   UNL     1       1.235   9.318  20.309  0.00  0.00    +0.000 C 
ATOM      6  N   UNL     1       1.252  10.074  19.031  0.00  0.00    +0.000 NA
ATOM      7  C   UNL     1       2.290   9.474  18.167  0.00  0.00    +0.000 C 
ATOM      8  C   UNL     1       2.131   7.960  17.943  0.00  0.00    +0.000 C 
ENDROOT
BRANCH   2   9
ATOM      9  C   UNL     1       3.646   5.466  18.621  0.00  0.00    +0.000 A 
ATOM     10  C   UNL     1       3.149   4.517  17.725  0.00  0.00    +0.000 A 
ATOM     11  C   UNL     1       4.026   3.832  16.883  0.00  0.00    +0.000 A 
ATOM     12  C   UNL     1       5.400   4.079  16.952  0.00  0.00    +0.000 A 
ATOM     13  C   UNL     1       5.905   5.054  17.825  0.00  0.00    +0.000 A 
ATOM     14  C   UNL     1       5.006   5.789  18.614  0.00  0.00    +0.000 A 
BRANCH  13  15
ATOM     15  C   UNL     1       7.388   5.271  17.996  0.00  0.00    +0.000 C 
ATOM     16  F   UNL     1       8.152   4.252  17.519  0.00  0.00    +0.000 F 
ATOM     17  F   UNL     1       7.829   6.401  17.379  0.00  0.00    +0.000 F 
ATOM     18  F   UNL     1       7.727   5.408  19.310  0.00  0.00    +0.000 F 
ENDBRANCH  13  15
ENDBRANCH   2   9
BRANCH   6  19
ATOM     19  C   UNL     1      -0.051  10.081  18.338  0.00  0.00    +0.000 C 
BRANCH  19  20
ATOM     20  C   UNL     1      -1.103  10.962  19.024  0.00  0.00    +0.000 C 
BRANCH  20  21
ATOM     21  C   UNL     1      -2.348  11.078  18.180  0.00  0.00    +0.000 A 
ATOM     22  C   UNL     1      -2.360  10.588  16.866  0.00  0.00    +0.000 A 
ATOM     23  C   UNL     1      -3.504  10.707  16.078  0.00  0.00    +0.000 A 
ATOM     24  C   UNL     1      -4.644  11.321  16.594  0.00  0.00    +0.000 A 
ATOM     25  C   UNL     1      -4.638  11.821  17.896  0.00  0.00    +0.000 A 
ATOM     26  C   UNL     1      -3.494  11.704  18.685  0.00  0.00    +0.000 A 
ENDBRANCH  20  21
ENDBRANCH  19  20
ENDBRANCH   6  19
TORSDOF 5
ENDMDL
MODEL 8
REMARK VINA RESULT:      -7.3      1.529      1.779
REMARK  Name = 
REMARK  5 active torsions:
REMARK  status: ('A' for Active; 'I' for Inactive)
REMARK    1  A    between atoms: C_2  and  C_3
REMARK    2  A    between atoms: C_7  and  C_8
REMARK    3  A    between atoms: N_16  and  C_17
REMARK    4  A    between atoms: C_17  and  C_18
REMARK    5  A    between atoms: C_18  and  C_19
REMARK                            x       y       z     vdW  Elec       q    Type
REMARK                         _______ _______ _______ _____ _____    ______ ____
ROOT
ATOM      1  O   UNL     1       3.171   7.927  17.165  0.00  0.00    +0.000 OA
ATOM      2  C   UNL     1       3.423   6.781  17.529  0.00  0.00    +0.000 C 
ATOM      3  N   UNL     1       4.469   6.023  17.002  0.00  0.00    +0.000 N 
ATOM      4  C   UNL     1       5.251   6.581  15.891  0.00  0.00    +0.000 C 
ATOM      5  C   UNL     1       6.765   6.482  16.165  0.00  0.00    +0.000 C 
ATOM      6  N   UNL     1       7.240   5.124  16.531  0.00  0.00    +0.000 NA
ATOM      7  C   UNL     1       6.452   4.671  17.696  0.00  0.00    +0.000 C 
ATOM      8  C   UNL     1       4.929   4.714  17.488  0.00  0.00    +0.000 C 
ENDROOT
BRANCH   2   9
ATOM      9  C   UNL     1       2.596   6.210  18.623  0.00  0.00    +0.000 A 
ATOM     10  C   UNL     1       2.299   7.018  19.723  0.00  0.00    +0.000 A 
ATOM     11  C   UNL     1       1.624   6.478  20.819  0.00  0.00    +0.000 A 
ATOM     12  C   UNL     1       1.266   5.127  20.824  0.00  0.00    +0.000 A 
ATOM     13  C   UNL     1       1.529   4.316  19.711  0.00  0.00    +0.000 A 
ATOM     14  C   UNL     1       2.142   4.887  18.584  0.00  0.00    +0.000 A 
BRANCH  13  15
ATOM     15  C   UNL     1       1.248   2.834  19.726  0.00  0.00    +0.000 C 
ATOM     16  F   UNL     1       0.866   2.359  20.942  0.00  0.00    +0.000 F 
ATOM     17  F   UNL     1       0.269   2.475  18.852  0.00  0.00    +0.000 F 
ATOM     18  F   UNL     1       2.347   2.110  19.372  0.00  0.00    +0.000 F 
ENDBRANCH  13  15
ENDBRANCH   2   9
BRANCH   6  19
ATOM     19  C   UNL     1       7.133   4.149  15.428  0.00  0.00    +0.000 C 
BRANCH  19  20
ATOM     20  C   UNL     1       7.152   4.795  14.037  0.00  0.00    +0.000 C 
BRANCH  20  21
ATOM     21  C   UNL     1       6.432   3.934  13.028  0.00  0.00    +0.000 A 
ATOM     22  C   UNL     1       7.155   3.078  12.186  0.00  0.00    +0.000 A 
ATOM     23  C   UNL     1       6.495   2.292  11.242  0.00  0.00    +0.000 A 
ATOM     24  C   UNL     1       5.107   2.360  11.128  0.00  0.00    +0.000 A 
ATOM     25  C   UNL     1       4.381   3.217  11.954  0.00  0.00    +0.000 A 
ATOM     26  C   UNL     1       5.040   4.005  12.898  0.00  0.00    +0.000 A 
ENDBRANCH  20  21
ENDBRANCH  19  20
ENDBRANCH   6  19
TORSDOF 5
ENDMDL
MODEL 9
REMARK VINA RESULT:      -7.3      5.105      9.003
REMARK  Name = 
REMARK  5 active torsions:
REMARK  status: ('A' for Active; 'I' for Inactive)
REMARK    1  A    between atoms: C_2  and  C_3
REMARK    2  A    between atoms: C_7  and  C_8
REMARK    3  A    between atoms: N_16  and  C_17
REMARK    4  A    between atoms: C_17  and  C_18
REMARK    5  A    between atoms: C_18  and  C_19
REMARK                            x       y       z     vdW  Elec       q    Type
REMARK                         _______ _______ _______ _____ _____    ______ ____
ROOT
ATOM      1  O   UNL     1       2.497   5.516  20.653  0.00  0.00    +0.000 OA
ATOM      2  C   UNL     1       2.631   6.037  19.549  0.00  0.00    +0.000 C 
ATOM      3  N   UNL     1       1.965   7.202  19.166  0.00  0.00    +0.000 N 
ATOM      4  C   UNL     1       0.983   7.785  20.090  0.00  0.00    +0.000 C 
ATOM      5  C   UNL     1       1.229   9.293  20.293  0.00  0.00    +0.000 C 
ATOM      6  N   UNL     1       1.324  10.080  19.038  0.00  0.00    +0.000 NA
ATOM      7  C   UNL     1       2.380   9.471  18.204  0.00  0.00    +0.000 C 
ATOM      8  C   UNL     1       2.187   7.969  17.932  0.00  0.00    +0.000 C 
ENDROOT
BRANCH   2   9
ATOM      9  C   UNL     1       3.595   5.413  18.607  0.00  0.00    +0.000 A 
ATOM     10  C   UNL     1       3.120   4.457  17.706  0.00  0.00    +0.000 A 
ATOM     11  C   UNL     1       4.017   3.769  16.888  0.00  0.00    +0.000 A 
ATOM     12  C   UNL     1       5.388   4.020  16.986  0.00  0.00    +0.000 A 
ATOM     13  C   UNL     1       5.873   5.001  17.863  0.00  0.00    +0.000 A 
ATOM     14  C   UNL     1       4.955   5.739  18.628  0.00  0.00    +0.000 A 
BRANCH  13  15
ATOM     15  C   UNL     1       7.351   5.223  18.066  0.00  0.00    +0.000 C 
ATOM     16  F   UNL     1       7.706   5.413  19.365  0.00  0.00    +0.000 F 
ATOM     17  F   UNL     1       8.106   4.187  17.611  0.00  0.00    +0.000 F 
ATOM     18  F   UNL     1       7.790   6.326  17.394  0.00  0.00    +0.000 F 
ENDBRANCH  13  15
ENDBRANCH   2   9
BRANCH   6  19
ATOM     19  C   UNL     1       0.053  10.145  18.291  0.00  0.00    +0.000 C 
BRANCH  19  20
ATOM     20  C   UNL     1      -1.125  10.656  19.131  0.00  0.00    +0.000 C 
BRANCH  20  21
ATOM     21  C   UNL     1      -2.343  10.892  18.272  0.00  0.00    +0.000 A 
ATOM     22  C   UNL     1      -3.399  11.683  18.745  0.00  0.00    +0.000 A 
ATOM     23  C   UNL     1      -4.533  11.891  17.960  0.00  0.00    +0.000 A 
ATOM     24  C   UNL     1      -4.623  11.304  16.698  0.00  0.00    +0.000 A 
ATOM     25  C   UNL     1      -3.582  10.507  16.224  0.00  0.00    +0.000 A 
ATOM     26  C   UNL     1      -2.447  10.298  17.009  0.00  0.00    +0.000 A 
ENDBRANCH  20  21
ENDBRANCH  19  20
ENDBRANCH   6  19
TORSDOF 5
ENDMDL
