MODEL 1
REMARK VINA RESULT:      -8.1      0.000      0.000
REMARK  Name = 
REMARK  7 active torsions:
REMARK  status: ('A' for Active; 'I' for Inactive)
REMARK    1  A    between atoms: C_1  and  C_2
REMARK    2  A    between atoms: C_2  and  C_3
REMARK    3  A    between atoms: C_3  and  N_4
REMARK    4  A    between atoms: C_5  and  C_7
REMARK    5  A    between atoms: C_8  and  C_9
REMARK    6  A    between atoms: C_9  and  O_10
REMARK    7  A    between atoms: N_24  and  C_25
REMARK                            x       y       z     vdW  Elec       q    Type
REMARK                         _______ _______ _______ _____ _____    ______ ____
ROOT
ATOM      1  C   UNL     1       3.726   4.941  16.668  0.00  0.00    +0.000 C 
ATOM      2  C   UNL     1       3.303   4.189  17.966  0.00  0.00    +0.000 C 
ATOM      3  C   UNL     1       3.303   5.266  19.073  0.00  0.00    +0.000 C 
ATOM      4  C   UNL     1       4.683   5.320  19.772  0.00  0.00    +0.000 C 
ATOM      5  N   UNL     1       5.777   5.811  18.914  0.00  0.00    +0.000 N 
ATOM      6  C   UNL     1       5.490   6.420  17.686  0.00  0.00    +0.000 A 
ATOM      7  C   UNL     1       6.487   6.933  16.941  0.00  0.00    +0.000 A 
ATOM      8  C   UNL     1       7.857   6.807  17.365  0.00  0.00    +0.000 A 
ATOM      9  C   UNL     1       8.157   6.216  18.525  0.00  0.00    +0.000 A 
ATOM     10  C   UNL     1       7.074   5.704  19.405  0.00  0.00    +0.000 A 
ATOM     11  O   UNL     1       7.365   5.212  20.494  0.00  0.00    +0.000 OA
ATOM     12  C   UNL     1       4.057   6.357  17.165  0.00  0.00    +0.000 C 
ATOM     13  N   UNL     1       3.160   6.490  18.310  0.00  0.00    +0.000 N 
ATOM     14  C   UNL     1       2.513   7.654  18.598  0.00  0.00    +0.000 C 
ATOM     15  O   UNL     1       2.642   8.607  17.822  0.00  0.00    +0.000 OA
ATOM     16  N   UNL     1       1.727   7.669  19.724  0.00  0.00    +0.000 N 
ATOM     17  H   UNL     1       1.942   7.017  20.466  0.00  0.00    +0.000 HD
ENDROOT
BRANCH  16  18
ATOM     18  C   UNL     1       0.922   8.779  20.120  0.00  0.00    +0.000 A 
ATOM     19  C   UNL     1       0.173   9.529  19.206  0.00  0.00    +0.000 A 
ATOM     20  C   UNL     1      -0.422  10.722  19.598  0.00  0.00    +0.000 A 
ATOM     21  F   UNL     1      -1.068  11.458  18.687  0.00  0.00    +0.000 F 
ATOM     22  C   UNL     1      -0.331  11.173  20.906  0.00  0.00    +0.000 A 
ATOM     23  C   UNL     1       0.318  10.384  21.855  0.00  0.00    +0.000 A 
ATOM     24  C   UNL     1       0.925   9.188  21.460  0.00  0.00    +0.000 A 
ATOM     25  F   UNL     1       1.559   8.448  22.383  0.00  0.00    +0.000 F 
ENDBRANCH  16  18
BRANCH   1  27
ATOM     26  N   UNL     1       5.084   4.593  14.651  0.00  0.00    +0.000 N 
ATOM     27  C   UNL     1       4.857   4.222  15.956  0.00  0.00    +0.000 C 
ATOM     28  O   UNL     1       5.516   3.338  16.498  0.00  0.00    +0.000 OA
ATOM     29  H   UNL     1       4.402   5.157  14.157  0.00  0.00    +0.000 HD
BRANCH  26  30
ATOM     30  C   UNL     1       6.152   3.973  13.887  0.00  0.00    +0.000 C 
BRANCH  30  32
ATOM     31  C   UNL     1       6.797   2.819  11.740  0.00  0.00    +0.000 C 
ATOM     32  C   UNL     1       5.682   3.507  12.511  0.00  0.00    +0.000 C 
ENDBRANCH  30  32
ENDBRANCH  26  30
ENDBRANCH   1  27
BRANCH   2  33
ATOM     33  C   UNL     1       1.934   3.547  17.781  0.00  0.00    +0.000 C 
BRANCH  33  34
ATOM     34  O   UNL     1       2.093   2.156  17.536  0.00  0.00    +0.000 OA
ATOM     35  H   UNL     1       1.335   1.867  16.997  0.00  0.00    +0.000 HD
ENDBRANCH  33  34
ENDBRANCH   2  33
TORSDOF 6
ENDMDL
MODEL 2
REMARK VINA RESULT:      -7.5      0.727      1.458
REMARK  Name = 
REMARK  7 active torsions:
REMARK  status: ('A' for Active; 'I' for Inactive)
REMARK    1  A    between atoms: C_1  and  C_2
REMARK    2  A    between atoms: C_2  and  C_3
REMARK    3  A    between atoms: C_3  and  N_4
REMARK    4  A    between atoms: C_5  and  C_7
REMARK    5  A    between atoms: C_8  and  C_9
REMARK    6  A    between atoms: C_9  and  O_10
REMARK    7  A    between atoms: N_24  and  C_25
REMARK                            x       y       z     vdW  Elec       q    Type
REMARK                         _______ _______ _______ _____ _____    ______ ____
ROOT
ATOM      1  C   UNL     1       3.749   5.044  16.594  0.00  0.00    +0.000 C 
ATOM      2  C   UNL     1       3.277   4.288  17.873  0.00  0.00    +0.000 C 
ATOM      3  C   UNL     1       3.290   5.350  18.995  0.00  0.00    +0.000 C 
ATOM      4  C   UNL     1       4.658   5.350  19.721  0.00  0.00    +0.000 C 
ATOM      5  N   UNL     1       5.783   5.816  18.891  0.00  0.00    +0.000 N 
ATOM      6  C   UNL     1       5.540   6.451  17.666  0.00  0.00    +0.000 A 
ATOM      7  C   UNL     1       6.567   6.941  16.947  0.00  0.00    +0.000 A 
ATOM      8  C   UNL     1       7.924   6.766  17.395  0.00  0.00    +0.000 A 
ATOM      9  C   UNL     1       8.183   6.149  18.553  0.00  0.00    +0.000 A 
ATOM     10  C   UNL     1       7.067   5.661  19.405  0.00  0.00    +0.000 A 
ATOM     11  O   UNL     1       7.321   5.146  20.492  0.00  0.00    +0.000 OA
ATOM     12  C   UNL     1       4.116   6.442  17.117  0.00  0.00    +0.000 C 
ATOM     13  N   UNL     1       3.202   6.588  18.246  0.00  0.00    +0.000 N 
ATOM     14  C   UNL     1       2.587   7.768  18.538  0.00  0.00    +0.000 C 
ATOM     15  O   UNL     1       2.762   8.727  17.778  0.00  0.00    +0.000 OA
ATOM     16  N   UNL     1       1.780   7.794  19.649  0.00  0.00    +0.000 N 
ATOM     17  H   UNL     1       1.960   7.126  20.386  0.00  0.00    +0.000 HD
ENDROOT
BRANCH  16  18
ATOM     18  C   UNL     1       1.004   8.924  20.045  0.00  0.00    +0.000 A 
ATOM     19  C   UNL     1       0.943   9.368  21.371  0.00  0.00    +0.000 A 
ATOM     20  C   UNL     1       0.015  10.331  21.747  0.00  0.00    +0.000 A 
ATOM     21  F   UNL     1      -0.073  10.683  23.035  0.00  0.00    +0.000 F 
ATOM     22  C   UNL     1      -0.836  10.909  20.817  0.00  0.00    +0.000 A 
ATOM     23  C   UNL     1      -0.714  10.558  19.473  0.00  0.00    +0.000 A 
ATOM     24  C   UNL     1       0.212   9.583  19.095  0.00  0.00    +0.000 A 
ATOM     25  F   UNL     1       0.305   9.245  17.799  0.00  0.00    +0.000 F 
ENDBRANCH  16  18
BRANCH   1  27
ATOM     26  N   UNL     1       5.092   4.635  14.578  0.00  0.00    +0.000 N 
ATOM     27  C   UNL     1       4.870   4.298  15.894  0.00  0.00    +0.000 C 
ATOM     28  O   UNL     1       5.526   3.423  16.454  0.00  0.00    +0.000 OA
ATOM     29  H   UNL     1       4.412   5.191  14.074  0.00  0.00    +0.000 HD
BRANCH  26  30
ATOM     30  C   UNL     1       6.151   3.987  13.824  0.00  0.00    +0.000 C 
BRANCH  30  32
ATOM     31  C   UNL     1       6.454   2.420  11.872  0.00  0.00    +0.000 C 
ATOM     32  C   UNL     1       5.716   3.639  12.402  0.00  0.00    +0.000 C 
ENDBRANCH  30  32
ENDBRANCH  26  30
ENDBRANCH   1  27
BRANCH   2  33
ATOM     33  C   UNL     1       1.893   3.694  17.653  0.00  0.00    +0.000 C 
BRANCH  33  34
ATOM     34  O   UNL     1       2.005   2.290  17.460  0.00  0.00    +0.000 OA
ATOM     35  H   UNL     1       2.813   2.132  16.939  0.00  0.00    +0.000 HD
ENDBRANCH  33  34
ENDBRANCH   2  33
TORSDOF 6
ENDMDL
MODEL 3
REMARK VINA RESULT:      -7.1      6.945      9.540
REMARK  Name = 
REMARK  7 active torsions:
REMARK  status: ('A' for Active; 'I' for Inactive)
REMARK    1  A    between atoms: C_1  and  C_2
REMARK    2  A    between atoms: C_2  and  C_3
REMARK    3  A    between atoms: C_3  and  N_4
REMARK    4  A    between atoms: C_5  and  C_7
REMARK    5  A    between atoms: C_8  and  C_9
REMARK    6  A    between atoms: C_9  and  O_10
REMARK    7  A    between atoms: N_24  and  C_25
REMARK                            x       y       z     vdW  Elec       q    Type
REMARK                         _______ _______ _______ _____ _____    ______ ____
ROOT
ATOM      1  C   UNL     1      -0.301  13.571  18.552  0.00  0.00    +0.000 C 
ATOM      2  C   UNL     1      -0.395  14.356  19.896  0.00  0.00    +0.000 C 
ATOM      3  C   UNL     1       0.986  14.175  20.565  0.00  0.00    +0.000 C 
ATOM      4  C   UNL     1       0.976  12.939  21.497  0.00  0.00    +0.000 C 
ATOM      5  N   UNL     1       0.843  11.651  20.792  0.00  0.00    +0.000 N 
ATOM      6  C   UNL     1       0.999  11.589  19.401  0.00  0.00    +0.000 A 
ATOM      7  C   UNL     1       0.951  10.400  18.772  0.00  0.00    +0.000 A 
ATOM      8  C   UNL     1       0.679   9.193  19.507  0.00  0.00    +0.000 A 
ATOM      9  C   UNL     1       0.510   9.228  20.832  0.00  0.00    +0.000 A 
ATOM     10  C   UNL     1       0.630  10.515  21.567  0.00  0.00    +0.000 A 
ATOM     11  O   UNL     1       0.526  10.521  22.792  0.00  0.00    +0.000 OA
ATOM     12  C   UNL     1       1.080  12.900  18.624  0.00  0.00    +0.000 C 
ATOM     13  N   UNL     1       1.834  13.853  19.434  0.00  0.00    +0.000 N 
ATOM     14  C   UNL     1       3.137  14.157  19.178  0.00  0.00    +0.000 C 
ATOM     15  O   UNL     1       3.674  13.656  18.184  0.00  0.00    +0.000 OA
ATOM     16  N   UNL     1       3.753  15.037  20.033  0.00  0.00    +0.000 N 
ATOM     17  H   UNL     1       3.394  15.118  20.975  0.00  0.00    +0.000 HD
ENDROOT
BRANCH  16  18
ATOM     18  C   UNL     1       5.084  15.520  19.859  0.00  0.00    +0.000 A 
ATOM     19  C   UNL     1       6.164  15.041  20.609  0.00  0.00    +0.000 A 
ATOM     20  C   UNL     1       7.394  15.685  20.559  0.00  0.00    +0.000 A 
ATOM     21  F   UNL     1       8.388  15.252  21.344  0.00  0.00    +0.000 F 
ATOM     22  C   UNL     1       7.598  16.779  19.734  0.00  0.00    +0.000 A 
ATOM     23  C   UNL     1       6.566  17.203  18.896  0.00  0.00    +0.000 A 
ATOM     24  C   UNL     1       5.325  16.563  18.953  0.00  0.00    +0.000 A 
ATOM     25  F   UNL     1       4.338  16.993  18.152  0.00  0.00    +0.000 F 
ENDBRANCH  16  18
BRANCH   1  27
ATOM     26  N   UNL     1      -1.729  12.199  17.099  0.00  0.00    +0.000 N 
ATOM     27  C   UNL     1      -1.475  12.624  18.383  0.00  0.00    +0.000 C 
ATOM     28  O   UNL     1      -2.178  12.275  19.328  0.00  0.00    +0.000 OA
ATOM     29  H   UNL     1      -1.285  12.660  16.314  0.00  0.00    +0.000 HD
BRANCH  26  30
ATOM     30  C   UNL     1      -2.823  11.282  16.834  0.00  0.00    +0.000 C 
BRANCH  30  32
ATOM     31  C   UNL     1      -3.035  10.068  14.633  0.00  0.00    +0.000 C 
ATOM     32  C   UNL     1      -2.379  10.079  16.005  0.00  0.00    +0.000 C 
ENDBRANCH  30  32
ENDBRANCH  26  30
ENDBRANCH   1  27
BRANCH   2  33
ATOM     33  C   UNL     1      -0.723  15.819  19.630  0.00  0.00    +0.000 C 
BRANCH  33  34
ATOM     34  O   UNL     1      -0.731  16.054  18.229  0.00  0.00    +0.000 OA
ATOM     35  H   UNL     1       0.187  16.235  17.958  0.00  0.00    +0.000 HD
ENDBRANCH  33  34
ENDBRANCH   2  33
TORSDOF 6
ENDMDL
MODEL 4
REMARK VINA RESULT:      -7.0      1.087      1.131
REMARK  Name = 
REMARK  7 active torsions:
REMARK  status: ('A' for Active; 'I' for Inactive)
REMARK    1  A    between atoms: C_1  and  C_2
REMARK    2  A    between atoms: C_2  and  C_3
REMARK    3  A    between atoms: C_3  and  N_4
REMARK    4  A    between atoms: C_5  and  C_7
REMARK    5  A    between atoms: C_8  and  C_9
REMARK    6  A    between atoms: C_9  and  O_10
REMARK    7  A    between atoms: N_24  and  C_25
REMARK                            x       y       z     vdW  Elec       q    Type
REMARK                         _______ _______ _______ _____ _____    ______ ____
ROOT
ATOM      1  C   UNL     1       3.253   4.691  17.109  0.00  0.00    +0.000 C 
ATOM      2  C   UNL     1       2.951   4.140  18.536  0.00  0.00    +0.000 C 
ATOM      3  C   UNL     1       3.114   5.354  19.478  0.00  0.00    +0.000 C 
ATOM      4  C   UNL     1       4.565   5.432  20.012  0.00  0.00    +0.000 C 
ATOM      5  N   UNL     1       5.572   5.748  18.983  0.00  0.00    +0.000 N 
ATOM      6  C   UNL     1       5.171   6.202  17.720  0.00  0.00    +0.000 A 
ATOM      7  C   UNL     1       6.096   6.560  16.810  0.00  0.00    +0.000 A 
ATOM      8  C   UNL     1       7.499   6.423  17.099  0.00  0.00    +0.000 A 
ATOM      9  C   UNL     1       7.907   5.976  18.291  0.00  0.00    +0.000 A 
ATOM     10  C   UNL     1       6.912   5.642  19.343  0.00  0.00    +0.000 A 
ATOM     11  O   UNL     1       7.306   5.285  20.452  0.00  0.00    +0.000 OA
ATOM     12  C   UNL     1       3.688   6.143  17.368  0.00  0.00    +0.000 C 
ATOM     13  N   UNL     1       2.930   6.472  18.573  0.00  0.00    +0.000 N 
ATOM     14  C   UNL     1       2.361   7.694  18.765  0.00  0.00    +0.000 C 
ATOM     15  O   UNL     1       2.437   8.528  17.856  0.00  0.00    +0.000 OA
ATOM     16  N   UNL     1       1.707   7.899  19.955  0.00  0.00    +0.000 N 
ATOM     17  H   UNL     1       1.982   7.341  20.752  0.00  0.00    +0.000 HD
ENDROOT
BRANCH  16  18
ATOM     18  C   UNL     1       0.992   9.090  20.278  0.00  0.00    +0.000 A 
ATOM     19  C   UNL     1       1.346  10.343  19.764  0.00  0.00    +0.000 A 
ATOM     20  C   UNL     1       0.762  11.499  20.268  0.00  0.00    +0.000 A 
ATOM     21  F   UNL     1       1.173  12.688  19.812  0.00  0.00    +0.000 F 
ATOM     22  C   UNL     1      -0.215  11.440  21.250  0.00  0.00    +0.000 A 
ATOM     23  C   UNL     1      -0.659  10.195  21.695  0.00  0.00    +0.000 A 
ATOM     24  C   UNL     1      -0.065   9.032  21.196  0.00  0.00    +0.000 A 
ATOM     25  F   UNL     1      -0.493   7.842  21.647  0.00  0.00    +0.000 F 
ENDBRANCH  16  18
BRANCH   1  27
ATOM     26  N   UNL     1       4.812   4.361  15.239  0.00  0.00    +0.000 N 
ATOM     27  C   UNL     1       4.270   3.828  16.387  0.00  0.00    +0.000 C 
ATOM     28  O   UNL     1       4.577   2.705  16.782  0.00  0.00    +0.000 OA
ATOM     29  H   UNL     1       4.394   5.180  14.814  0.00  0.00    +0.000 HD
BRANCH  26  30
ATOM     30  C   UNL     1       5.804   3.618  14.483  0.00  0.00    +0.000 C 
BRANCH  30  32
ATOM     31  C   UNL     1       6.771   3.944  12.177  0.00  0.00    +0.000 C 
ATOM     32  C   UNL     1       6.634   4.523  13.576  0.00  0.00    +0.000 C 
ENDBRANCH  30  32
ENDBRANCH  26  30
ENDBRANCH   1  27
BRANCH   2  33
ATOM     33  C   UNL     1       1.549   3.550  18.588  0.00  0.00    +0.000 C 
BRANCH  33  34
ATOM     34  O   UNL     1       0.950   3.862  19.838  0.00  0.00    +0.000 OA
ATOM     35  H   UNL     1       0.128   4.350  19.653  0.00  0.00    +0.000 HD
ENDBRANCH  33  34
ENDBRANCH   2  33
TORSDOF 6
ENDMDL
MODEL 5
REMARK VINA RESULT:      -6.9      2.188      3.327
REMARK  Name = 
REMARK  7 active torsions:
REMARK  status: ('A' for Active; 'I' for Inactive)
REMARK    1  A    between atoms: C_1  and  C_2
REMARK    2  A    between atoms: C_2  and  C_3
REMARK    3  A    between atoms: C_3  and  N_4
REMARK    4  A    between atoms: C_5  and  C_7
REMARK    5  A    between atoms: C_8  and  C_9
REMARK    6  A    between atoms: C_9  and  O_10
REMARK    7  A    between atoms: N_24  and  C_25
REMARK                            x       y       z     vdW  Elec       q    Type
REMARK                         _______ _______ _______ _____ _____    ______ ____
ROOT
ATOM      1  C   UNL     1       1.957   4.443  18.139  0.00  0.00    +0.000 C 
ATOM      2  C   UNL     1       2.045   4.674  19.678  0.00  0.00    +0.000 C 
ATOM      3  C   UNL     1       2.640   6.091  19.839  0.00  0.00    +0.000 C 
ATOM      4  C   UNL     1       4.182   6.019  19.945  0.00  0.00    +0.000 C 
ATOM      5  N   UNL     1       4.854   5.579  18.709  0.00  0.00    +0.000 N 
ATOM      6  C   UNL     1       4.142   5.518  17.503  0.00  0.00    +0.000 A 
ATOM      7  C   UNL     1       4.778   5.188  16.364  0.00  0.00    +0.000 A 
ATOM      8  C   UNL     1       6.174   4.836  16.379  0.00  0.00    +0.000 A 
ATOM      9  C   UNL     1       6.871   4.871  17.519  0.00  0.00    +0.000 A 
ATOM     10  C   UNL     1       6.216   5.302  18.782  0.00  0.00    +0.000 A 
ATOM     11  O   UNL     1       6.885   5.382  19.811  0.00  0.00    +0.000 OA
ATOM     12  C   UNL     1       2.628   5.694  17.549  0.00  0.00    +0.000 C 
ATOM     13  N   UNL     1       2.326   6.702  18.562  0.00  0.00    +0.000 N 
ATOM     14  C   UNL     1       2.000   7.984  18.240  0.00  0.00    +0.000 C 
ATOM     15  O   UNL     1       1.894   8.283  17.046  0.00  0.00    +0.000 OA
ATOM     16  N   UNL     1       1.776   8.852  19.281  0.00  0.00    +0.000 N 
ATOM     17  H   UNL     1       2.212   8.652  20.171  0.00  0.00    +0.000 HD
ENDROOT
BRANCH  16  18
ATOM     18  C   UNL     1       1.349  10.203  19.115  0.00  0.00    +0.000 A 
ATOM     19  C   UNL     1       2.135  11.168  18.476  0.00  0.00    +0.000 A 
ATOM     20  C   UNL     1       1.779  12.510  18.525  0.00  0.00    +0.000 A 
ATOM     21  F   UNL     1       2.587  13.420  17.970  0.00  0.00    +0.000 F 
ATOM     22  C   UNL     1       0.617  12.921  19.162  0.00  0.00    +0.000 A 
ATOM     23  C   UNL     1      -0.235  11.962  19.709  0.00  0.00    +0.000 A 
ATOM     24  C   UNL     1       0.128  10.612  19.669  0.00  0.00    +0.000 A 
ATOM     25  F   UNL     1      -0.695   9.704  20.214  0.00  0.00    +0.000 F 
ENDBRANCH  16  18
BRANCH   1  27
ATOM     26  N   UNL     1       3.243   2.439  18.741  0.00  0.00    +0.000 N 
ATOM     27  C   UNL     1       2.587   3.121  17.742  0.00  0.00    +0.000 C 
ATOM     28  O   UNL     1       2.542   2.692  16.591  0.00  0.00    +0.000 OA
ATOM     29  H   UNL     1       3.457   2.902  19.617  0.00  0.00    +0.000 HD
BRANCH  26  30
ATOM     30  C   UNL     1       3.869   1.157  18.465  0.00  0.00    +0.000 C 
BRANCH  30  32
ATOM     31  C   UNL     1       4.903   1.774  20.681  0.00  0.00    +0.000 C 
ATOM     32  C   UNL     1       4.830   0.734  19.573  0.00  0.00    +0.000 C 
ENDBRANCH  30  32
ENDBRANCH  26  30
ENDBRANCH   1  27
BRANCH   2  33
ATOM     33  C   UNL     1       0.665   4.549  20.310  0.00  0.00    +0.000 C 
BRANCH  33  34
ATOM     34  O   UNL     1       0.284   3.181  20.347  0.00  0.00    +0.000 OA
ATOM     35  H   UNL     1       0.989   2.694  20.810  0.00  0.00    +0.000 HD
ENDBRANCH  33  34
ENDBRANCH   2  33
TORSDOF 6
ENDMDL
MODEL 6
REMARK VINA RESULT:      -6.8      7.187      9.529
REMARK  Name = 
REMARK  7 active torsions:
REMARK  status: ('A' for Active; 'I' for Inactive)
REMARK    1  A    between atoms: C_1  and  C_2
REMARK    2  A    between atoms: C_2  and  C_3
REMARK    3  A    between atoms: C_3  and  N_4
REMARK    4  A    between atoms: C_5  and  C_7
REMARK    5  A    between atoms: C_8  and  C_9
REMARK    6  A    between atoms: C_9  and  O_10
REMARK    7  A    between atoms: N_24  and  C_25
REMARK                            x       y       z     vdW  Elec       q    Type
REMARK                         _______ _______ _______ _____ _____    ______ ____
ROOT
ATOM      1  C   UNL     1      -0.587  13.472  18.712  0.00  0.00    +0.000 C 
ATOM      2  C   UNL     1      -0.806  14.374  19.965  0.00  0.00    +0.000 C 
ATOM      3  C   UNL     1       0.491  14.234  20.793  0.00  0.00    +0.000 C 
ATOM      4  C   UNL     1       0.353  13.085  21.821  0.00  0.00    +0.000 C 
ATOM      5  N   UNL     1       0.267  11.742  21.220  0.00  0.00    +0.000 N 
ATOM      6  C   UNL     1       0.570  11.556  19.865  0.00  0.00    +0.000 A 
ATOM      7  C   UNL     1       0.562  10.316  19.339  0.00  0.00    +0.000 A 
ATOM      8  C   UNL     1       0.185   9.183  20.142  0.00  0.00    +0.000 A 
ATOM      9  C   UNL     1      -0.123   9.337  21.433  0.00  0.00    +0.000 A 
ATOM     10  C   UNL     1      -0.054  10.682  22.062  0.00  0.00    +0.000 A 
ATOM     11  O   UNL     1      -0.288  10.797  23.264  0.00  0.00    +0.000 OA
ATOM     12  C   UNL     1       0.764  12.791  18.991  0.00  0.00    +0.000 C 
ATOM     13  N   UNL     1       1.448  13.802  19.793  0.00  0.00    +0.000 N 
ATOM     14  C   UNL     1       2.777  14.065  19.654  0.00  0.00    +0.000 C 
ATOM     15  O   UNL     1       3.406  13.471  18.772  0.00  0.00    +0.000 OA
ATOM     16  N   UNL     1       3.318  15.009  20.492  0.00  0.00    +0.000 N 
ATOM     17  H   UNL     1       2.862  15.178  21.379  0.00  0.00    +0.000 HD
ENDROOT
BRANCH  16  18
ATOM     18  C   UNL     1       4.671  15.457  20.422  0.00  0.00    +0.000 A 
ATOM     19  C   UNL     1       5.091  16.444  19.524  0.00  0.00    +0.000 A 
ATOM     20  C   UNL     1       6.446  16.696  19.340  0.00  0.00    +0.000 A 
ATOM     21  F   UNL     1       6.823  17.591  18.420  0.00  0.00    +0.000 F 
ATOM     22  C   UNL     1       7.407  16.016  20.073  0.00  0.00    +0.000 A 
ATOM     23  C   UNL     1       7.002  15.109  21.051  0.00  0.00    +0.000 A 
ATOM     24  C   UNL     1       5.641  14.847  21.230  0.00  0.00    +0.000 A 
ATOM     25  F   UNL     1       5.269  13.959  22.164  0.00  0.00    +0.000 F 
ENDBRANCH  16  18
BRANCH   1  27
ATOM     26  N   UNL     1      -1.859  11.965  17.247  0.00  0.00    +0.000 N 
ATOM     27  C   UNL     1      -1.756  12.529  18.498  0.00  0.00    +0.000 C 
ATOM     28  O   UNL     1      -2.584  12.300  19.378  0.00  0.00    +0.000 OA
ATOM     29  H   UNL     1      -1.305  12.328  16.480  0.00  0.00    +0.000 HD
BRANCH  26  30
ATOM     30  C   UNL     1      -2.937  11.040  16.946  0.00  0.00    +0.000 C 
BRANCH  30  32
ATOM     31  C   UNL     1      -2.914  10.003  14.648  0.00  0.00    +0.000 C 
ATOM     32  C   UNL     1      -3.412  11.159  15.500  0.00  0.00    +0.000 C 
ENDBRANCH  30  32
ENDBRANCH  26  30
ENDBRANCH   1  27
BRANCH   2  33
ATOM     33  C   UNL     1      -1.070  15.811  19.539  0.00  0.00    +0.000 C 
BRANCH  33  34
ATOM     34  O   UNL     1      -0.596  16.007  18.214  0.00  0.00    +0.000 OA
ATOM     35  H   UNL     1       0.009  15.272  18.009  0.00  0.00    +0.000 HD
ENDBRANCH  33  34
ENDBRANCH   2  33
TORSDOF 6
ENDMDL
MODEL 7
REMARK VINA RESULT:      -6.8      2.827      4.592
REMARK  Name = 
REMARK  7 active torsions:
REMARK  status: ('A' for Active; 'I' for Inactive)
REMARK    1  A    between atoms: C_1  and  C_2
REMARK    2  A    between atoms: C_2  and  C_3
REMARK    3  A    between atoms: C_3  and  N_4
REMARK    4  A    between atoms: C_5  and  C_7
REMARK    5  A    between atoms: C_8  and  C_9
REMARK    6  A    between atoms: C_9  and  O_10
REMARK    7  A    between atoms: N_24  and  C_25
REMARK                            x       y       z     vdW  Elec       q    Type
REMARK                         _______ _______ _______ _____ _____    ______ ____
ROOT
ATOM      1  C   UNL     1       4.408   5.950  19.066  0.00  0.00    +0.000 C 
ATOM      2  C   UNL     1       3.873   5.936  17.602  0.00  0.00    +0.000 C 
ATOM      3  C   UNL     1       2.412   6.430  17.703  0.00  0.00    +0.000 C 
ATOM      4  C   UNL     1       1.448   5.231  17.874  0.00  0.00    +0.000 C 
ATOM      5  N   UNL     1       1.587   4.522  19.159  0.00  0.00    +0.000 N 
ATOM      6  C   UNL     1       2.332   5.090  20.201  0.00  0.00    +0.000 A 
ATOM      7  C   UNL     1       2.394   4.475  21.396  0.00  0.00    +0.000 A 
ATOM      8  C   UNL     1       1.749   3.204  21.600  0.00  0.00    +0.000 A 
ATOM      9  C   UNL     1       1.045   2.634  20.617  0.00  0.00    +0.000 A 
ATOM     10  C   UNL     1       0.898   3.322  19.308  0.00  0.00    +0.000 A 
ATOM     11  O   UNL     1       0.201   2.810  18.434  0.00  0.00    +0.000 OA
ATOM     12  C   UNL     1       3.171   6.328  19.897  0.00  0.00    +0.000 C 
ATOM     13  N   UNL     1       2.420   7.156  18.957  0.00  0.00    +0.000 N 
ATOM     14  C   UNL     1       1.749   8.276  19.347  0.00  0.00    +0.000 C 
ATOM     15  O   UNL     1       1.837   8.633  20.526  0.00  0.00    +0.000 OA
ATOM     16  N   UNL     1       1.045   8.951  18.380  0.00  0.00    +0.000 N 
ATOM     17  H   UNL     1       0.733   8.434  17.569  0.00  0.00    +0.000 HD
ENDROOT
BRANCH  16  18
ATOM     18  C   UNL     1       0.358  10.180  18.605  0.00  0.00    +0.000 A 
ATOM     19  C   UNL     1      -1.025  10.243  18.808  0.00  0.00    +0.000 A 
ATOM     20  C   UNL     1      -1.679  11.469  18.810  0.00  0.00    +0.000 A 
ATOM     21  F   UNL     1      -3.012  11.496  18.930  0.00  0.00    +0.000 F 
ATOM     22  C   UNL     1      -0.979  12.656  18.661  0.00  0.00    +0.000 A 
ATOM     23  C   UNL     1       0.413  12.619  18.569  0.00  0.00    +0.000 A 
ATOM     24  C   UNL     1       1.071  11.386  18.557  0.00  0.00    +0.000 A 
ATOM     25  F   UNL     1       2.408  11.368  18.451  0.00  0.00    +0.000 F 
ENDBRANCH  16  18
BRANCH   1  27
ATOM     26  N   UNL     1       4.332   3.496  19.131  0.00  0.00    +0.000 N 
ATOM     27  C   UNL     1       5.056   4.627  19.430  0.00  0.00    +0.000 C 
ATOM     28  O   UNL     1       6.149   4.563  19.987  0.00  0.00    +0.000 OA
ATOM     29  H   UNL     1       3.354   3.571  18.877  0.00  0.00    +0.000 HD
BRANCH  26  30
ATOM     30  C   UNL     1       4.870   2.181  19.429  0.00  0.00    +0.000 C 
BRANCH  30  32
ATOM     31  C   UNL     1       3.288   1.598  17.554  0.00  0.00    +0.000 C 
ATOM     32  C   UNL     1       4.095   1.067  18.728  0.00  0.00    +0.000 C 
ENDBRANCH  30  32
ENDBRANCH  26  30
ENDBRANCH   1  27
BRANCH   2  33
ATOM     33  C   UNL     1       4.729   6.834  16.719  0.00  0.00    +0.000 C 
BRANCH  33  34
ATOM     34  O   UNL     1       5.195   6.091  15.600  0.00  0.00    +0.000 OA
ATOM     35  H   UNL     1       6.160   6.214  15.551  0.00  0.00    +0.000 HD
ENDBRANCH  33  34
ENDBRANCH   2  33
TORSDOF 6
ENDMDL
MODEL 8
REMARK VINA RESULT:      -6.7      2.830      4.673
REMARK  Name = 
REMARK  7 active torsions:
REMARK  status: ('A' for Active; 'I' for Inactive)
REMARK    1  A    between atoms: C_1  and  C_2
REMARK    2  A    between atoms: C_2  and  C_3
REMARK    3  A    between atoms: C_3  and  N_4
REMARK    4  A    between atoms: C_5  and  C_7
REMARK    5  A    between atoms: C_8  and  C_9
REMARK    6  A    between atoms: C_9  and  O_10
REMARK    7  A    between atoms: N_24  and  C_25
REMARK                            x       y       z     vdW  Elec       q    Type
REMARK                         _______ _______ _______ _____ _____    ______ ____
ROOT
ATOM      1  C   UNL     1       4.444   5.902  19.001  0.00  0.00    +0.000 C 
ATOM      2  C   UNL     1       3.929   5.821  17.532  0.00  0.00    +0.000 C 
ATOM      3  C   UNL     1       2.471   6.327  17.587  0.00  0.00    +0.000 C 
ATOM      4  C   UNL     1       1.497   5.142  17.801  0.00  0.00    +0.000 C 
ATOM      5  N   UNL     1       1.612   4.494  19.120  0.00  0.00    +0.000 N 
ATOM      6  C   UNL     1       2.346   5.107  20.144  0.00  0.00    +0.000 A 
ATOM      7  C   UNL     1       2.386   4.549  21.369  0.00  0.00    +0.000 A 
ATOM      8  C   UNL     1       1.731   3.292  21.622  0.00  0.00    +0.000 A 
ATOM      9  C   UNL     1       1.038   2.680  20.657  0.00  0.00    +0.000 A 
ATOM     10  C   UNL     1       0.914   3.307  19.315  0.00  0.00    +0.000 A 
ATOM     11  O   UNL     1       0.228   2.757  18.455  0.00  0.00    +0.000 OA
ATOM     12  C   UNL     1       3.196   6.325  19.795  0.00  0.00    +0.000 C 
ATOM     13  N   UNL     1       2.465   7.111  18.806  0.00  0.00    +0.000 N 
ATOM     14  C   UNL     1       1.795   8.252  19.133  0.00  0.00    +0.000 C 
ATOM     15  O   UNL     1       1.867   8.664  20.296  0.00  0.00    +0.000 OA
ATOM     16  N   UNL     1       1.109   8.884  18.125  0.00  0.00    +0.000 N 
ATOM     17  H   UNL     1       0.806   8.331  17.334  0.00  0.00    +0.000 HD
ENDROOT
BRANCH  16  18
ATOM     18  C   UNL     1       0.426  10.126  18.282  0.00  0.00    +0.000 A 
ATOM     19  C   UNL     1       1.005  11.229  18.921  0.00  0.00    +0.000 A 
ATOM     20  C   UNL     1       0.235  12.340  19.241  0.00  0.00    +0.000 A 
ATOM     21  F   UNL     1       0.796  13.348  19.918  0.00  0.00    +0.000 F 
ATOM     22  C   UNL     1      -1.106  12.407  18.895  0.00  0.00    +0.000 A 
ATOM     23  C   UNL     1      -1.673  11.365  18.161  0.00  0.00    +0.000 A 
ATOM     24  C   UNL     1      -0.901  10.242  17.847  0.00  0.00    +0.000 A 
ATOM     25  F   UNL     1      -1.467   9.242  17.155  0.00  0.00    +0.000 F 
ENDBRANCH  16  18
BRANCH   1  27
ATOM     26  N   UNL     1       4.354   3.453  19.176  0.00  0.00    +0.000 N 
ATOM     27  C   UNL     1       5.078   4.594  19.437  0.00  0.00    +0.000 C 
ATOM     28  O   UNL     1       6.161   4.551  20.017  0.00  0.00    +0.000 OA
ATOM     29  H   UNL     1       3.381   3.521  18.901  0.00  0.00    +0.000 HD
BRANCH  26  30
ATOM     30  C   UNL     1       4.880   2.151  19.543  0.00  0.00    +0.000 C 
BRANCH  30  32
ATOM     31  C   UNL     1       3.356   1.518  17.637  0.00  0.00    +0.000 C 
ATOM     32  C   UNL     1       4.158   1.013  18.826  0.00  0.00    +0.000 C 
ENDBRANCH  30  32
ENDBRANCH  26  30
ENDBRANCH   1  27
BRANCH   2  33
ATOM     33  C   UNL     1       4.803   6.671  16.620  0.00  0.00    +0.000 C 
BRANCH  33  34
ATOM     34  O   UNL     1       5.263   5.880  15.532  0.00  0.00    +0.000 OA
ATOM     35  H   UNL     1       5.864   6.434  15.003  0.00  0.00    +0.000 HD
ENDBRANCH  33  34
ENDBRANCH   2  33
TORSDOF 6
ENDMDL
MODEL 9
REMARK VINA RESULT:      -6.6      5.381      8.380
REMARK  Name = 
REMARK  7 active torsions:
REMARK  status: ('A' for Active; 'I' for Inactive)
REMARK    1  A    between atoms: C_1  and  C_2
REMARK    2  A    between atoms: C_2  and  C_3
REMARK    3  A    between atoms: C_3  and  N_4
REMARK    4  A    between atoms: C_5  and  C_7
REMARK    5  A    between atoms: C_8  and  C_9
REMARK    6  A    between atoms: C_9  and  O_10
REMARK    7  A    between atoms: N_24  and  C_25
REMARK                            x       y       z     vdW  Elec       q    Type
REMARK                         _______ _______ _______ _____ _____    ______ ____
ROOT
ATOM      1  C   UNL     1      -1.007  11.967  18.895  0.00  0.00    +0.000 C 
ATOM      2  C   UNL     1      -1.357  11.881  20.412  0.00  0.00    +0.000 C 
ATOM      3  C   UNL     1      -0.004  12.020  21.145  0.00  0.00    +0.000 C 
ATOM      4  C   UNL     1       0.620  10.626  21.395  0.00  0.00    +0.000 C 
ATOM      5  N   UNL     1       1.045   9.925  20.170  0.00  0.00    +0.000 N 
ATOM      6  C   UNL     1       1.114  10.613  18.952  0.00  0.00    +0.000 A 
ATOM      7  C   UNL     1       1.574   9.987  17.852  0.00  0.00    +0.000 A 
ATOM      8  C   UNL     1       1.939   8.596  17.900  0.00  0.00    +0.000 A 
ATOM      9  C   UNL     1       1.866   7.913  19.047  0.00  0.00    +0.000 A 
ATOM     10  C   UNL     1       1.432   8.594  20.295  0.00  0.00    +0.000 A 
ATOM     11  O   UNL     1       1.424   7.966  21.352  0.00  0.00    +0.000 OA
ATOM     12  C   UNL     1       0.530  12.020  18.883  0.00  0.00    +0.000 C 
ATOM     13  N   UNL     1       0.816  12.685  20.151  0.00  0.00    +0.000 N 
ATOM     14  C   UNL     1       1.811  13.606  20.284  0.00  0.00    +0.000 C 
ATOM     15  O   UNL     1       2.448  13.933  19.276  0.00  0.00    +0.000 OA
ATOM     16  N   UNL     1       2.012  14.133  21.535  0.00  0.00    +0.000 N 
ATOM     17  H   UNL     1       1.723  13.587  22.336  0.00  0.00    +0.000 HD
ENDROOT
BRANCH  16  18
ATOM     18  C   UNL     1       2.956  15.163  21.825  0.00  0.00    +0.000 A 
ATOM     19  C   UNL     1       4.244  14.891  22.302  0.00  0.00    +0.000 A 
ATOM     20  C   UNL     1       5.051  15.921  22.771  0.00  0.00    +0.000 A 
ATOM     21  F   UNL     1       6.247  15.625  23.292  0.00  0.00    +0.000 F 
ATOM     22  C   UNL     1       4.624  17.239  22.735  0.00  0.00    +0.000 A 
ATOM     23  C   UNL     1       3.389  17.540  22.162  0.00  0.00    +0.000 A 
ATOM     24  C   UNL     1       2.573  16.505  21.698  0.00  0.00    +0.000 A 
ATOM     25  F   UNL     1       1.380  16.810  21.164  0.00  0.00    +0.000 F 
ENDBRANCH  16  18
BRANCH   1  27
ATOM     26  N   UNL     1      -1.846  11.042  16.780  0.00  0.00    +0.000 N 
ATOM     27  C   UNL     1      -1.623  10.818  18.119  0.00  0.00    +0.000 C 
ATOM     28  O   UNL     1      -1.934   9.756  18.655  0.00  0.00    +0.000 OA
ATOM     29  H   UNL     1      -1.789  11.982  16.406  0.00  0.00    +0.000 HD
BRANCH  26  30
ATOM     30  C   UNL     1      -2.420   9.999  15.948  0.00  0.00    +0.000 C 
BRANCH  30  32
ATOM     31  C   UNL     1      -3.424   9.936  13.636  0.00  0.00    +0.000 C 
ATOM     32  C   UNL     1      -3.518  10.532  15.031  0.00  0.00    +0.000 C 
ENDBRANCH  30  32
ENDBRANCH  26  30
ENDBRANCH   1  27
BRANCH   2  33
ATOM     33  C   UNL     1      -2.338  12.981  20.790  0.00  0.00    +0.000 C 
BRANCH  33  34
ATOM     34  O   UNL     1      -3.076  13.373  19.641  0.00  0.00    +0.000 OA
ATOM     35  H   UNL     1      -2.449  13.783  19.018  0.00  0.00    +0.000 HD
ENDBRANCH  33  34
ENDBRANCH   2  33
TORSDOF 6
ENDMDL
