MODEL 1
REMARK VINA RESULT:      -5.8      0.000      0.000
REMARK  Name = 
REMARK  6 active torsions:
REMARK  status: ('A' for Active; 'I' for Inactive)
REMARK    1  A    between atoms: C_2  and  C_3
REMARK    2  A    between atoms: C_3  and  N_4
REMARK    3  A    between atoms: N_4  and  C_5
REMARK    4  A    between atoms: C_5  and  C_6
REMARK    5  A    between atoms: C_5  and  C_7
REMARK    6  A    between atoms: C_7  and  C_8
REMARK                            x       y       z     vdW  Elec       q    Type
REMARK                         _______ _______ _______ _____ _____    ______ ____
ROOT
ATOM      1  C   UNL     1       4.868   3.972  17.099  0.00  0.00    +0.000 C 
ATOM      2  C   UNL     1       5.319   4.115  15.637  0.00  0.00    +0.000 C 
ENDROOT
BRANCH   1   3
ATOM      3  N   UNL     1       6.051   4.208  17.950  0.00  0.00    +0.000 NA
ATOM      4  H   UNL     1       5.811   4.902  18.660  0.00  0.00    +0.000 HD
BRANCH   3   5
ATOM      5  C   UNL     1       7.201   4.713  17.211  0.00  0.00    +0.000 C 
BRANCH   5   7
ATOM      6  C   UNL     1       7.597   7.285  17.826  0.00  0.00    +0.000 C 
ATOM      7  C   UNL     1       7.434   6.125  17.552  0.00  0.00    +0.000 C 
ENDBRANCH   5   7
ENDBRANCH   3   5
ENDBRANCH   1   3
BRANCH   1   8
ATOM      8  C   UNL     1       3.693   4.940  17.407  0.00  0.00    +0.000 C 
BRANCH   8   9
ATOM      9  C   UNL     1       2.814   4.492  18.556  0.00  0.00    +0.000 A 
ATOM     10  C   UNL     1       1.745   3.610  18.336  0.00  0.00    +0.000 A 
ATOM     11  C   UNL     1       0.903   3.240  19.384  0.00  0.00    +0.000 A 
ATOM     12  C   UNL     1       1.126   3.734  20.667  0.00  0.00    +0.000 A 
ATOM     13  C   UNL     1       2.210   4.577  20.907  0.00  0.00    +0.000 A 
ATOM     14  C   UNL     1       3.053   4.951  19.860  0.00  0.00    +0.000 A 
ENDBRANCH   8   9
ENDBRANCH   1   8
TORSDOF 5
ENDMDL
MODEL 2
REMARK VINA RESULT:      -5.7      0.795      1.521
REMARK  Name = 
REMARK  6 active torsions:
REMARK  status: ('A' for Active; 'I' for Inactive)
REMARK    1  A    between atoms: C_2  and  C_3
REMARK    2  A    between atoms: C_3  and  N_4
REMARK    3  A    between atoms: N_4  and  C_5
REMARK    4  A    between atoms: C_5  and  C_6
REMARK    5  A    between atoms: C_5  and  C_7
REMARK    6  A    between atoms: C_7  and  C_8
REMARK                            x       y       z     vdW  Elec       q    Type
REMARK                         _______ _______ _______ _____ _____    ______ ____
ROOT
ATOM      1  C   UNL     1       5.094   4.061  17.569  0.00  0.00    +0.000 C 
ATOM      2  C   UNL     1       5.206   4.220  16.044  0.00  0.00    +0.000 C 
ENDROOT
BRANCH   1   3
ATOM      3  N   UNL     1       6.450   4.218  18.129  0.00  0.00    +0.000 NA
ATOM      4  H   UNL     1       6.669   3.396  18.693  0.00  0.00    +0.000 HD
BRANCH   3   5
ATOM      5  C   UNL     1       6.588   5.390  18.987  0.00  0.00    +0.000 C 
BRANCH   5   7
ATOM      6  C   UNL     1       7.739   7.370  17.607  0.00  0.00    +0.000 C 
ATOM      7  C   UNL     1       7.211   6.489  18.234  0.00  0.00    +0.000 C 
ENDBRANCH   5   7
ENDBRANCH   3   5
ENDBRANCH   1   3
BRANCH   1   8
ATOM      8  C   UNL     1       4.073   5.077  18.151  0.00  0.00    +0.000 C 
BRANCH   8   9
ATOM      9  C   UNL     1       2.887   4.431  18.835  0.00  0.00    +0.000 A 
ATOM     10  C   UNL     1       2.564   4.755  20.162  0.00  0.00    +0.000 A 
ATOM     11  C   UNL     1       1.505   4.120  20.810  0.00  0.00    +0.000 A 
ATOM     12  C   UNL     1       0.746   3.166  20.137  0.00  0.00    +0.000 A 
ATOM     13  C   UNL     1       1.029   2.866  18.806  0.00  0.00    +0.000 A 
ATOM     14  C   UNL     1       2.090   3.498  18.155  0.00  0.00    +0.000 A 
ENDBRANCH   8   9
ENDBRANCH   1   8
TORSDOF 5
ENDMDL
MODEL 3
REMARK VINA RESULT:      -5.6      1.136      1.268
REMARK  Name = 
REMARK  6 active torsions:
REMARK  status: ('A' for Active; 'I' for Inactive)
REMARK    1  A    between atoms: C_2  and  C_3
REMARK    2  A    between atoms: C_3  and  N_4
REMARK    3  A    between atoms: N_4  and  C_5
REMARK    4  A    between atoms: C_5  and  C_6
REMARK    5  A    between atoms: C_5  and  C_7
REMARK    6  A    between atoms: C_7  and  C_8
REMARK                            x       y       z     vdW  Elec       q    Type
REMARK                         _______ _______ _______ _____ _____    ______ ____
ROOT
ATOM      1  C   UNL     1       5.294   4.181  17.743  0.00  0.00    +0.000 C 
ATOM      2  C   UNL     1       4.482   5.126  16.843  0.00  0.00    +0.000 C 
ENDROOT
BRANCH   1   3
ATOM      3  N   UNL     1       6.722   4.402  17.439  0.00  0.00    +0.000 NA
ATOM      4  H   UNL     1       7.189   3.496  17.384  0.00  0.00    +0.000 HD
BRANCH   3   5
ATOM      5  C   UNL     1       7.411   5.193  18.452  0.00  0.00    +0.000 C 
BRANCH   5   7
ATOM      6  C   UNL     1       7.675   7.706  17.580  0.00  0.00    +0.000 C 
ATOM      7  C   UNL     1       7.564   6.579  17.985  0.00  0.00    +0.000 C 
ENDBRANCH   5   7
ENDBRANCH   3   5
ENDBRANCH   1   3
BRANCH   1   8
ATOM      8  C   UNL     1       4.946   4.417  19.238  0.00  0.00    +0.000 C 
BRANCH   8   9
ATOM      9  C   UNL     1       3.540   3.997  19.614  0.00  0.00    +0.000 A 
ATOM     10  C   UNL     1       3.077   2.707  19.314  0.00  0.00    +0.000 A 
ATOM     11  C   UNL     1       1.765   2.336  19.611  0.00  0.00    +0.000 A 
ATOM     12  C   UNL     1       0.906   3.244  20.225  0.00  0.00    +0.000 A 
ATOM     13  C   UNL     1       1.367   4.514  20.567  0.00  0.00    +0.000 A 
ATOM     14  C   UNL     1       2.678   4.888  20.269  0.00  0.00    +0.000 A 
ENDBRANCH   8   9
ENDBRANCH   1   8
TORSDOF 5
ENDMDL
MODEL 4
REMARK VINA RESULT:      -5.6      1.730      2.950
REMARK  Name = 
REMARK  6 active torsions:
REMARK  status: ('A' for Active; 'I' for Inactive)
REMARK    1  A    between atoms: C_2  and  C_3
REMARK    2  A    between atoms: C_3  and  N_4
REMARK    3  A    between atoms: N_4  and  C_5
REMARK    4  A    between atoms: C_5  and  C_6
REMARK    5  A    between atoms: C_5  and  C_7
REMARK    6  A    between atoms: C_7  and  C_8
REMARK                            x       y       z     vdW  Elec       q    Type
REMARK                         _______ _______ _______ _____ _____    ______ ____
ROOT
ATOM      1  C   UNL     1       4.711   4.097  16.704  0.00  0.00    +0.000 C 
ATOM      2  C   UNL     1       4.885   5.619  16.586  0.00  0.00    +0.000 C 
ENDROOT
BRANCH   1   3
ATOM      3  N   UNL     1       5.825   3.467  15.967  0.00  0.00    +0.000 NA
ATOM      4  H   UNL     1       6.556   3.213  16.633  0.00  0.00    +0.000 HD
BRANCH   3   5
ATOM      5  C   UNL     1       6.423   4.344  14.967  0.00  0.00    +0.000 C 
BRANCH   5   7
ATOM      6  C   UNL     1       5.922   3.429  12.506  0.00  0.00    +0.000 C 
ATOM      7  C   UNL     1       6.144   3.827  13.619  0.00  0.00    +0.000 C 
ENDBRANCH   5   7
ENDBRANCH   3   5
ENDBRANCH   1   3
BRANCH   1   8
ATOM      8  C   UNL     1       4.647   3.667  18.195  0.00  0.00    +0.000 C 
BRANCH   8   9
ATOM      9  C   UNL     1       3.238   3.509  18.728  0.00  0.00    +0.000 A 
ATOM     10  C   UNL     1       2.732   4.402  19.685  0.00  0.00    +0.000 A 
ATOM     11  C   UNL     1       1.455   4.225  20.216  0.00  0.00    +0.000 A 
ATOM     12  C   UNL     1       0.662   3.164  19.787  0.00  0.00    +0.000 A 
ATOM     13  C   UNL     1       1.136   2.294  18.807  0.00  0.00    +0.000 A 
ATOM     14  C   UNL     1       2.415   2.468  18.275  0.00  0.00    +0.000 A 
ENDBRANCH   8   9
ENDBRANCH   1   8
TORSDOF 5
ENDMDL
MODEL 5
REMARK VINA RESULT:      -5.6      1.584      1.922
REMARK  Name = 
REMARK  6 active torsions:
REMARK  status: ('A' for Active; 'I' for Inactive)
REMARK    1  A    between atoms: C_2  and  C_3
REMARK    2  A    between atoms: C_3  and  N_4
REMARK    3  A    between atoms: N_4  and  C_5
REMARK    4  A    between atoms: C_5  and  C_6
REMARK    5  A    between atoms: C_5  and  C_7
REMARK    6  A    between atoms: C_7  and  C_8
REMARK                            x       y       z     vdW  Elec       q    Type
REMARK                         _______ _______ _______ _____ _____    ______ ____
ROOT
ATOM      1  C   UNL     1       6.051   4.638  16.989  0.00  0.00    +0.000 C 
ATOM      2  C   UNL     1       5.550   5.298  15.694  0.00  0.00    +0.000 C 
ENDROOT
BRANCH   1   3
ATOM      3  N   UNL     1       7.449   5.068  17.191  0.00  0.00    +0.000 NA
ATOM      4  H   UNL     1       8.036   4.239  17.285  0.00  0.00    +0.000 HD
BRANCH   3   5
ATOM      5  C   UNL     1       7.635   5.879  18.389  0.00  0.00    +0.000 C 
BRANCH   5   7
ATOM      6  C   UNL     1       7.930   8.440  17.682  0.00  0.00    +0.000 C 
ATOM      7  C   UNL     1       7.801   7.291  18.014  0.00  0.00    +0.000 C 
ENDBRANCH   5   7
ENDBRANCH   3   5
ENDBRANCH   1   3
BRANCH   1   8
ATOM      8  C   UNL     1       5.124   5.001  18.181  0.00  0.00    +0.000 C 
BRANCH   8   9
ATOM      9  C   UNL     1       3.864   4.163  18.255  0.00  0.00    +0.000 A 
ATOM     10  C   UNL     1       3.928   2.806  18.603  0.00  0.00    +0.000 A 
ATOM     11  C   UNL     1       2.775   2.021  18.618  0.00  0.00    +0.000 A 
ATOM     12  C   UNL     1       1.543   2.586  18.301  0.00  0.00    +0.000 A 
ATOM     13  C   UNL     1       1.459   3.943  17.994  0.00  0.00    +0.000 A 
ATOM     14  C   UNL     1       2.611   4.730  17.976  0.00  0.00    +0.000 A 
ENDBRANCH   8   9
ENDBRANCH   1   8
TORSDOF 5
ENDMDL
MODEL 6
REMARK VINA RESULT:      -5.6      1.555      1.696
REMARK  Name = 
REMARK  6 active torsions:
REMARK  status: ('A' for Active; 'I' for Inactive)
REMARK    1  A    between atoms: C_2  and  C_3
REMARK    2  A    between atoms: C_3  and  N_4
REMARK    3  A    between atoms: N_4  and  C_5
REMARK    4  A    between atoms: C_5  and  C_6
REMARK    5  A    between atoms: C_5  and  C_7
REMARK    6  A    between atoms: C_7  and  C_8
REMARK                            x       y       z     vdW  Elec       q    Type
REMARK                         _______ _______ _______ _____ _____    ______ ____
ROOT
ATOM      1  C   UNL     1       6.051   4.227  16.351  0.00  0.00    +0.000 C 
ATOM      2  C   UNL     1       5.973   4.326  14.820  0.00  0.00    +0.000 C 
ENDROOT
BRANCH   1   3
ATOM      3  N   UNL     1       7.358   4.776  16.763  0.00  0.00    +0.000 NA
ATOM      4  H   UNL     1       8.017   4.005  16.877  0.00  0.00    +0.000 HD
BRANCH   3   5
ATOM      5  C   UNL     1       7.306   5.503  18.026  0.00  0.00    +0.000 C 
BRANCH   5   7
ATOM      6  C   UNL     1       7.848   8.091  17.635  0.00  0.00    +0.000 C 
ATOM      7  C   UNL     1       7.601   6.925  17.796  0.00  0.00    +0.000 C 
ENDBRANCH   5   7
ENDBRANCH   3   5
ENDBRANCH   1   3
BRANCH   1   8
ATOM      8  C   UNL     1       4.849   4.959  17.009  0.00  0.00    +0.000 C 
BRANCH   8   9
ATOM      9  C   UNL     1       3.884   4.035  17.722  0.00  0.00    +0.000 A 
ATOM     10  C   UNL     1       2.508   4.094  17.454  0.00  0.00    +0.000 A 
ATOM     11  C   UNL     1       1.612   3.282  18.149  0.00  0.00    +0.000 A 
ATOM     12  C   UNL     1       2.082   2.389  19.109  0.00  0.00    +0.000 A 
ATOM     13  C   UNL     1       3.450   2.290  19.355  0.00  0.00    +0.000 A 
ATOM     14  C   UNL     1       4.348   3.103  18.663  0.00  0.00    +0.000 A 
ENDBRANCH   8   9
ENDBRANCH   1   8
TORSDOF 5
ENDMDL
MODEL 7
REMARK VINA RESULT:      -5.6      0.789      1.622
REMARK  Name = 
REMARK  6 active torsions:
REMARK  status: ('A' for Active; 'I' for Inactive)
REMARK    1  A    between atoms: C_2  and  C_3
REMARK    2  A    between atoms: C_3  and  N_4
REMARK    3  A    between atoms: N_4  and  C_5
REMARK    4  A    between atoms: C_5  and  C_6
REMARK    5  A    between atoms: C_5  and  C_7
REMARK    6  A    between atoms: C_7  and  C_8
REMARK                            x       y       z     vdW  Elec       q    Type
REMARK                         _______ _______ _______ _____ _____    ______ ____
ROOT
ATOM      1  C   UNL     1       4.874   4.749  17.691  0.00  0.00    +0.000 C 
ATOM      2  C   UNL     1       5.452   4.160  16.394  0.00  0.00    +0.000 C 
ENDROOT
BRANCH   1   3
ATOM      3  N   UNL     1       5.605   6.001  17.970  0.00  0.00    +0.000 NA
ATOM      4  H   UNL     1       5.087   6.781  17.564  0.00  0.00    +0.000 HD
BRANCH   3   5
ATOM      5  C   UNL     1       6.950   6.022  17.406  0.00  0.00    +0.000 C 
BRANCH   5   7
ATOM      6  C   UNL     1       8.035   8.441  17.744  0.00  0.00    +0.000 C 
ATOM      7  C   UNL     1       7.553   7.348  17.604  0.00  0.00    +0.000 C 
ENDBRANCH   5   7
ENDBRANCH   3   5
ENDBRANCH   1   3
BRANCH   1   8
ATOM      8  C   UNL     1       3.340   4.956  17.562  0.00  0.00    +0.000 C 
BRANCH   8   9
ATOM      9  C   UNL     1       2.545   4.383  18.716  0.00  0.00    +0.000 A 
ATOM     10  C   UNL     1       2.828   4.765  20.037  0.00  0.00    +0.000 A 
ATOM     11  C   UNL     1       2.132   4.198  21.105  0.00  0.00    +0.000 A 
ATOM     12  C   UNL     1       1.137   3.253  20.866  0.00  0.00    +0.000 A 
ATOM     13  C   UNL     1       0.818   2.897  19.557  0.00  0.00    +0.000 A 
ATOM     14  C   UNL     1       1.513   3.461  18.487  0.00  0.00    +0.000 A 
ENDBRANCH   8   9
ENDBRANCH   1   8
TORSDOF 5
ENDMDL
MODEL 8
REMARK VINA RESULT:      -5.6      1.268      1.900
REMARK  Name = 
REMARK  6 active torsions:
REMARK  status: ('A' for Active; 'I' for Inactive)
REMARK    1  A    between atoms: C_2  and  C_3
REMARK    2  A    between atoms: C_3  and  N_4
REMARK    3  A    between atoms: N_4  and  C_5
REMARK    4  A    between atoms: C_5  and  C_6
REMARK    5  A    between atoms: C_5  and  C_7
REMARK    6  A    between atoms: C_7  and  C_8
REMARK                            x       y       z     vdW  Elec       q    Type
REMARK                         _______ _______ _______ _____ _____    ______ ____
ROOT
ATOM      1  C   UNL     1       5.052   5.390  17.308  0.00  0.00    +0.000 C 
ATOM      2  C   UNL     1       5.251   5.717  15.819  0.00  0.00    +0.000 C 
ENDROOT
BRANCH   1   3
ATOM      3  N   UNL     1       6.118   6.085  18.058  0.00  0.00    +0.000 NA
ATOM      4  H   UNL     1       5.732   6.941  18.458  0.00  0.00    +0.000 HD
BRANCH   3   5
ATOM      5  C   UNL     1       7.256   6.460  17.228  0.00  0.00    +0.000 C 
BRANCH   5   7
ATOM      6  C   UNL     1       8.095   8.904  17.915  0.00  0.00    +0.000 C 
ATOM      7  C   UNL     1       7.731   7.799  17.609  0.00  0.00    +0.000 C 
ENDBRANCH   5   7
ENDBRANCH   3   5
ENDBRANCH   1   3
BRANCH   1   8
ATOM      8  C   UNL     1       3.624   5.787  17.770  0.00  0.00    +0.000 C 
BRANCH   8   9
ATOM      9  C   UNL     1       2.765   4.611  18.186  0.00  0.00    +0.000 A 
ATOM     10  C   UNL     1       1.852   4.733  19.245  0.00  0.00    +0.000 A 
ATOM     11  C   UNL     1       1.100   3.636  19.664  0.00  0.00    +0.000 A 
ATOM     12  C   UNL     1       1.239   2.408  19.022  0.00  0.00    +0.000 A 
ATOM     13  C   UNL     1       2.111   2.284  17.942  0.00  0.00    +0.000 A 
ATOM     14  C   UNL     1       2.867   3.380  17.522  0.00  0.00    +0.000 A 
ENDBRANCH   8   9
ENDBRANCH   1   8
TORSDOF 5
ENDMDL
MODEL 9
REMARK VINA RESULT:      -5.6      1.211      1.445
REMARK  Name = 
REMARK  6 active torsions:
REMARK  status: ('A' for Active; 'I' for Inactive)
REMARK    1  A    between atoms: C_2  and  C_3
REMARK    2  A    between atoms: C_3  and  N_4
REMARK    3  A    between atoms: N_4  and  C_5
REMARK    4  A    between atoms: C_5  and  C_6
REMARK    5  A    between atoms: C_5  and  C_7
REMARK    6  A    between atoms: C_7  and  C_8
REMARK                            x       y       z     vdW  Elec       q    Type
REMARK                         _______ _______ _______ _____ _____    ______ ____
ROOT
ATOM      1  C   UNL     1       5.003   5.727  17.518  0.00  0.00    +0.000 C 
ATOM      2  C   UNL     1       5.176   4.465  16.658  0.00  0.00    +0.000 C 
ENDROOT
BRANCH   1   3
ATOM      3  N   UNL     1       5.868   6.776  16.941  0.00  0.00    +0.000 NA
ATOM      4  H   UNL     1       5.832   6.707  15.923  0.00  0.00    +0.000 HD
BRANCH   3   5
ATOM      5  C   UNL     1       7.265   6.655  17.341  0.00  0.00    +0.000 C 
BRANCH   5   7
ATOM      6  C   UNL     1       8.221   9.071  17.972  0.00  0.00    +0.000 C 
ATOM      7  C   UNL     1       7.796   7.979  17.701  0.00  0.00    +0.000 C 
ENDBRANCH   5   7
ENDBRANCH   3   5
ENDBRANCH   1   3
BRANCH   1   8
ATOM      8  C   UNL     1       3.508   6.141  17.587  0.00  0.00    +0.000 C 
BRANCH   8   9
ATOM      9  C   UNL     1       2.671   5.266  18.497  0.00  0.00    +0.000 A 
ATOM     10  C   UNL     1       1.936   4.191  17.975  0.00  0.00    +0.000 A 
ATOM     11  C   UNL     1       1.122   3.418  18.803  0.00  0.00    +0.000 A 
ATOM     12  C   UNL     1       1.044   3.701  20.164  0.00  0.00    +0.000 A 
ATOM     13  C   UNL     1       1.801   4.740  20.702  0.00  0.00    +0.000 A 
ATOM     14  C   UNL     1       2.614   5.516  19.876  0.00  0.00    +0.000 A 
ENDBRANCH   8   9
ENDBRANCH   1   8
TORSDOF 5
ENDMDL
