MODEL 1
REMARK VINA RESULT:      -6.0      0.000      0.000
REMARK  Name = 
REMARK  3 active torsions:
REMARK  status: ('A' for Active; 'I' for Inactive)
REMARK    1  A    between atoms: C_1  and  O_2
REMARK    2  A    between atoms: O_2  and  C_3
REMARK    3  A    between atoms: C_8  and  C_9
REMARK                            x       y       z     vdW  Elec       q    Type
REMARK                         _______ _______ _______ _____ _____    ______ ____
ROOT
ATOM      1  C   UNL     1       2.564   3.292  18.805  0.00  0.00    +0.000 A 
ATOM      2  C   UNL     1       1.375   3.255  19.552  0.00  0.00    +0.000 A 
ATOM      3  C   UNL     1       1.045   4.295  20.417  0.00  0.00    +0.000 A 
ATOM      4  C   UNL     1       1.912   5.370  20.567  0.00  0.00    +0.000 A 
ATOM      5  C   UNL     1       3.111   5.402  19.853  0.00  0.00    +0.000 A 
ATOM      6  C   UNL     1       3.460   4.377  18.952  0.00  0.00    +0.000 A 
ENDROOT
BRANCH   6   7
ATOM      7  C   UNL     1       4.732   4.482  18.204  0.00  0.00    +0.000 A 
ATOM      8  C   UNL     1       5.927   4.818  18.720  0.00  0.00    +0.000 A 
ATOM      9  S   UNL     1       7.177   4.856  17.508  0.00  0.00    +0.000 S 
ATOM     10  C   UNL     1       6.019   4.427  16.249  0.00  0.00    +0.000 A 
ATOM     11  S   UNL     1       6.317   4.262  14.632  0.00  0.00    +0.000 S 
ATOM     12  N   UNL     1       4.794   4.258  16.849  0.00  0.00    +0.000 N 
ATOM     13  H   UNL     1       3.959   4.051  16.312  0.00  0.00    +0.000 HD
ENDBRANCH   6   7
BRANCH   1  15
ATOM     14  C   UNL     1       3.634   1.199  18.545  0.00  0.00    +0.000 C 
ATOM     15  O   UNL     1       2.915   2.275  17.947  0.00  0.00    +0.000 OA
ENDBRANCH   1  15
TORSDOF 2
ENDMDL
MODEL 2
REMARK VINA RESULT:      -5.9      3.162      5.283
REMARK  Name = 
REMARK  3 active torsions:
REMARK  status: ('A' for Active; 'I' for Inactive)
REMARK    1  A    between atoms: C_1  and  O_2
REMARK    2  A    between atoms: O_2  and  C_3
REMARK    3  A    between atoms: C_8  and  C_9
REMARK                            x       y       z     vdW  Elec       q    Type
REMARK                         _______ _______ _______ _____ _____    ______ ____
ROOT
ATOM      1  C   UNL     1       6.419   4.630  17.731  0.00  0.00    +0.000 A 
ATOM      2  C   UNL     1       7.348   4.521  16.683  0.00  0.00    +0.000 A 
ATOM      3  C   UNL     1       6.922   4.481  15.357  0.00  0.00    +0.000 A 
ATOM      4  C   UNL     1       5.565   4.521  15.066  0.00  0.00    +0.000 A 
ATOM      5  C   UNL     1       4.632   4.597  16.101  0.00  0.00    +0.000 A 
ATOM      6  C   UNL     1       5.034   4.663  17.450  0.00  0.00    +0.000 A 
ENDROOT
BRANCH   6   7
ATOM      7  C   UNL     1       3.998   4.771  18.502  0.00  0.00    +0.000 A 
ATOM      8  C   UNL     1       3.252   5.856  18.768  0.00  0.00    +0.000 A 
ATOM      9  S   UNL     1       2.161   5.591  20.100  0.00  0.00    +0.000 S 
ATOM     10  C   UNL     1       2.769   3.950  20.318  0.00  0.00    +0.000 A 
ATOM     11  S   UNL     1       2.310   2.860  21.472  0.00  0.00    +0.000 S 
ATOM     12  N   UNL     1       3.719   3.725  19.350  0.00  0.00    +0.000 N 
ATOM     13  H   UNL     1       4.243   2.858  19.306  0.00  0.00    +0.000 HD
ENDBRANCH   6   7
BRANCH   1  15
ATOM     14  C   UNL     1       7.680   5.746  19.392  0.00  0.00    +0.000 C 
ATOM     15  O   UNL     1       6.813   4.667  19.049  0.00  0.00    +0.000 OA
ENDBRANCH   1  15
TORSDOF 2
ENDMDL
MODEL 3
REMARK VINA RESULT:      -5.9      1.394      2.202
REMARK  Name = 
REMARK  3 active torsions:
REMARK  status: ('A' for Active; 'I' for Inactive)
REMARK    1  A    between atoms: C_1  and  O_2
REMARK    2  A    between atoms: O_2  and  C_3
REMARK    3  A    between atoms: C_8  and  C_9
REMARK                            x       y       z     vdW  Elec       q    Type
REMARK                         _______ _______ _______ _____ _____    ______ ____
ROOT
ATOM      1  C   UNL     1       2.406   4.724  19.165  0.00  0.00    +0.000 A 
ATOM      2  C   UNL     1       1.309   4.444  19.997  0.00  0.00    +0.000 A 
ATOM      3  C   UNL     1       1.378   3.428  20.947  0.00  0.00    +0.000 A 
ATOM      4  C   UNL     1       2.531   2.663  21.058  0.00  0.00    +0.000 A 
ATOM      5  C   UNL     1       3.616   2.912  20.216  0.00  0.00    +0.000 A 
ATOM      6  C   UNL     1       3.585   3.948  19.262  0.00  0.00    +0.000 A 
ENDROOT
BRANCH   6   7
ATOM      7  C   UNL     1       4.777   4.180  18.416  0.00  0.00    +0.000 A 
ATOM      8  C   UNL     1       5.965   4.645  18.837  0.00  0.00    +0.000 A 
ATOM      9  S   UNL     1       7.107   4.803  17.531  0.00  0.00    +0.000 S 
ATOM     10  C   UNL     1       5.906   4.244  16.367  0.00  0.00    +0.000 A 
ATOM     11  S   UNL     1       6.094   4.098  14.731  0.00  0.00    +0.000 S 
ATOM     12  N   UNL     1       4.756   3.953  17.061  0.00  0.00    +0.000 N 
ATOM     13  H   UNL     1       3.909   3.654  16.590  0.00  0.00    +0.000 HD
ENDBRANCH   6   7
BRANCH   1  15
ATOM     14  C   UNL     1       2.545   7.041  18.716  0.00  0.00    +0.000 C 
ATOM     15  O   UNL     1       2.362   5.719  18.216  0.00  0.00    +0.000 OA
ENDBRANCH   1  15
TORSDOF 2
ENDMDL
MODEL 4
REMARK VINA RESULT:      -5.9      2.928      5.351
REMARK  Name = 
REMARK  3 active torsions:
REMARK  status: ('A' for Active; 'I' for Inactive)
REMARK    1  A    between atoms: C_1  and  O_2
REMARK    2  A    between atoms: O_2  and  C_3
REMARK    3  A    between atoms: C_8  and  C_9
REMARK                            x       y       z     vdW  Elec       q    Type
REMARK                         _______ _______ _______ _____ _____    ______ ____
ROOT
ATOM      1  C   UNL     1       6.340   4.459  17.482  0.00  0.00    +0.000 A 
ATOM      2  C   UNL     1       7.354   4.862  16.598  0.00  0.00    +0.000 A 
ATOM      3  C   UNL     1       7.141   4.855  15.221  0.00  0.00    +0.000 A 
ATOM      4  C   UNL     1       5.925   4.418  14.713  0.00  0.00    +0.000 A 
ATOM      5  C   UNL     1       4.921   3.986  15.582  0.00  0.00    +0.000 A 
ATOM      6  C   UNL     1       5.099   4.005  16.979  0.00  0.00    +0.000 A 
ENDROOT
BRANCH   6   7
ATOM      7  C   UNL     1       3.988   3.559  17.849  0.00  0.00    +0.000 A 
ATOM      8  C   UNL     1       3.383   2.360  17.806  0.00  0.00    +0.000 A 
ATOM      9  S   UNL     1       2.101   2.230  18.978  0.00  0.00    +0.000 S 
ATOM     10  C   UNL     1       2.383   3.884  19.522  0.00  0.00    +0.000 A 
ATOM     11  S   UNL     1       1.540   4.712  20.678  0.00  0.00    +0.000 S 
ATOM     12  N   UNL     1       3.440   4.386  18.801  0.00  0.00    +0.000 N 
ATOM     13  H   UNL     1       3.756   5.343  18.911  0.00  0.00    +0.000 HD
ENDBRANCH   6   7
BRANCH   1  15
ATOM     14  C   UNL     1       7.179   5.606  19.373  0.00  0.00    +0.000 C 
ATOM     15  O   UNL     1       6.527   4.453  18.846  0.00  0.00    +0.000 OA
ENDBRANCH   1  15
TORSDOF 2
ENDMDL
MODEL 5
REMARK VINA RESULT:      -5.9      1.644      2.974
REMARK  Name = 
REMARK  3 active torsions:
REMARK  status: ('A' for Active; 'I' for Inactive)
REMARK    1  A    between atoms: C_1  and  O_2
REMARK    2  A    between atoms: O_2  and  C_3
REMARK    3  A    between atoms: C_8  and  C_9
REMARK                            x       y       z     vdW  Elec       q    Type
REMARK                         _______ _______ _______ _____ _____    ______ ____
ROOT
ATOM      1  C   UNL     1       2.425   4.568  19.644  0.00  0.00    +0.000 A 
ATOM      2  C   UNL     1       1.180   4.135  20.128  0.00  0.00    +0.000 A 
ATOM      3  C   UNL     1       0.617   2.943  19.677  0.00  0.00    +0.000 A 
ATOM      4  C   UNL     1       1.277   2.187  18.718  0.00  0.00    +0.000 A 
ATOM      5  C   UNL     1       2.501   2.623  18.208  0.00  0.00    +0.000 A 
ATOM      6  C   UNL     1       3.106   3.812  18.662  0.00  0.00    +0.000 A 
ENDROOT
BRANCH   6   7
ATOM      7  C   UNL     1       4.417   4.208  18.102  0.00  0.00    +0.000 A 
ATOM      8  C   UNL     1       4.841   3.982  16.847  0.00  0.00    +0.000 A 
ATOM      9  S   UNL     1       6.455   4.580  16.582  0.00  0.00    +0.000 S 
ATOM     10  C   UNL     1       6.564   5.130  18.254  0.00  0.00    +0.000 A 
ATOM     11  S   UNL     1       7.860   5.845  18.987  0.00  0.00    +0.000 S 
ATOM     12  N   UNL     1       5.365   4.848  18.864  0.00  0.00    +0.000 N 
ATOM     13  H   UNL     1       5.209   5.036  19.849  0.00  0.00    +0.000 HD
ENDBRANCH   6   7
BRANCH   1  15
ATOM     14  C   UNL     1       2.378   6.932  19.585  0.00  0.00    +0.000 C 
ATOM     15  O   UNL     1       3.000   5.744  20.069  0.00  0.00    +0.000 OA
ENDBRANCH   1  15
TORSDOF 2
ENDMDL
MODEL 6
REMARK VINA RESULT:      -5.8      1.636      1.772
REMARK  Name = 
REMARK  3 active torsions:
REMARK  status: ('A' for Active; 'I' for Inactive)
REMARK    1  A    between atoms: C_1  and  O_2
REMARK    2  A    between atoms: O_2  and  C_3
REMARK    3  A    between atoms: C_8  and  C_9
REMARK                            x       y       z     vdW  Elec       q    Type
REMARK                         _______ _______ _______ _____ _____    ______ ____
ROOT
ATOM      1  C   UNL     1       3.487   3.150  20.013  0.00  0.00    +0.000 A 
ATOM      2  C   UNL     1       2.638   2.625  21.001  0.00  0.00    +0.000 A 
ATOM      3  C   UNL     1       1.329   3.086  21.132  0.00  0.00    +0.000 A 
ATOM      4  C   UNL     1       0.865   4.094  20.297  0.00  0.00    +0.000 A 
ATOM      5  C   UNL     1       1.711   4.644  19.332  0.00  0.00    +0.000 A 
ATOM      6  C   UNL     1       3.031   4.182  19.161  0.00  0.00    +0.000 A 
ENDROOT
BRANCH   6   7
ATOM      7  C   UNL     1       3.870   4.787  18.102  0.00  0.00    +0.000 A 
ATOM      8  C   UNL     1       4.036   6.102  17.881  0.00  0.00    +0.000 A 
ATOM      9  S   UNL     1       5.082   6.411  16.523  0.00  0.00    +0.000 S 
ATOM     10  C   UNL     1       5.272   4.682  16.230  0.00  0.00    +0.000 A 
ATOM     11  S   UNL     1       6.131   3.963  15.016  0.00  0.00    +0.000 S 
ATOM     12  N   UNL     1       4.559   4.014  17.198  0.00  0.00    +0.000 N 
ATOM     13  H   UNL     1       4.485   3.003  17.205  0.00  0.00    +0.000 HD
ENDBRANCH   6   7
BRANCH   1  15
ATOM     14  C   UNL     1       5.118   1.544  20.607  0.00  0.00    +0.000 C 
ATOM     15  O   UNL     1       4.785   2.715  19.866  0.00  0.00    +0.000 OA
ENDBRANCH   1  15
TORSDOF 2
ENDMDL
MODEL 7
REMARK VINA RESULT:      -5.8      1.814      3.025
REMARK  Name = 
REMARK  3 active torsions:
REMARK  status: ('A' for Active; 'I' for Inactive)
REMARK    1  A    between atoms: C_1  and  O_2
REMARK    2  A    between atoms: O_2  and  C_3
REMARK    3  A    between atoms: C_8  and  C_9
REMARK                            x       y       z     vdW  Elec       q    Type
REMARK                         _______ _______ _______ _____ _____    ______ ____
ROOT
ATOM      1  C   UNL     1       2.517   4.740  18.130  0.00  0.00    +0.000 A 
ATOM      2  C   UNL     1       1.359   4.140  18.651  0.00  0.00    +0.000 A 
ATOM      3  C   UNL     1       1.240   2.753  18.705  0.00  0.00    +0.000 A 
ATOM      4  C   UNL     1       2.263   1.952  18.215  0.00  0.00    +0.000 A 
ATOM      5  C   UNL     1       3.405   2.539  17.667  0.00  0.00    +0.000 A 
ATOM      6  C   UNL     1       3.564   3.938  17.620  0.00  0.00    +0.000 A 
ENDROOT
BRANCH   6   7
ATOM      7  C   UNL     1       4.809   4.499  17.051  0.00  0.00    +0.000 A 
ATOM      8  C   UNL     1       5.495   4.003  16.007  0.00  0.00    +0.000 A 
ATOM      9  S   UNL     1       6.924   4.936  15.658  0.00  0.00    +0.000 S 
ATOM     10  C   UNL     1       6.587   6.022  17.006  0.00  0.00    +0.000 A 
ATOM     11  S   UNL     1       7.505   7.299  17.512  0.00  0.00    +0.000 S 
ATOM     12  N   UNL     1       5.410   5.614  17.587  0.00  0.00    +0.000 N 
ATOM     13  H   UNL     1       5.037   6.065  18.415  0.00  0.00    +0.000 HD
ENDBRANCH   6   7
BRANCH   1  15
ATOM     14  C   UNL     1       2.448   6.801  19.289  0.00  0.00    +0.000 C 
ATOM     15  O   UNL     1       2.657   6.108  18.061  0.00  0.00    +0.000 OA
ENDBRANCH   1  15
TORSDOF 2
ENDMDL
MODEL 8
REMARK VINA RESULT:      -5.7      1.778      2.202
REMARK  Name = 
REMARK  3 active torsions:
REMARK  status: ('A' for Active; 'I' for Inactive)
REMARK    1  A    between atoms: C_1  and  O_2
REMARK    2  A    between atoms: O_2  and  C_3
REMARK    3  A    between atoms: C_8  and  C_9
REMARK                            x       y       z     vdW  Elec       q    Type
REMARK                         _______ _______ _______ _____ _____    ______ ____
ROOT
ATOM      1  C   UNL     1       3.569   2.987  20.192  0.00  0.00    +0.000 A 
ATOM      2  C   UNL     1       2.651   2.566  21.168  0.00  0.00    +0.000 A 
ATOM      3  C   UNL     1       1.346   3.054  21.174  0.00  0.00    +0.000 A 
ATOM      4  C   UNL     1       0.953   3.986  20.224  0.00  0.00    +0.000 A 
ATOM      5  C   UNL     1       1.866   4.434  19.268  0.00  0.00    +0.000 A 
ATOM      6  C   UNL     1       3.185   3.941  19.222  0.00  0.00    +0.000 A 
ENDROOT
BRANCH   6   7
ATOM      7  C   UNL     1       4.099   4.435  18.167  0.00  0.00    +0.000 A 
ATOM      8  C   UNL     1       4.096   4.055  16.879  0.00  0.00    +0.000 A 
ATOM      9  S   UNL     1       5.346   4.848  15.959  0.00  0.00    +0.000 S 
ATOM     10  C   UNL     1       5.908   5.704  17.395  0.00  0.00    +0.000 A 
ATOM     11  S   UNL     1       7.190   6.742  17.500  0.00  0.00    +0.000 S 
ATOM     12  N   UNL     1       5.090   5.348  18.440  0.00  0.00    +0.000 N 
ATOM     13  H   UNL     1       5.250   5.685  19.383  0.00  0.00    +0.000 HD
ENDBRANCH   6   7
BRANCH   1  15
ATOM     14  C   UNL     1       5.091   1.317  20.892  0.00  0.00    +0.000 C 
ATOM     15  O   UNL     1       4.865   2.524  20.167  0.00  0.00    +0.000 OA
ENDBRANCH   1  15
TORSDOF 2
ENDMDL
MODEL 9
REMARK VINA RESULT:      -5.7      1.169      1.216
REMARK  Name = 
REMARK  3 active torsions:
REMARK  status: ('A' for Active; 'I' for Inactive)
REMARK    1  A    between atoms: C_1  and  O_2
REMARK    2  A    between atoms: O_2  and  C_3
REMARK    3  A    between atoms: C_8  and  C_9
REMARK                            x       y       z     vdW  Elec       q    Type
REMARK                         _______ _______ _______ _____ _____    ______ ____
ROOT
ATOM      1  C   UNL     1       2.554   3.124  18.780  0.00  0.00    +0.000 A 
ATOM      2  C   UNL     1       1.670   2.675  19.774  0.00  0.00    +0.000 A 
ATOM      3  C   UNL     1       1.094   3.571  20.672  0.00  0.00    +0.000 A 
ATOM      4  C   UNL     1       1.417   4.920  20.603  0.00  0.00    +0.000 A 
ATOM      5  C   UNL     1       2.318   5.372  19.638  0.00  0.00    +0.000 A 
ATOM      6  C   UNL     1       2.898   4.493  18.702  0.00  0.00    +0.000 A 
ENDROOT
BRANCH   6   7
ATOM      7  C   UNL     1       3.826   5.038  17.686  0.00  0.00    +0.000 A 
ATOM      8  C   UNL     1       4.116   6.336  17.497  0.00  0.00    +0.000 A 
ATOM      9  S   UNL     1       5.236   6.572  16.183  0.00  0.00    +0.000 S 
ATOM     10  C   UNL     1       5.282   4.839  15.864  0.00  0.00    +0.000 A 
ATOM     11  S   UNL     1       6.120   4.066  14.668  0.00  0.00    +0.000 S 
ATOM     12  N   UNL     1       4.478   4.222  16.793  0.00  0.00    +0.000 N 
ATOM     13  H   UNL     1       4.314   3.221  16.778  0.00  0.00    +0.000 HD
ENDBRANCH   6   7
BRANCH   1  15
ATOM     14  C   UNL     1       3.818   1.149  18.470  0.00  0.00    +0.000 C 
ATOM     15  O   UNL     1       3.140   2.258  17.884  0.00  0.00    +0.000 OA
ENDBRANCH   1  15
TORSDOF 2
ENDMDL
