MODEL 1
REMARK VINA RESULT:      -8.3      0.000      0.000
REMARK  Name = 
REMARK  5 active torsions:
REMARK  status: ('A' for Active; 'I' for Inactive)
REMARK    1  A    between atoms: C_1  and  N_2
REMARK    2  A    between atoms: N_2  and  C_3
REMARK    3  A    between atoms: C_8  and  O_9
REMARK    4  A    between atoms: O_9  and  C_10
REMARK    5  A    between atoms: C_16  and  C_17
REMARK                            x       y       z     vdW  Elec       q    Type
REMARK                         _______ _______ _______ _____ _____    ______ ____
ROOT
ATOM      1  C   UNL     1       1.346   8.276  20.107  0.00  0.00    +0.000 A 
ATOM      2  C   UNL     1       1.980   8.656  18.915  0.00  0.00    +0.000 A 
ATOM      3  C   UNL     1       2.738   7.750  18.172  0.00  0.00    +0.000 A 
ATOM      4  C   UNL     1       2.915   6.446  18.621  0.00  0.00    +0.000 A 
ATOM      5  N   UNL     1       3.744   5.596  17.867  0.00  0.00    +0.000 NA
ATOM      6  C   UNL     1       4.019   4.422  18.342  0.00  0.00    +0.000 A 
ATOM      7  C   UNL     1       3.423   3.929  19.536  0.00  0.00    +0.000 A 
ATOM      8  C   UNL     1       3.464   2.748  20.236  0.00  0.00    +0.000 A 
ATOM      9  N   UNL     1       2.706   2.839  21.379  0.00  0.00    +0.000 NA
ATOM     10  C   UNL     1       2.213   4.062  21.376  0.00  0.00    +0.000 A 
ATOM     11  N   UNL     1       2.607   4.758  20.268  0.00  0.00    +0.000 N 
ATOM     12  C   UNL     1       2.335   6.075  19.845  0.00  0.00    +0.000 A 
ATOM     13  C   UNL     1       1.572   6.977  20.594  0.00  0.00    +0.000 A 
ENDROOT
BRANCH   1  15
ATOM     14  C   UNL     1       0.993   9.314  22.293  0.00  0.00    +0.000 C 
ATOM     15  N   UNL     1       0.616   9.180  20.891  0.00  0.00    +0.000 N 
ATOM     16  H   UNL     1       0.520  10.085  20.438  0.00  0.00    +0.000 HD
ENDBRANCH   1  15
BRANCH   6  17
ATOM     17  O   UNL     1       4.964   3.561  17.799  0.00  0.00    +0.000 OA
BRANCH  17  18
ATOM     18  C   UNL     1       5.597   4.029  16.627  0.00  0.00    +0.000 A 
ATOM     19  C   UNL     1       4.927   3.977  15.393  0.00  0.00    +0.000 A 
ATOM     20  C   UNL     1       5.576   4.367  14.227  0.00  0.00    +0.000 A 
ATOM     21  C   UNL     1       6.867   4.864  14.309  0.00  0.00    +0.000 A 
ATOM     22  F   UNL     1       7.501   5.233  13.187  0.00  0.00    +0.000 F 
ATOM     23  C   UNL     1       7.515   4.994  15.537  0.00  0.00    +0.000 A 
ATOM     24  C   UNL     1       6.882   4.583  16.722  0.00  0.00    +0.000 A 
ATOM     25  C   UNL     1       7.582   4.740  18.039  0.00  0.00    +0.000 C 
ENDBRANCH  17  18
ENDBRANCH   6  17
TORSDOF 3
ENDMDL
MODEL 2
REMARK VINA RESULT:      -7.8      3.017      6.601
REMARK  Name = 
REMARK  5 active torsions:
REMARK  status: ('A' for Active; 'I' for Inactive)
REMARK    1  A    between atoms: C_1  and  N_2
REMARK    2  A    between atoms: N_2  and  C_3
REMARK    3  A    between atoms: C_8  and  O_9
REMARK    4  A    between atoms: O_9  and  C_10
REMARK    5  A    between atoms: C_16  and  C_17
REMARK                            x       y       z     vdW  Elec       q    Type
REMARK                         _______ _______ _______ _____ _____    ______ ____
ROOT
ATOM      1  C   UNL     1       6.042   4.320  15.343  0.00  0.00    +0.000 A 
ATOM      2  C   UNL     1       6.546   5.533  15.838  0.00  0.00    +0.000 A 
ATOM      3  C   UNL     1       5.963   6.170  16.934  0.00  0.00    +0.000 A 
ATOM      4  C   UNL     1       4.835   5.632  17.542  0.00  0.00    +0.000 A 
ATOM      5  N   UNL     1       4.250   6.352  18.599  0.00  0.00    +0.000 NA
ATOM      6  C   UNL     1       3.128   5.927  19.089  0.00  0.00    +0.000 A 
ATOM      7  C   UNL     1       2.533   4.704  18.670  0.00  0.00    +0.000 A 
ATOM      8  C   UNL     1       1.422   3.981  19.031  0.00  0.00    +0.000 A 
ATOM      9  N   UNL     1       1.300   2.861  18.243  0.00  0.00    +0.000 NA
ATOM     10  C   UNL     1       2.323   2.904  17.412  0.00  0.00    +0.000 A 
ATOM     11  N   UNL     1       3.110   3.997  17.643  0.00  0.00    +0.000 N 
ATOM     12  C   UNL     1       4.288   4.451  17.015  0.00  0.00    +0.000 A 
ATOM     13  C   UNL     1       4.868   3.805  15.918  0.00  0.00    +0.000 A 
ENDROOT
BRANCH   1  15
ATOM     14  C   UNL     1       5.783   3.666  13.001  0.00  0.00    +0.000 C 
ATOM     15  N   UNL     1       6.586   3.684  14.217  0.00  0.00    +0.000 N 
ATOM     16  H   UNL     1       7.540   3.983  14.035  0.00  0.00    +0.000 HD
ENDBRANCH   1  15
BRANCH   6  17
ATOM     17  O   UNL     1       2.352   6.636  19.998  0.00  0.00    +0.000 OA
BRANCH  17  18
ATOM     18  C   UNL     1       1.909   7.899  19.548  0.00  0.00    +0.000 A 
ATOM     19  C   UNL     1       2.089   8.274  18.205  0.00  0.00    +0.000 A 
ATOM     20  C   UNL     1       1.721   9.545  17.778  0.00  0.00    +0.000 A 
ATOM     21  C   UNL     1       1.121  10.410  18.679  0.00  0.00    +0.000 A 
ATOM     22  F   UNL     1       0.773  11.640  18.275  0.00  0.00    +0.000 F 
ATOM     23  C   UNL     1       0.866  10.023  19.994  0.00  0.00    +0.000 A 
ATOM     24  C   UNL     1       1.252   8.751  20.447  0.00  0.00    +0.000 A 
ATOM     25  C   UNL     1       0.960   8.338  21.860  0.00  0.00    +0.000 C 
ENDBRANCH  17  18
ENDBRANCH   6  17
TORSDOF 3
ENDMDL
MODEL 3
REMARK VINA RESULT:      -7.6      5.396      9.263
REMARK  Name = 
REMARK  5 active torsions:
REMARK  status: ('A' for Active; 'I' for Inactive)
REMARK    1  A    between atoms: C_1  and  N_2
REMARK    2  A    between atoms: N_2  and  C_3
REMARK    3  A    between atoms: C_8  and  O_9
REMARK    4  A    between atoms: O_9  and  C_10
REMARK    5  A    between atoms: C_16  and  C_17
REMARK                            x       y       z     vdW  Elec       q    Type
REMARK                         _______ _______ _______ _____ _____    ______ ____
ROOT
ATOM      1  C   UNL     1       2.372   7.121  19.767  0.00  0.00    +0.000 A 
ATOM      2  C   UNL     1       2.324   7.648  18.468  0.00  0.00    +0.000 A 
ATOM      3  C   UNL     1       1.671   8.852  18.195  0.00  0.00    +0.000 A 
ATOM      4  C   UNL     1       1.017   9.543  19.208  0.00  0.00    +0.000 A 
ATOM      5  N   UNL     1       0.320  10.714  18.863  0.00  0.00    +0.000 NA
ATOM      6  C   UNL     1      -0.399  11.295  19.771  0.00  0.00    +0.000 A 
ATOM      7  C   UNL     1      -0.414  10.853  21.124  0.00  0.00    +0.000 A 
ATOM      8  C   UNL     1      -1.004  11.281  22.288  0.00  0.00    +0.000 A 
ATOM      9  N   UNL     1      -0.703  10.426  23.323  0.00  0.00    +0.000 NA
ATOM     10  C   UNL     1       0.057   9.488  22.792  0.00  0.00    +0.000 A 
ATOM     11  N   UNL     1       0.274   9.712  21.462  0.00  0.00    +0.000 N 
ATOM     12  C   UNL     1       1.009   8.990  20.500  0.00  0.00    +0.000 A 
ATOM     13  C   UNL     1       1.662   7.785  20.782  0.00  0.00    +0.000 A 
ENDROOT
BRANCH   1  15
ATOM     14  C   UNL     1       4.191   5.551  19.313  0.00  0.00    +0.000 C 
ATOM     15  N   UNL     1       2.985   5.893  20.057  0.00  0.00    +0.000 N 
ATOM     16  H   UNL     1       3.107   5.754  21.057  0.00  0.00    +0.000 HD
ENDBRANCH   1  15
BRANCH   6  17
ATOM     17  O   UNL     1      -1.279  12.341  19.522  0.00  0.00    +0.000 OA
BRANCH  17  18
ATOM     18  C   UNL     1      -2.568  11.950  19.101  0.00  0.00    +0.000 A 
ATOM     19  C   UNL     1      -2.719  10.995  18.081  0.00  0.00    +0.000 A 
ATOM     20  C   UNL     1      -3.986  10.664  17.613  0.00  0.00    +0.000 A 
ATOM     21  C   UNL     1      -5.096  11.243  18.208  0.00  0.00    +0.000 A 
ATOM     22  F   UNL     1      -6.319  10.936  17.755  0.00  0.00    +0.000 F 
ATOM     23  C   UNL     1      -4.963  12.134  19.273  0.00  0.00    +0.000 A 
ATOM     24  C   UNL     1      -3.690  12.496  19.742  0.00  0.00    +0.000 A 
ATOM     25  C   UNL     1      -3.558  13.444  20.898  0.00  0.00    +0.000 C 
ENDBRANCH  17  18
ENDBRANCH   6  17
TORSDOF 3
ENDMDL
MODEL 4
REMARK VINA RESULT:      -7.5      1.025      1.106
REMARK  Name = 
REMARK  5 active torsions:
REMARK  status: ('A' for Active; 'I' for Inactive)
REMARK    1  A    between atoms: C_1  and  N_2
REMARK    2  A    between atoms: N_2  and  C_3
REMARK    3  A    between atoms: C_8  and  O_9
REMARK    4  A    between atoms: O_9  and  C_10
REMARK    5  A    between atoms: C_16  and  C_17
REMARK                            x       y       z     vdW  Elec       q    Type
REMARK                         _______ _______ _______ _____ _____    ______ ____
ROOT
ATOM      1  C   UNL     1       1.193   9.410  19.205  0.00  0.00    +0.000 A 
ATOM      2  C   UNL     1       2.006   9.644  18.086  0.00  0.00    +0.000 A 
ATOM      3  C   UNL     1       2.861   8.658  17.588  0.00  0.00    +0.000 A 
ATOM      4  C   UNL     1       2.953   7.424  18.219  0.00  0.00    +0.000 A 
ATOM      5  N   UNL     1       3.879   6.494  17.714  0.00  0.00    +0.000 NA
ATOM      6  C   UNL     1       4.066   5.391  18.369  0.00  0.00    +0.000 A 
ATOM      7  C   UNL     1       3.289   5.046  19.510  0.00  0.00    +0.000 A 
ATOM      8  C   UNL     1       3.211   3.962  20.351  0.00  0.00    +0.000 A 
ATOM      9  N   UNL     1       2.286   4.189  21.343  0.00  0.00    +0.000 NA
ATOM     10  C   UNL     1       1.812   5.397  21.110  0.00  0.00    +0.000 A 
ATOM     11  N   UNL     1       2.379   5.952  19.998  0.00  0.00    +0.000 N 
ATOM     12  C   UNL     1       2.188   7.203  19.376  0.00  0.00    +0.000 A 
ATOM     13  C   UNL     1       1.328   8.184  19.880  0.00  0.00    +0.000 A 
ENDROOT
BRANCH   1  15
ATOM     14  C   UNL     1       0.180  10.408  21.194  0.00  0.00    +0.000 C 
ATOM     15  N   UNL     1       0.359  10.399  19.747  0.00  0.00    +0.000 N 
ATOM     16  H   UNL     1       0.582  11.324  19.389  0.00  0.00    +0.000 HD
ENDBRANCH   1  15
BRANCH   6  17
ATOM     17  O   UNL     1       5.076   4.477  18.091  0.00  0.00    +0.000 OA
BRANCH  17  18
ATOM     18  C   UNL     1       5.648   4.591  16.805  0.00  0.00    +0.000 A 
ATOM     19  C   UNL     1       4.968   4.090  15.682  0.00  0.00    +0.000 A 
ATOM     20  C   UNL     1       5.562   4.134  14.426  0.00  0.00    +0.000 A 
ATOM     21  C   UNL     1       6.806   4.732  14.291  0.00  0.00    +0.000 A 
ATOM     22  F   UNL     1       7.388   4.768  13.084  0.00  0.00    +0.000 F 
ATOM     23  C   UNL     1       7.457   5.302  15.384  0.00  0.00    +0.000 A 
ATOM     24  C   UNL     1       6.880   5.246  16.663  0.00  0.00    +0.000 A 
ATOM     25  C   UNL     1       7.581   5.875  17.830  0.00  0.00    +0.000 C 
ENDBRANCH  17  18
ENDBRANCH   6  17
TORSDOF 3
ENDMDL
MODEL 5
REMARK VINA RESULT:      -7.4      3.448      5.622
REMARK  Name = 
REMARK  5 active torsions:
REMARK  status: ('A' for Active; 'I' for Inactive)
REMARK    1  A    between atoms: C_1  and  N_2
REMARK    2  A    between atoms: N_2  and  C_3
REMARK    3  A    between atoms: C_8  and  O_9
REMARK    4  A    between atoms: O_9  and  C_10
REMARK    5  A    between atoms: C_16  and  C_17
REMARK                            x       y       z     vdW  Elec       q    Type
REMARK                         _______ _______ _______ _____ _____    ______ ____
ROOT
ATOM      1  C   UNL     1      -1.013  10.877  21.860  0.00  0.00    +0.000 A 
ATOM      2  C   UNL     1      -0.723   9.997  22.914  0.00  0.00    +0.000 A 
ATOM      3  C   UNL     1       0.225   8.983  22.774  0.00  0.00    +0.000 A 
ATOM      4  C   UNL     1       0.883   8.796  21.564  0.00  0.00    +0.000 A 
ATOM      5  N   UNL     1       1.778   7.716  21.461  0.00  0.00    +0.000 NA
ATOM      6  C   UNL     1       2.299   7.455  20.304  0.00  0.00    +0.000 A 
ATOM      7  C   UNL     1       2.082   8.287  19.169  0.00  0.00    +0.000 A 
ATOM      8  C   UNL     1       2.528   8.308  17.870  0.00  0.00    +0.000 A 
ATOM      9  N   UNL     1       1.946   9.344  17.178  0.00  0.00    +0.000 NA
ATOM     10  C   UNL     1       1.153   9.942  18.046  0.00  0.00    +0.000 A 
ATOM     11  N   UNL     1       1.213   9.347  19.274  0.00  0.00    +0.000 N 
ATOM     12  C   UNL     1       0.553   9.634  20.486  0.00  0.00    +0.000 A 
ATOM     13  C   UNL     1      -0.394  10.654  20.618  0.00  0.00    +0.000 A 
ENDROOT
BRANCH   1  15
ATOM     14  C   UNL     1      -2.406  12.276  23.303  0.00  0.00    +0.000 C 
ATOM     15  N   UNL     1      -1.992  11.876  21.964  0.00  0.00    +0.000 N 
ATOM     16  H   UNL     1      -1.779  12.680  21.379  0.00  0.00    +0.000 HD
ENDBRANCH   1  15
BRANCH   6  17
ATOM     17  O   UNL     1       3.044   6.317  20.020  0.00  0.00    +0.000 OA
BRANCH  17  18
ATOM     18  C   UNL     1       2.288   5.187  19.640  0.00  0.00    +0.000 A 
ATOM     19  C   UNL     1       1.266   4.707  20.476  0.00  0.00    +0.000 A 
ATOM     20  C   UNL     1       0.571   3.551  20.141  0.00  0.00    +0.000 A 
ATOM     21  C   UNL     1       0.860   2.915  18.943  0.00  0.00    +0.000 A 
ATOM     22  F   UNL     1       0.201   1.795  18.619  0.00  0.00    +0.000 F 
ATOM     23  C   UNL     1       1.819   3.425  18.068  0.00  0.00    +0.000 A 
ATOM     24  C   UNL     1       2.545   4.579  18.403  0.00  0.00    +0.000 A 
ATOM     25  C   UNL     1       3.564   5.127  17.448  0.00  0.00    +0.000 C 
ENDBRANCH  17  18
ENDBRANCH   6  17
TORSDOF 3
ENDMDL
MODEL 6
REMARK VINA RESULT:      -7.3      4.773      8.422
REMARK  Name = 
REMARK  5 active torsions:
REMARK  status: ('A' for Active; 'I' for Inactive)
REMARK    1  A    between atoms: C_1  and  N_2
REMARK    2  A    between atoms: N_2  and  C_3
REMARK    3  A    between atoms: C_8  and  O_9
REMARK    4  A    between atoms: O_9  and  C_10
REMARK    5  A    between atoms: C_16  and  C_17
REMARK                            x       y       z     vdW  Elec       q    Type
REMARK                         _______ _______ _______ _____ _____    ______ ____
ROOT
ATOM      1  C   UNL     1       2.853   5.993  19.526  0.00  0.00    +0.000 A 
ATOM      2  C   UNL     1       2.838   6.376  18.176  0.00  0.00    +0.000 A 
ATOM      3  C   UNL     1       2.336   7.616  17.777  0.00  0.00    +0.000 A 
ATOM      4  C   UNL     1       1.800   8.492  18.714  0.00  0.00    +0.000 A 
ATOM      5  N   UNL     1       1.248   9.698  18.247  0.00  0.00    +0.000 NA
ATOM      6  C   UNL     1       0.632  10.463  19.092  0.00  0.00    +0.000 A 
ATOM      7  C   UNL     1       0.595  10.177  20.486  0.00  0.00    +0.000 A 
ATOM      8  C   UNL     1       0.094  10.803  21.601  0.00  0.00    +0.000 A 
ATOM      9  N   UNL     1       0.311  10.036  22.722  0.00  0.00    +0.000 NA
ATOM     10  C   UNL     1       0.933   8.956  22.291  0.00  0.00    +0.000 A 
ATOM     11  N   UNL     1       1.143   9.002  20.942  0.00  0.00    +0.000 N 
ATOM     12  C   UNL     1       1.755   8.090  20.059  0.00  0.00    +0.000 A 
ATOM     13  C   UNL     1       2.258   6.850  20.467  0.00  0.00    +0.000 A 
ENDROOT
BRANCH   1  15
ATOM     14  C   UNL     1       4.337   4.089  19.133  0.00  0.00    +0.000 C 
ATOM     15  N   UNL     1       3.313   4.736  19.945  0.00  0.00    +0.000 N 
ATOM     16  H   UNL     1       3.554   4.728  20.932  0.00  0.00    +0.000 HD
ENDBRANCH   1  15
BRANCH   6  17
ATOM     17  O   UNL     1      -0.115  11.579  18.737  0.00  0.00    +0.000 OA
BRANCH  17  18
ATOM     18  C   UNL     1      -1.477  11.325  18.466  0.00  0.00    +0.000 A 
ATOM     19  C   UNL     1      -1.842  10.286  17.593  0.00  0.00    +0.000 A 
ATOM     20  C   UNL     1      -3.178  10.083  17.265  0.00  0.00    +0.000 A 
ATOM     21  C   UNL     1      -4.145  10.879  17.859  0.00  0.00    +0.000 A 
ATOM     22  F   UNL     1      -5.434  10.694  17.540  0.00  0.00    +0.000 F 
ATOM     23  C   UNL     1      -3.803  11.862  18.786  0.00  0.00    +0.000 A 
ATOM     24  C   UNL     1      -2.456  12.095  19.111  0.00  0.00    +0.000 A 
ATOM     25  C   UNL     1      -2.099  13.146  20.120  0.00  0.00    +0.000 C 
ENDBRANCH  17  18
ENDBRANCH   6  17
TORSDOF 3
ENDMDL
MODEL 7
REMARK VINA RESULT:      -7.3      3.033      6.656
REMARK  Name = 
REMARK  5 active torsions:
REMARK  status: ('A' for Active; 'I' for Inactive)
REMARK    1  A    between atoms: C_1  and  N_2
REMARK    2  A    between atoms: N_2  and  C_3
REMARK    3  A    between atoms: C_8  and  O_9
REMARK    4  A    between atoms: O_9  and  C_10
REMARK    5  A    between atoms: C_16  and  C_17
REMARK                            x       y       z     vdW  Elec       q    Type
REMARK                         _______ _______ _______ _____ _____    ______ ____
ROOT
ATOM      1  C   UNL     1       5.389   4.646  16.099  0.00  0.00    +0.000 A 
ATOM      2  C   UNL     1       5.228   6.021  15.868  0.00  0.00    +0.000 A 
ATOM      3  C   UNL     1       4.520   6.831  16.756  0.00  0.00    +0.000 A 
ATOM      4  C   UNL     1       3.920   6.282  17.883  0.00  0.00    +0.000 A 
ATOM      5  N   UNL     1       3.163   7.134  18.707  0.00  0.00    +0.000 NA
ATOM      6  C   UNL     1       2.494   6.611  19.687  0.00  0.00    +0.000 A 
ATOM      7  C   UNL     1       2.592   5.231  20.020  0.00  0.00    +0.000 A 
ATOM      8  C   UNL     1       2.076   4.421  21.002  0.00  0.00    +0.000 A 
ATOM      9  N   UNL     1       2.478   3.120  20.814  0.00  0.00    +0.000 NA
ATOM     10  C   UNL     1       3.227   3.138  19.728  0.00  0.00    +0.000 A 
ATOM     11  N   UNL     1       3.339   4.401  19.219  0.00  0.00    +0.000 N 
ATOM     12  C   UNL     1       4.024   4.897  18.090  0.00  0.00    +0.000 A 
ATOM     13  C   UNL     1       4.734   4.078  17.206  0.00  0.00    +0.000 A 
ENDROOT
BRANCH   1  15
ATOM     14  C   UNL     1       6.513   4.391  13.943  0.00  0.00    +0.000 C 
ATOM     15  N   UNL     1       6.060   3.806  15.199  0.00  0.00    +0.000 N 
ATOM     16  H   UNL     1       6.795   3.271  15.654  0.00  0.00    +0.000 HD
ENDBRANCH   1  15
BRANCH   6  17
ATOM     17  O   UNL     1       1.566   7.300  20.457  0.00  0.00    +0.000 OA
BRANCH  17  18
ATOM     18  C   UNL     1       1.337   8.637  20.063  0.00  0.00    +0.000 A 
ATOM     19  C   UNL     1       1.384   8.991  18.704  0.00  0.00    +0.000 A 
ATOM     20  C   UNL     1       1.233  10.319  18.320  0.00  0.00    +0.000 A 
ATOM     21  C   UNL     1       0.976  11.275  19.291  0.00  0.00    +0.000 A 
ATOM     22  F   UNL     1       0.840  12.558  18.928  0.00  0.00    +0.000 F 
ATOM     23  C   UNL     1       0.850  10.925  20.635  0.00  0.00    +0.000 A 
ATOM     24  C   UNL     1       1.021   9.591  21.041  0.00  0.00    +0.000 A 
ATOM     25  C   UNL     1       0.869   9.222  22.487  0.00  0.00    +0.000 C 
ENDBRANCH  17  18
ENDBRANCH   6  17
TORSDOF 3
ENDMDL
MODEL 8
REMARK VINA RESULT:      -7.2      4.017      6.195
REMARK  Name = 
REMARK  5 active torsions:
REMARK  status: ('A' for Active; 'I' for Inactive)
REMARK    1  A    between atoms: C_1  and  N_2
REMARK    2  A    between atoms: N_2  and  C_3
REMARK    3  A    between atoms: C_8  and  O_9
REMARK    4  A    between atoms: O_9  and  C_10
REMARK    5  A    between atoms: C_16  and  C_17
REMARK                            x       y       z     vdW  Elec       q    Type
REMARK                         _______ _______ _______ _____ _____    ______ ____
ROOT
ATOM      1  C   UNL     1      -2.697  12.123  19.429  0.00  0.00    +0.000 A 
ATOM      2  C   UNL     1      -2.196  11.676  18.197  0.00  0.00    +0.000 A 
ATOM      3  C   UNL     1      -1.174  10.729  18.127  0.00  0.00    +0.000 A 
ATOM      4  C   UNL     1      -0.597  10.230  19.288  0.00  0.00    +0.000 A 
ATOM      5  N   UNL     1       0.475   9.329  19.157  0.00  0.00    +0.000 NA
ATOM      6  C   UNL     1       1.103   8.956  20.228  0.00  0.00    +0.000 A 
ATOM      7  C   UNL     1       0.674   9.339  21.530  0.00  0.00    +0.000 A 
ATOM      8  C   UNL     1       1.079   9.066  22.814  0.00  0.00    +0.000 A 
ATOM      9  N   UNL     1       0.310   9.759  23.718  0.00  0.00    +0.000 NA
ATOM     10  C   UNL     1      -0.549  10.448  22.992  0.00  0.00    +0.000 A 
ATOM     11  N   UNL     1      -0.378  10.213  21.657  0.00  0.00    +0.000 N 
ATOM     12  C   UNL     1      -1.050  10.717  20.525  0.00  0.00    +0.000 A 
ATOM     13  C   UNL     1      -2.077  11.665  20.604  0.00  0.00    +0.000 A 
ENDROOT
BRANCH   1  15
ATOM     14  C   UNL     1      -4.482  13.148  20.750  0.00  0.00    +0.000 C 
ATOM     15  N   UNL     1      -3.694  13.105  19.524  0.00  0.00    +0.000 N 
ATOM     16  H   UNL     1      -3.348  14.025  19.264  0.00  0.00    +0.000 HD
ENDBRANCH   1  15
BRANCH   6  17
ATOM     17  O   UNL     1       2.285   8.226  20.227  0.00  0.00    +0.000 OA
BRANCH  17  18
ATOM     18  C   UNL     1       2.160   6.885  19.804  0.00  0.00    +0.000 A 
ATOM     19  C   UNL     1       1.529   5.940  20.630  0.00  0.00    +0.000 A 
ATOM     20  C   UNL     1       1.471   4.604  20.248  0.00  0.00    +0.000 A 
ATOM     21  C   UNL     1       1.989   4.233  19.018  0.00  0.00    +0.000 A 
ATOM     22  F   UNL     1       1.945   2.945  18.649  0.00  0.00    +0.000 F 
ATOM     23  C   UNL     1       2.549   5.174  18.155  0.00  0.00    +0.000 A 
ATOM     24  C   UNL     1       2.635   6.524  18.535  0.00  0.00    +0.000 A 
ATOM     25  C   UNL     1       3.226   7.531  17.594  0.00  0.00    +0.000 C 
ENDBRANCH  17  18
ENDBRANCH   6  17
TORSDOF 3
ENDMDL
MODEL 9
REMARK VINA RESULT:      -7.2      5.110      7.939
REMARK  Name = 
REMARK  5 active torsions:
REMARK  status: ('A' for Active; 'I' for Inactive)
REMARK    1  A    between atoms: C_1  and  N_2
REMARK    2  A    between atoms: N_2  and  C_3
REMARK    3  A    between atoms: C_8  and  O_9
REMARK    4  A    between atoms: O_9  and  C_10
REMARK    5  A    between atoms: C_16  and  C_17
REMARK                            x       y       z     vdW  Elec       q    Type
REMARK                         _______ _______ _______ _____ _____    ______ ____
ROOT
ATOM      1  C   UNL     1      -4.834  11.447  17.181  0.00  0.00    +0.000 A 
ATOM      2  C   UNL     1      -4.062  10.680  16.296  0.00  0.00    +0.000 A 
ATOM      3  C   UNL     1      -2.769  10.271  16.624  0.00  0.00    +0.000 A 
ATOM      4  C   UNL     1      -2.197  10.651  17.833  0.00  0.00    +0.000 A 
ATOM      5  N   UNL     1      -0.867  10.267  18.082  0.00  0.00    +0.000 NA
ATOM      6  C   UNL     1      -0.282  10.722  19.145  0.00  0.00    +0.000 A 
ATOM      7  C   UNL     1      -0.973  11.499  20.117  0.00  0.00    +0.000 A 
ATOM      8  C   UNL     1      -0.657  12.055  21.332  0.00  0.00    +0.000 A 
ATOM      9  N   UNL     1      -1.726  12.760  21.833  0.00  0.00    +0.000 NA
ATOM     10  C   UNL     1      -2.679  12.637  20.930  0.00  0.00    +0.000 A 
ATOM     11  N   UNL     1      -2.275  11.867  19.876  0.00  0.00    +0.000 N 
ATOM     12  C   UNL     1      -2.941  11.470  18.698  0.00  0.00    +0.000 A 
ATOM     13  C   UNL     1      -4.238  11.882  18.377  0.00  0.00    +0.000 A 
ENDROOT
BRANCH   1  15
ATOM     14  C   UNL     1      -6.424  13.305  17.122  0.00  0.00    +0.000 C 
ATOM     15  N   UNL     1      -6.119  11.904  16.854  0.00  0.00    +0.000 N 
ATOM     16  H   UNL     1      -6.392  11.633  15.913  0.00  0.00    +0.000 HD
ENDBRANCH   1  15
BRANCH   6  17
ATOM     17  O   UNL     1       1.073  10.578  19.415  0.00  0.00    +0.000 OA
BRANCH  17  18
ATOM     18  C   UNL     1       1.587   9.277  19.221  0.00  0.00    +0.000 A 
ATOM     19  C   UNL     1       2.146   8.916  17.984  0.00  0.00    +0.000 A 
ATOM     20  C   UNL     1       2.583   7.614  17.767  0.00  0.00    +0.000 A 
ATOM     21  C   UNL     1       2.516   6.699  18.806  0.00  0.00    +0.000 A 
ATOM     22  F   UNL     1       2.927   5.440  18.600  0.00  0.00    +0.000 F 
ATOM     23  C   UNL     1       2.035   7.066  20.062  0.00  0.00    +0.000 A 
ATOM     24  C   UNL     1       1.568   8.371  20.291  0.00  0.00    +0.000 A 
ATOM     25  C   UNL     1       1.066   8.760  21.650  0.00  0.00    +0.000 C 
ENDBRANCH  17  18
ENDBRANCH   6  17
TORSDOF 3
ENDMDL
