MODEL 1
REMARK VINA RESULT:      -7.3      0.000      0.000
REMARK  Name = 
REMARK  9 active torsions:
REMARK  status: ('A' for Active; 'I' for Inactive)
REMARK    1  A    between atoms: C_1  and  C_2
REMARK    2  A    between atoms: C_2  and  C_3
REMARK    3  A    between atoms: C_2  and  C_4
REMARK    4  A    between atoms: C_4  and  C_5
REMARK    5  A    between atoms: C_5  and  C_6
REMARK    6  A    between atoms: N_8  and  C_9
REMARK    7  A    between atoms: C_9  and  C_10
REMARK    8  A    between atoms: C_13  and  S_14
REMARK    9  A    between atoms: S_14  and  N_15
REMARK                            x       y       z     vdW  Elec       q    Type
REMARK                         _______ _______ _______ _____ _____    ______ ____
ROOT
ATOM      1  C   UNL     1       5.061   5.465  18.318  0.00  0.00    +0.000 A 
ATOM      2  C   UNL     1       3.826   6.033  18.671  0.00  0.00    +0.000 A 
ATOM      3  C   UNL     1       2.875   5.288  19.370  0.00  0.00    +0.000 A 
ATOM      4  C   UNL     1       3.160   3.966  19.718  0.00  0.00    +0.000 A 
ATOM      5  C   UNL     1       4.393   3.393  19.398  0.00  0.00    +0.000 A 
ATOM      6  C   UNL     1       5.341   4.143  18.700  0.00  0.00    +0.000 A 
ENDROOT
BRANCH   4   7
ATOM      7  S   UNL     1       1.955   3.020  20.602  0.00  0.00    +0.000 S 
ATOM      8  O   UNL     1       1.656   1.818  19.860  0.00  0.00    +0.000 OA
ATOM      9  O   UNL     1       2.298   3.000  22.002  0.00  0.00    +0.000 OA
BRANCH   7  10
ATOM     10  N   UNL     1       0.596   3.998  20.469  0.00  0.00    +0.000 NA
ATOM     11  H   UNL     1       0.722   4.846  21.022  0.00  0.00    +0.000 HD
ATOM     12  H   UNL     1       0.382   4.168  19.487  0.00  0.00    +0.000 HD
ENDBRANCH   7  10
ENDBRANCH   4   7
BRANCH   1  13
ATOM     13  C   UNL     1       6.072   6.271  17.544  0.00  0.00    +0.000 C 
BRANCH  13  16
ATOM     14  C   UNL     1       7.010   5.076  15.625  0.00  0.00    +0.000 C 
ATOM     15  O   UNL     1       7.878   4.545  16.310  0.00  0.00    +0.000 OA
ATOM     16  N   UNL     1       6.061   5.929  16.141  0.00  0.00    +0.000 N 
ATOM     17  H   UNL     1       5.507   6.494  15.512  0.00  0.00    +0.000 HD
BRANCH  14  18
ATOM     18  C   UNL     1       6.902   4.866  14.126  0.00  0.00    +0.000 C 
BRANCH  18  19
ATOM     19  C   UNL     1       5.633   4.100  13.735  0.00  0.00    +0.000 C 
BRANCH  19  21
ATOM     20  C   UNL     1       4.542   3.256  11.592  0.00  0.00    +0.000 C 
ATOM     21  C   UNL     1       5.791   3.224  12.474  0.00  0.00    +0.000 C 
ATOM     22  C   UNL     1       7.011   3.665  11.662  0.00  0.00    +0.000 C 
ENDBRANCH  19  21
ENDBRANCH  18  19
ENDBRANCH  14  18
ENDBRANCH  13  16
ENDBRANCH   1  13
TORSDOF 7
ENDMDL
MODEL 2
REMARK VINA RESULT:      -7.1      0.940      1.056
REMARK  Name = 
REMARK  9 active torsions:
REMARK  status: ('A' for Active; 'I' for Inactive)
REMARK    1  A    between atoms: C_1  and  C_2
REMARK    2  A    between atoms: C_2  and  C_3
REMARK    3  A    between atoms: C_2  and  C_4
REMARK    4  A    between atoms: C_4  and  C_5
REMARK    5  A    between atoms: C_5  and  C_6
REMARK    6  A    between atoms: N_8  and  C_9
REMARK    7  A    between atoms: C_9  and  C_10
REMARK    8  A    between atoms: C_13  and  S_14
REMARK    9  A    between atoms: S_14  and  N_15
REMARK                            x       y       z     vdW  Elec       q    Type
REMARK                         _______ _______ _______ _____ _____    ______ ____
ROOT
ATOM      1  C   UNL     1       4.914   5.578  17.894  0.00  0.00    +0.000 A 
ATOM      2  C   UNL     1       3.545   5.879  17.816  0.00  0.00    +0.000 A 
ATOM      3  C   UNL     1       2.612   5.141  18.547  0.00  0.00    +0.000 A 
ATOM      4  C   UNL     1       3.051   4.095  19.362  0.00  0.00    +0.000 A 
ATOM      5  C   UNL     1       4.412   3.799  19.472  0.00  0.00    +0.000 A 
ATOM      6  C   UNL     1       5.340   4.541  18.739  0.00  0.00    +0.000 A 
ENDROOT
BRANCH   4   7
ATOM      7  S   UNL     1       1.871   3.158  20.287  0.00  0.00    +0.000 S 
ATOM      8  O   UNL     1       2.504   2.634  21.473  0.00  0.00    +0.000 OA
ATOM      9  O   UNL     1       0.621   3.876  20.330  0.00  0.00    +0.000 OA
BRANCH   7  10
ATOM     10  N   UNL     1       1.618   1.842  19.275  0.00  0.00    +0.000 NA
ATOM     11  H   UNL     1       2.438   1.234  19.283  0.00  0.00    +0.000 HD
ATOM     12  H   UNL     1       0.748   1.372  19.522  0.00  0.00    +0.000 HD
ENDBRANCH   7  10
ENDBRANCH   4   7
BRANCH   1  13
ATOM     13  C   UNL     1       5.910   6.366  17.083  0.00  0.00    +0.000 C 
BRANCH  13  16
ATOM     14  C   UNL     1       6.971   4.955  15.388  0.00  0.00    +0.000 C 
ATOM     15  O   UNL     1       7.772   4.493  16.193  0.00  0.00    +0.000 OA
ATOM     16  N   UNL     1       6.002   5.871  15.730  0.00  0.00    +0.000 N 
ATOM     17  H   UNL     1       5.511   6.370  15.001  0.00  0.00    +0.000 HD
BRANCH  14  18
ATOM     18  C   UNL     1       6.977   4.583  13.916  0.00  0.00    +0.000 C 
BRANCH  18  19
ATOM     19  C   UNL     1       5.583   4.194  13.409  0.00  0.00    +0.000 C 
BRANCH  19  21
ATOM     20  C   UNL     1       4.415   3.209  11.370  0.00  0.00    +0.000 C 
ATOM     21  C   UNL     1       5.592   3.082  12.338  0.00  0.00    +0.000 C 
ATOM     22  C   UNL     1       6.908   3.097  11.558  0.00  0.00    +0.000 C 
ENDBRANCH  19  21
ENDBRANCH  18  19
ENDBRANCH  14  18
ENDBRANCH  13  16
ENDBRANCH   1  13
TORSDOF 7
ENDMDL
MODEL 3
REMARK VINA RESULT:      -7.1      0.366      1.390
REMARK  Name = 
REMARK  9 active torsions:
REMARK  status: ('A' for Active; 'I' for Inactive)
REMARK    1  A    between atoms: C_1  and  C_2
REMARK    2  A    between atoms: C_2  and  C_3
REMARK    3  A    between atoms: C_2  and  C_4
REMARK    4  A    between atoms: C_4  and  C_5
REMARK    5  A    between atoms: C_5  and  C_6
REMARK    6  A    between atoms: N_8  and  C_9
REMARK    7  A    between atoms: C_9  and  C_10
REMARK    8  A    between atoms: C_13  and  S_14
REMARK    9  A    between atoms: S_14  and  N_15
REMARK                            x       y       z     vdW  Elec       q    Type
REMARK                         _______ _______ _______ _____ _____    ______ ____
ROOT
ATOM      1  C   UNL     1       5.008   5.454  18.183  0.00  0.00    +0.000 A 
ATOM      2  C   UNL     1       5.192   4.078  18.398  0.00  0.00    +0.000 A 
ATOM      3  C   UNL     1       4.251   3.340  19.118  0.00  0.00    +0.000 A 
ATOM      4  C   UNL     1       3.120   3.981  19.628  0.00  0.00    +0.000 A 
ATOM      5  C   UNL     1       2.908   5.343  19.401  0.00  0.00    +0.000 A 
ATOM      6  C   UNL     1       3.852   6.076  18.678  0.00  0.00    +0.000 A 
ENDROOT
BRANCH   4   7
ATOM      7  S   UNL     1       1.929   3.048  20.543  0.00  0.00    +0.000 S 
ATOM      8  O   UNL     1       1.692   1.792  19.873  0.00  0.00    +0.000 OA
ATOM      9  O   UNL     1       2.239   3.128  21.949  0.00  0.00    +0.000 OA
BRANCH   7  10
ATOM     10  N   UNL     1       0.539   3.964  20.318  0.00  0.00    +0.000 NA
ATOM     11  H   UNL     1       0.377   4.112  19.322  0.00  0.00    +0.000 HD
ATOM     12  H   UNL     1      -0.245   3.535  20.809  0.00  0.00    +0.000 HD
ENDBRANCH   7  10
ENDBRANCH   4   7
BRANCH   1  13
ATOM     13  C   UNL     1       6.041   6.246  17.423  0.00  0.00    +0.000 C 
BRANCH  13  16
ATOM     14  C   UNL     1       7.047   5.031  15.552  0.00  0.00    +0.000 C 
ATOM     15  O   UNL     1       7.908   4.530  16.267  0.00  0.00    +0.000 OA
ATOM     16  N   UNL     1       6.071   5.876  16.028  0.00  0.00    +0.000 N 
ATOM     17  H   UNL     1       5.522   6.420  15.374  0.00  0.00    +0.000 HD
BRANCH  14  18
ATOM     18  C   UNL     1       6.980   4.791  14.054  0.00  0.00    +0.000 C 
BRANCH  18  19
ATOM     19  C   UNL     1       5.844   3.838  13.668  0.00  0.00    +0.000 C 
BRANCH  19  21
ATOM     20  C   UNL     1       6.672   2.379  11.750  0.00  0.00    +0.000 C 
ATOM     21  C   UNL     1       5.761   3.538  12.156  0.00  0.00    +0.000 C 
ATOM     22  C   UNL     1       4.318   3.230  11.748  0.00  0.00    +0.000 C 
ENDBRANCH  19  21
ENDBRANCH  18  19
ENDBRANCH  14  18
ENDBRANCH  13  16
ENDBRANCH   1  13
TORSDOF 7
ENDMDL
MODEL 4
REMARK VINA RESULT:      -7.0      1.312      1.870
REMARK  Name = 
REMARK  9 active torsions:
REMARK  status: ('A' for Active; 'I' for Inactive)
REMARK    1  A    between atoms: C_1  and  C_2
REMARK    2  A    between atoms: C_2  and  C_3
REMARK    3  A    between atoms: C_2  and  C_4
REMARK    4  A    between atoms: C_4  and  C_5
REMARK    5  A    between atoms: C_5  and  C_6
REMARK    6  A    between atoms: N_8  and  C_9
REMARK    7  A    between atoms: C_9  and  C_10
REMARK    8  A    between atoms: C_13  and  S_14
REMARK    9  A    between atoms: S_14  and  N_15
REMARK                            x       y       z     vdW  Elec       q    Type
REMARK                         _______ _______ _______ _____ _____    ______ ____
ROOT
ATOM      1  C   UNL     1       4.539   5.419  17.287  0.00  0.00    +0.000 A 
ATOM      2  C   UNL     1       4.273   4.050  17.115  0.00  0.00    +0.000 A 
ATOM      3  C   UNL     1       3.478   3.361  18.031  0.00  0.00    +0.000 A 
ATOM      4  C   UNL     1       2.945   4.043  19.128  0.00  0.00    +0.000 A 
ATOM      5  C   UNL     1       3.177   5.409  19.299  0.00  0.00    +0.000 A 
ATOM      6  C   UNL     1       3.972   6.095  18.379  0.00  0.00    +0.000 A 
ENDROOT
BRANCH   4   7
ATOM      7  S   UNL     1       1.939   3.170  20.291  0.00  0.00    +0.000 S 
ATOM      8  O   UNL     1       2.772   2.665  21.356  0.00  0.00    +0.000 OA
ATOM      9  O   UNL     1       0.735   3.923  20.540  0.00  0.00    +0.000 OA
BRANCH   7  10
ATOM     10  N   UNL     1       1.472   1.829  19.392  0.00  0.00    +0.000 NA
ATOM     11  H   UNL     1       1.078   1.117  20.008  0.00  0.00    +0.000 HD
ATOM     12  H   UNL     1       0.853   2.115  18.635  0.00  0.00    +0.000 HD
ENDBRANCH   7  10
ENDBRANCH   4   7
BRANCH   1  13
ATOM     13  C   UNL     1       5.417   6.149  16.304  0.00  0.00    +0.000 C 
BRANCH  13  16
ATOM     14  C   UNL     1       6.708   4.818  14.707  0.00  0.00    +0.000 C 
ATOM     15  O   UNL     1       7.702   4.815  15.427  0.00  0.00    +0.000 OA
ATOM     16  N   UNL     1       5.527   5.431  15.056  0.00  0.00    +0.000 N 
ATOM     17  H   UNL     1       4.818   5.582  14.351  0.00  0.00    +0.000 HD
BRANCH  14  18
ATOM     18  C   UNL     1       6.682   4.160  13.339  0.00  0.00    +0.000 C 
BRANCH  18  19
ATOM     19  C   UNL     1       5.260   3.808  12.890  0.00  0.00    +0.000 C 
BRANCH  19  21
ATOM     20  C   UNL     1       5.877   1.787  11.466  0.00  0.00    +0.000 C 
ATOM     21  C   UNL     1       5.185   3.150  11.495  0.00  0.00    +0.000 C 
ATOM     22  C   UNL     1       3.729   3.002  11.048  0.00  0.00    +0.000 C 
ENDBRANCH  19  21
ENDBRANCH  18  19
ENDBRANCH  14  18
ENDBRANCH  13  16
ENDBRANCH   1  13
TORSDOF 7
ENDMDL
MODEL 5
REMARK VINA RESULT:      -7.0      1.522      1.908
REMARK  Name = 
REMARK  9 active torsions:
REMARK  status: ('A' for Active; 'I' for Inactive)
REMARK    1  A    between atoms: C_1  and  C_2
REMARK    2  A    between atoms: C_2  and  C_3
REMARK    3  A    between atoms: C_2  and  C_4
REMARK    4  A    between atoms: C_4  and  C_5
REMARK    5  A    between atoms: C_5  and  C_6
REMARK    6  A    between atoms: N_8  and  C_9
REMARK    7  A    between atoms: C_9  and  C_10
REMARK    8  A    between atoms: C_13  and  S_14
REMARK    9  A    between atoms: S_14  and  N_15
REMARK                            x       y       z     vdW  Elec       q    Type
REMARK                         _______ _______ _______ _____ _____    ______ ____
ROOT
ATOM      1  C   UNL     1       5.264   4.305  17.503  0.00  0.00    +0.000 A 
ATOM      2  C   UNL     1       5.304   4.295  18.906  0.00  0.00    +0.000 A 
ATOM      3  C   UNL     1       4.166   3.973  19.647  0.00  0.00    +0.000 A 
ATOM      4  C   UNL     1       2.979   3.659  18.981  0.00  0.00    +0.000 A 
ATOM      5  C   UNL     1       2.928   3.638  17.585  0.00  0.00    +0.000 A 
ATOM      6  C   UNL     1       4.070   3.960  16.849  0.00  0.00    +0.000 A 
ENDROOT
BRANCH   4   7
ATOM      7  S   UNL     1       1.536   3.253  19.919  0.00  0.00    +0.000 S 
ATOM      8  O   UNL     1       1.862   2.218  20.870  0.00  0.00    +0.000 OA
ATOM      9  O   UNL     1       0.856   4.467  20.298  0.00  0.00    +0.000 OA
BRANCH   7  10
ATOM     10  N   UNL     1       0.571   2.524  18.752  0.00  0.00    +0.000 NA
ATOM     11  H   UNL     1       0.546   1.515  18.902  0.00  0.00    +0.000 HD
ATOM     12  H   UNL     1      -0.347   2.965  18.733  0.00  0.00    +0.000 HD
ENDBRANCH   7  10
ENDBRANCH   4   7
BRANCH   1  13
ATOM     13  C   UNL     1       6.492   4.676  16.712  0.00  0.00    +0.000 C 
BRANCH  13  16
ATOM     14  C   UNL     1       7.173   4.801  14.365  0.00  0.00    +0.000 C 
ATOM     15  O   UNL     1       7.986   5.692  14.590  0.00  0.00    +0.000 OA
ATOM     16  N   UNL     1       6.401   4.221  15.346  0.00  0.00    +0.000 N 
ATOM     17  H   UNL     1       5.610   3.648  15.082  0.00  0.00    +0.000 HD
BRANCH  14  18
ATOM     18  C   UNL     1       6.915   4.256  12.972  0.00  0.00    +0.000 C 
BRANCH  18  19
ATOM     19  C   UNL     1       5.561   3.544  12.868  0.00  0.00    +0.000 C 
BRANCH  19  21
ATOM     20  C   UNL     1       5.773   1.516  11.339  0.00  0.00    +0.000 C 
ATOM     21  C   UNL     1       5.268   2.953  11.472  0.00  0.00    +0.000 C 
ATOM     22  C   UNL     1       3.768   3.004  11.172  0.00  0.00    +0.000 C 
ENDBRANCH  19  21
ENDBRANCH  18  19
ENDBRANCH  14  18
ENDBRANCH  13  16
ENDBRANCH   1  13
TORSDOF 7
ENDMDL
MODEL 6
REMARK VINA RESULT:      -6.9      3.315      5.386
REMARK  Name = 
REMARK  9 active torsions:
REMARK  status: ('A' for Active; 'I' for Inactive)
REMARK    1  A    between atoms: C_1  and  C_2
REMARK    2  A    between atoms: C_2  and  C_3
REMARK    3  A    between atoms: C_2  and  C_4
REMARK    4  A    between atoms: C_4  and  C_5
REMARK    5  A    between atoms: C_5  and  C_6
REMARK    6  A    between atoms: N_8  and  C_9
REMARK    7  A    between atoms: C_9  and  C_10
REMARK    8  A    between atoms: C_13  and  S_14
REMARK    9  A    between atoms: S_14  and  N_15
REMARK                            x       y       z     vdW  Elec       q    Type
REMARK                         _______ _______ _______ _____ _____    ______ ____
ROOT
ATOM      1  C   UNL     1       6.016   4.489  17.989  0.00  0.00    +0.000 A 
ATOM      2  C   UNL     1       5.376   4.675  19.225  0.00  0.00    +0.000 A 
ATOM      3  C   UNL     1       4.011   4.419  19.364  0.00  0.00    +0.000 A 
ATOM      4  C   UNL     1       3.280   3.975  18.260  0.00  0.00    +0.000 A 
ATOM      5  C   UNL     1       3.906   3.758  17.030  0.00  0.00    +0.000 A 
ATOM      6  C   UNL     1       5.272   4.014  16.897  0.00  0.00    +0.000 A 
ENDROOT
BRANCH   4   7
ATOM      7  S   UNL     1       1.550   3.652  18.435  0.00  0.00    +0.000 S 
ATOM      8  O   UNL     1       1.121   4.058  19.752  0.00  0.00    +0.000 OA
ATOM      9  O   UNL     1       0.865   4.067  17.236  0.00  0.00    +0.000 OA
BRANCH   7  10
ATOM     10  N   UNL     1       1.519   1.973  18.433  0.00  0.00    +0.000 NA
ATOM     11  H   UNL     1       1.401   1.628  17.480  0.00  0.00    +0.000 HD
ATOM     12  H   UNL     1       2.343   1.607  18.910  0.00  0.00    +0.000 HD
ENDBRANCH   7  10
ENDBRANCH   4   7
BRANCH   1  13
ATOM     13  C   UNL     1       7.486   4.789  17.843  0.00  0.00    +0.000 C 
BRANCH  13  16
ATOM     14  C   UNL     1       7.837   7.211  17.832  0.00  0.00    +0.000 C 
ATOM     15  O   UNL     1       7.504   7.310  16.655  0.00  0.00    +0.000 OA
ATOM     16  N   UNL     1       7.845   6.016  18.514  0.00  0.00    +0.000 N 
ATOM     17  H   UNL     1       8.319   5.955  19.405  0.00  0.00    +0.000 HD
BRANCH  14  18
ATOM     18  C   UNL     1       8.300   8.397  18.659  0.00  0.00    +0.000 C 
BRANCH  18  19
ATOM     19  C   UNL     1       8.274   9.706  17.862  0.00  0.00    +0.000 C 
BRANCH  19  21
ATOM     20  C   UNL     1       8.960  12.161  17.875  0.00  0.00    +0.000 C 
ATOM     21  C   UNL     1       9.319  10.745  18.325  0.00  0.00    +0.000 C 
ATOM     22  C   UNL     1       9.475  10.708  19.847  0.00  0.00    +0.000 C 
ENDBRANCH  19  21
ENDBRANCH  18  19
ENDBRANCH  14  18
ENDBRANCH  13  16
ENDBRANCH   1  13
TORSDOF 7
ENDMDL
MODEL 7
REMARK VINA RESULT:      -6.9      1.464      1.888
REMARK  Name = 
REMARK  9 active torsions:
REMARK  status: ('A' for Active; 'I' for Inactive)
REMARK    1  A    between atoms: C_1  and  C_2
REMARK    2  A    between atoms: C_2  and  C_3
REMARK    3  A    between atoms: C_2  and  C_4
REMARK    4  A    between atoms: C_4  and  C_5
REMARK    5  A    between atoms: C_5  and  C_6
REMARK    6  A    between atoms: N_8  and  C_9
REMARK    7  A    between atoms: C_9  and  C_10
REMARK    8  A    between atoms: C_13  and  S_14
REMARK    9  A    between atoms: S_14  and  N_15
REMARK                            x       y       z     vdW  Elec       q    Type
REMARK                         _______ _______ _______ _____ _____    ______ ____
ROOT
ATOM      1  C   UNL     1       4.627   5.307  17.279  0.00  0.00    +0.000 A 
ATOM      2  C   UNL     1       4.615   5.881  18.561  0.00  0.00    +0.000 A 
ATOM      3  C   UNL     1       3.939   5.258  19.612  0.00  0.00    +0.000 A 
ATOM      4  C   UNL     1       3.271   4.054  19.380  0.00  0.00    +0.000 A 
ATOM      5  C   UNL     1       3.295   3.456  18.118  0.00  0.00    +0.000 A 
ATOM      6  C   UNL     1       3.973   4.082  17.071  0.00  0.00    +0.000 A 
ENDROOT
BRANCH   4   7
ATOM      7  S   UNL     1       2.412   3.265  20.709  0.00  0.00    +0.000 S 
ATOM      8  O   UNL     1       2.168   4.229  21.756  0.00  0.00    +0.000 OA
ATOM      9  O   UNL     1       1.371   2.425  20.172  0.00  0.00    +0.000 OA
BRANCH   7  10
ATOM     10  N   UNL     1       3.592   2.226  21.301  0.00  0.00    +0.000 NA
ATOM     11  H   UNL     1       3.533   1.326  20.824  0.00  0.00    +0.000 HD
ATOM     12  H   UNL     1       4.508   2.669  21.246  0.00  0.00    +0.000 HD
ENDBRANCH   7  10
ENDBRANCH   4   7
BRANCH   1  13
ATOM     13  C   UNL     1       5.341   5.999  16.147  0.00  0.00    +0.000 C 
BRANCH  13  16
ATOM     14  C   UNL     1       6.704   4.880  14.451  0.00  0.00    +0.000 C 
ATOM     15  O   UNL     1       7.749   5.326  14.915  0.00  0.00    +0.000 OA
ATOM     16  N   UNL     1       5.467   5.138  14.995  0.00  0.00    +0.000 N 
ATOM     17  H   UNL     1       4.635   4.924  14.461  0.00  0.00    +0.000 HD
BRANCH  14  18
ATOM     18  C   UNL     1       6.663   4.010  13.207  0.00  0.00    +0.000 C 
BRANCH  18  19
ATOM     19  C   UNL     1       5.230   3.671  12.782  0.00  0.00    +0.000 C 
BRANCH  19  21
ATOM     20  C   UNL     1       5.717   1.647  11.312  0.00  0.00    +0.000 C 
ATOM     21  C   UNL     1       5.121   3.054  11.371  0.00  0.00    +0.000 C 
ATOM     22  C   UNL     1       3.662   3.019  10.911  0.00  0.00    +0.000 C 
ENDBRANCH  19  21
ENDBRANCH  18  19
ENDBRANCH  14  18
ENDBRANCH  13  16
ENDBRANCH   1  13
TORSDOF 7
ENDMDL
MODEL 8
REMARK VINA RESULT:      -6.8      1.256      1.594
REMARK  Name = 
REMARK  9 active torsions:
REMARK  status: ('A' for Active; 'I' for Inactive)
REMARK    1  A    between atoms: C_1  and  C_2
REMARK    2  A    between atoms: C_2  and  C_3
REMARK    3  A    between atoms: C_2  and  C_4
REMARK    4  A    between atoms: C_4  and  C_5
REMARK    5  A    between atoms: C_5  and  C_6
REMARK    6  A    between atoms: N_8  and  C_9
REMARK    7  A    between atoms: C_9  and  C_10
REMARK    8  A    between atoms: C_13  and  S_14
REMARK    9  A    between atoms: S_14  and  N_15
REMARK                            x       y       z     vdW  Elec       q    Type
REMARK                         _______ _______ _______ _____ _____    ______ ____
ROOT
ATOM      1  C   UNL     1       4.605   5.168  17.431  0.00  0.00    +0.000 A 
ATOM      2  C   UNL     1       3.269   5.548  17.639  0.00  0.00    +0.000 A 
ATOM      3  C   UNL     1       2.499   4.927  18.624  0.00  0.00    +0.000 A 
ATOM      4  C   UNL     1       3.067   3.919  19.406  0.00  0.00    +0.000 A 
ATOM      5  C   UNL     1       4.402   3.547  19.231  0.00  0.00    +0.000 A 
ATOM      6  C   UNL     1       5.168   4.172  18.245  0.00  0.00    +0.000 A 
ENDROOT
BRANCH   4   7
ATOM      7  S   UNL     1       2.092   3.130  20.652  0.00  0.00    +0.000 S 
ATOM      8  O   UNL     1       2.963   2.603  21.675  0.00  0.00    +0.000 OA
ATOM      9  O   UNL     1       0.949   3.955  20.957  0.00  0.00    +0.000 OA
BRANCH   7  10
ATOM     10  N   UNL     1       1.495   1.798  19.819  0.00  0.00    +0.000 NA
ATOM     11  H   UNL     1       0.895   1.245  20.431  0.00  0.00    +0.000 HD
ATOM     12  H   UNL     1       1.046   2.099  18.955  0.00  0.00    +0.000 HD
ENDBRANCH   7  10
ENDBRANCH   4   7
BRANCH   1  13
ATOM     13  C   UNL     1       5.421   5.830  16.351  0.00  0.00    +0.000 C 
BRANCH  13  16
ATOM     14  C   UNL     1       6.715   4.861  14.513  0.00  0.00    +0.000 C 
ATOM     15  O   UNL     1       7.753   5.396  14.889  0.00  0.00    +0.000 OA
ATOM     16  N   UNL     1       5.516   4.998  15.175  0.00  0.00    +0.000 N 
ATOM     17  H   UNL     1       4.660   4.715  14.716  0.00  0.00    +0.000 HD
BRANCH  14  18
ATOM     18  C   UNL     1       6.636   4.007  13.261  0.00  0.00    +0.000 C 
BRANCH  18  19
ATOM     19  C   UNL     1       5.194   3.820  12.775  0.00  0.00    +0.000 C 
BRANCH  19  21
ATOM     20  C   UNL     1       5.711   1.738  11.398  0.00  0.00    +0.000 C 
ATOM     21  C   UNL     1       5.079   3.131  11.398  0.00  0.00    +0.000 C 
ATOM     22  C   UNL     1       3.615   3.036  10.965  0.00  0.00    +0.000 C 
ENDBRANCH  19  21
ENDBRANCH  18  19
ENDBRANCH  14  18
ENDBRANCH  13  16
ENDBRANCH   1  13
TORSDOF 7
ENDMDL
MODEL 9
REMARK VINA RESULT:      -6.8      2.792      4.884
REMARK  Name = 
REMARK  9 active torsions:
REMARK  status: ('A' for Active; 'I' for Inactive)
REMARK    1  A    between atoms: C_1  and  C_2
REMARK    2  A    between atoms: C_2  and  C_3
REMARK    3  A    between atoms: C_2  and  C_4
REMARK    4  A    between atoms: C_4  and  C_5
REMARK    5  A    between atoms: C_5  and  C_6
REMARK    6  A    between atoms: N_8  and  C_9
REMARK    7  A    between atoms: C_9  and  C_10
REMARK    8  A    between atoms: C_13  and  S_14
REMARK    9  A    between atoms: S_14  and  N_15
REMARK                            x       y       z     vdW  Elec       q    Type
REMARK                         _______ _______ _______ _____ _____    ______ ____
ROOT
ATOM      1  C   UNL     1       4.415   5.706  17.107  0.00  0.00    +0.000 A 
ATOM      2  C   UNL     1       3.646   6.260  18.143  0.00  0.00    +0.000 A 
ATOM      3  C   UNL     1       2.888   5.441  18.981  0.00  0.00    +0.000 A 
ATOM      4  C   UNL     1       2.897   4.059  18.782  0.00  0.00    +0.000 A 
ATOM      5  C   UNL     1       3.677   3.489  17.774  0.00  0.00    +0.000 A 
ATOM      6  C   UNL     1       4.435   4.312  16.939  0.00  0.00    +0.000 A 
ENDROOT
BRANCH   4   7
ATOM      7  S   UNL     1       1.935   3.021  19.842  0.00  0.00    +0.000 S 
ATOM      8  O   UNL     1       2.766   2.539  20.919  0.00  0.00    +0.000 OA
ATOM      9  O   UNL     1       0.649   3.633  20.070  0.00  0.00    +0.000 OA
BRANCH   7  10
ATOM     10  N   UNL     1       1.651   1.697  18.847  0.00  0.00    +0.000 NA
ATOM     11  H   UNL     1       2.392   1.005  18.968  0.00  0.00    +0.000 HD
ATOM     12  H   UNL     1       0.712   1.334  19.008  0.00  0.00    +0.000 HD
ENDBRANCH   7  10
ENDBRANCH   4   7
BRANCH   1  13
ATOM     13  C   UNL     1       5.213   6.601  16.194  0.00  0.00    +0.000 C 
BRANCH  13  16
ATOM     14  C   UNL     1       7.351   6.872  17.353  0.00  0.00    +0.000 C 
ATOM     15  O   UNL     1       7.694   5.721  17.107  0.00  0.00    +0.000 OA
ATOM     16  N   UNL     1       6.155   7.408  16.932  0.00  0.00    +0.000 N 
ATOM     17  H   UNL     1       5.832   8.278  17.333  0.00  0.00    +0.000 HD
BRANCH  14  18
ATOM     18  C   UNL     1       8.201   7.827  18.171  0.00  0.00    +0.000 C 
BRANCH  18  19
ATOM     19  C   UNL     1       7.897   9.295  17.853  0.00  0.00    +0.000 C 
BRANCH  19  21
ATOM     20  C   UNL     1       8.736  11.700  17.776  0.00  0.00    +0.000 C 
ATOM     21  C   UNL     1       9.042  10.267  18.210  0.00  0.00    +0.000 C 
ATOM     22  C   UNL     1       9.330  10.230  19.713  0.00  0.00    +0.000 C 
ENDBRANCH  19  21
ENDBRANCH  18  19
ENDBRANCH  14  18
ENDBRANCH  13  16
ENDBRANCH   1  13
TORSDOF 7
ENDMDL
