MODEL 1
REMARK VINA RESULT:      -8.0      0.000      0.000
REMARK  Name = 
REMARK  7 active torsions:
REMARK  status: ('A' for Active; 'I' for Inactive)
REMARK    1  A    between atoms: C_1  and  C_2
REMARK    2  A    between atoms: C_2  and  C_3
REMARK    3  A    between atoms: C_2  and  C_4
REMARK    4  A    between atoms: C_2  and  C_5
REMARK    5  A    between atoms: C_9  and  C_10
REMARK    6  A    between atoms: C_16  and  C_17
REMARK    7  A    between atoms: C_20  and  C_21
REMARK                            x       y       z     vdW  Elec       q    Type
REMARK                         _______ _______ _______ _____ _____    ______ ____
ROOT
ATOM      1  C   UNL     1       0.810   9.980  19.949  0.00  0.00    +0.000 C 
ATOM      2  CA  UNL     1       1.432   8.828  19.638  0.00  0.00    +0.000 A 
ATOM      3  N   UNL     1       1.469   7.743  20.484  0.00  0.00    +0.000 N 
ATOM      4  C   UNL     1       2.097   6.553  20.230  0.00  0.00    +0.000 A 
ATOM      5  O   UNL     1       2.090   5.627  21.034  0.00  0.00    +0.000 OA
ATOM      6  CA  UNL     1       2.796   6.472  18.897  0.00  0.00    +0.000 A 
ATOM      7  C   UNL     1       3.460   5.344  18.594  0.00  0.00    +0.000 C 
ATOM      8  N   UNL     1       2.738   7.549  18.042  0.00  0.00    +0.000 N 
ATOM      9  C   UNL     1       2.105   8.735  18.302  0.00  0.00    +0.000 A 
ATOM     10  O   UNL     1       2.103   9.645  17.480  0.00  0.00    +0.000 OA
ATOM     11  H   UNL     1       0.990   7.840  21.379  0.00  0.00    +0.000 HD
ATOM     12  H   UNL     1       3.188   7.497  17.139  0.00  0.00    +0.000 HD
ENDROOT
BRANCH   1  17
ATOM     13  C   UNL     1      -0.900  11.207  21.358  0.00  0.00    +0.000 A 
ATOM     14  N   UNL     1      -1.229  11.017  22.689  0.00  0.00    +0.000 N 
ATOM     15  C   UNL     1      -0.449  10.023  23.198  0.00  0.00    +0.000 A 
ATOM     16  N   UNL     1       0.364   9.545  22.291  0.00  0.00    +0.000 NA
ATOM     17  C   UNL     1       0.096  10.265  21.149  0.00  0.00    +0.000 A 
ATOM     18  H   UNL     1      -1.930  11.523  23.213  0.00  0.00    +0.000 HD
BRANCH  13  20
ATOM     19  C   UNL     1      -2.084  11.621  19.159  0.00  0.00    +0.000 C 
ATOM     20  C   UNL     1      -1.584  12.248  20.481  0.00  0.00    +0.000 C 
ATOM     21  C   UNL     1      -0.605  13.382  20.122  0.00  0.00    +0.000 C 
ATOM     22  C   UNL     1      -2.809  12.851  21.196  0.00  0.00    +0.000 C 
ENDBRANCH  13  20
ENDBRANCH   1  17
BRANCH   7  23
ATOM     23  C   UNL     1       4.195   5.136  17.343  0.00  0.00    +0.000 A 
ATOM     24  C   UNL     1       4.446   3.839  16.883  0.00  0.00    +0.000 A 
ATOM     25  C   UNL     1       5.212   3.638  15.729  0.00  0.00    +0.000 A 
ATOM     26  C   UNL     1       5.729   4.733  15.028  0.00  0.00    +0.000 A 
ATOM     27  C   UNL     1       5.464   6.030  15.480  0.00  0.00    +0.000 A 
ATOM     28  C   UNL     1       4.699   6.230  16.635  0.00  0.00    +0.000 A 
BRANCH  26  29
ATOM     29  C   UNL     1       6.539   4.527  13.860  0.00  0.00    +0.000 C 
ATOM     30  N   UNL     1       7.196   4.367  12.918  0.00  0.00    +0.000 NA
ENDBRANCH  26  29
ENDBRANCH   7  23
TORSDOF 4
ENDMDL
MODEL 2
REMARK VINA RESULT:      -8.0      0.472      1.343
REMARK  Name = 
REMARK  7 active torsions:
REMARK  status: ('A' for Active; 'I' for Inactive)
REMARK    1  A    between atoms: C_1  and  C_2
REMARK    2  A    between atoms: C_2  and  C_3
REMARK    3  A    between atoms: C_2  and  C_4
REMARK    4  A    between atoms: C_2  and  C_5
REMARK    5  A    between atoms: C_9  and  C_10
REMARK    6  A    between atoms: C_16  and  C_17
REMARK    7  A    between atoms: C_20  and  C_21
REMARK                            x       y       z     vdW  Elec       q    Type
REMARK                         _______ _______ _______ _____ _____    ______ ____
ROOT
ATOM      1  C   UNL     1       0.699  10.273  19.789  0.00  0.00    +0.000 C 
ATOM      2  CA  UNL     1       1.306   9.089  19.586  0.00  0.00    +0.000 A 
ATOM      3  N   UNL     1       1.263   8.058  20.497  0.00  0.00    +0.000 N 
ATOM      4  C   UNL     1       1.872   6.841  20.354  0.00  0.00    +0.000 A 
ATOM      5  O   UNL     1       1.792   5.966  21.211  0.00  0.00    +0.000 OA
ATOM      6  CA  UNL     1       2.649   6.662  19.075  0.00  0.00    +0.000 A 
ATOM      7  C   UNL     1       3.299   5.502  18.882  0.00  0.00    +0.000 C 
ATOM      8  N   UNL     1       2.673   7.685  18.155  0.00  0.00    +0.000 N 
ATOM      9  C   UNL     1       2.057   8.899  18.304  0.00  0.00    +0.000 A 
ATOM     10  O   UNL     1       2.130   9.757  17.430  0.00  0.00    +0.000 OA
ATOM     11  H   UNL     1       0.732   8.221  21.353  0.00  0.00    +0.000 HD
ATOM     12  H   UNL     1       3.175   7.566  17.287  0.00  0.00    +0.000 HD
ENDROOT
BRANCH   1  17
ATOM     13  C   UNL     1      -1.136  11.544  20.987  0.00  0.00    +0.000 A 
ATOM     14  N   UNL     1      -1.508  11.486  22.319  0.00  0.00    +0.000 N 
ATOM     15  C   UNL     1      -0.693  10.607  22.966  0.00  0.00    +0.000 A 
ATOM     16  N   UNL     1       0.182  10.079  22.148  0.00  0.00    +0.000 NA
ATOM     17  C   UNL     1      -0.079  10.647  20.923  0.00  0.00    +0.000 A 
ATOM     18  H   UNL     1      -2.256  12.005  22.756  0.00  0.00    +0.000 HD
BRANCH  13  20
ATOM     19  C   UNL     1      -3.011  13.206  20.626  0.00  0.00    +0.000 C 
ATOM     20  C   UNL     1      -1.841  12.435  19.972  0.00  0.00    +0.000 C 
ATOM     21  C   UNL     1      -2.420  11.592  18.820  0.00  0.00    +0.000 C 
ATOM     22  C   UNL     1      -0.869  13.480  19.390  0.00  0.00    +0.000 C 
ENDBRANCH  13  20
ENDBRANCH   1  17
BRANCH   7  23
ATOM     23  C   UNL     1       4.103   5.200  17.694  0.00  0.00    +0.000 A 
ATOM     24  C   UNL     1       4.831   6.214  17.062  0.00  0.00    +0.000 A 
ATOM     25  C   UNL     1       5.538   5.943  15.885  0.00  0.00    +0.000 A 
ATOM     26  C   UNL     1       5.522   4.657  15.335  0.00  0.00    +0.000 A 
ATOM     27  C   UNL     1       4.806   3.640  15.976  0.00  0.00    +0.000 A 
ATOM     28  C   UNL     1       4.098   3.912  17.152  0.00  0.00    +0.000 A 
BRANCH  26  29
ATOM     29  C   UNL     1       6.223   4.385  14.111  0.00  0.00    +0.000 C 
ATOM     30  N   UNL     1       6.789   4.159  13.124  0.00  0.00    +0.000 NA
ENDBRANCH  26  29
ENDBRANCH   7  23
TORSDOF 4
ENDMDL
MODEL 3
REMARK VINA RESULT:      -7.9      3.966      6.620
REMARK  Name = 
REMARK  7 active torsions:
REMARK  status: ('A' for Active; 'I' for Inactive)
REMARK    1  A    between atoms: C_1  and  C_2
REMARK    2  A    between atoms: C_2  and  C_3
REMARK    3  A    between atoms: C_2  and  C_4
REMARK    4  A    between atoms: C_2  and  C_5
REMARK    5  A    between atoms: C_9  and  C_10
REMARK    6  A    between atoms: C_16  and  C_17
REMARK    7  A    between atoms: C_20  and  C_21
REMARK                            x       y       z     vdW  Elec       q    Type
REMARK                         _______ _______ _______ _____ _____    ______ ____
ROOT
ATOM      1  C   UNL     1      -5.131  11.485  17.621  0.00  0.00    +0.000 C 
ATOM      2  CA  UNL     1      -3.877  11.379  18.098  0.00  0.00    +0.000 A 
ATOM      3  N   UNL     1      -3.267  12.372  18.830  0.00  0.00    +0.000 N 
ATOM      4  C   UNL     1      -1.992  12.329  19.327  0.00  0.00    +0.000 A 
ATOM      5  O   UNL     1      -1.511  13.255  19.972  0.00  0.00    +0.000 OA
ATOM      6  CA  UNL     1      -1.228  11.067  19.017  0.00  0.00    +0.000 A 
ATOM      7  C   UNL     1       0.041  10.970  19.447  0.00  0.00    +0.000 C 
ATOM      8  N   UNL     1      -1.848  10.065  18.304  0.00  0.00    +0.000 N 
ATOM      9  C   UNL     1      -3.125  10.115  17.813  0.00  0.00    +0.000 A 
ATOM     10  O   UNL     1      -3.599   9.173  17.187  0.00  0.00    +0.000 OA
ATOM     11  H   UNL     1      -3.815  13.213  19.013  0.00  0.00    +0.000 HD
ATOM     12  H   UNL     1      -1.349   9.209  18.108  0.00  0.00    +0.000 HD
ENDROOT
BRANCH   1  17
ATOM     13  C   UNL     1      -6.729  12.950  18.931  0.00  0.00    +0.000 A 
ATOM     14  N   UNL     1      -7.395  14.093  18.523  0.00  0.00    +0.000 N 
ATOM     15  C   UNL     1      -7.077  14.348  17.224  0.00  0.00    +0.000 A 
ATOM     16  N   UNL     1      -6.243  13.455  16.754  0.00  0.00    +0.000 NA
ATOM     17  C   UNL     1      -6.018  12.585  17.796  0.00  0.00    +0.000 A 
ATOM     18  H   UNL     1      -8.018  14.657  19.084  0.00  0.00    +0.000 HD
BRANCH  13  20
ATOM     19  C   UNL     1      -5.519  12.464  21.101  0.00  0.00    +0.000 C 
ATOM     20  C   UNL     1      -6.860  12.377  20.336  0.00  0.00    +0.000 C 
ATOM     21  C   UNL     1      -7.273  10.893  20.280  0.00  0.00    +0.000 C 
ATOM     22  C   UNL     1      -7.908  13.158  21.153  0.00  0.00    +0.000 C 
ENDBRANCH  13  20
ENDBRANCH   1  17
BRANCH   7  23
ATOM     23  C   UNL     1       0.902   9.808  19.204  0.00  0.00    +0.000 A 
ATOM     24  C   UNL     1       1.439   9.586  17.932  0.00  0.00    +0.000 A 
ATOM     25  C   UNL     1       2.199   8.438  17.680  0.00  0.00    +0.000 A 
ATOM     26  C   UNL     1       2.427   7.507  18.699  0.00  0.00    +0.000 A 
ATOM     27  C   UNL     1       1.902   7.738  19.975  0.00  0.00    +0.000 A 
ATOM     28  C   UNL     1       1.141   8.885  20.226  0.00  0.00    +0.000 A 
BRANCH  26  29
ATOM     29  C   UNL     1       3.182   6.315  18.433  0.00  0.00    +0.000 C 
ATOM     30  N   UNL     1       3.786   5.350  18.215  0.00  0.00    +0.000 NA
ENDBRANCH  26  29
ENDBRANCH   7  23
TORSDOF 4
ENDMDL
MODEL 4
REMARK VINA RESULT:      -7.7      2.022      9.343
REMARK  Name = 
REMARK  7 active torsions:
REMARK  status: ('A' for Active; 'I' for Inactive)
REMARK    1  A    between atoms: C_1  and  C_2
REMARK    2  A    between atoms: C_2  and  C_3
REMARK    3  A    between atoms: C_2  and  C_4
REMARK    4  A    between atoms: C_2  and  C_5
REMARK    5  A    between atoms: C_9  and  C_10
REMARK    6  A    between atoms: C_16  and  C_17
REMARK    7  A    between atoms: C_20  and  C_21
REMARK                            x       y       z     vdW  Elec       q    Type
REMARK                         _______ _______ _______ _____ _____    ______ ____
ROOT
ATOM      1  C   UNL     1       2.726   6.248  19.626  0.00  0.00    +0.000 C 
ATOM      2  CA  UNL     1       2.198   7.477  19.477  0.00  0.00    +0.000 A 
ATOM      3  N   UNL     1       2.429   8.264  18.372  0.00  0.00    +0.000 N 
ATOM      4  C   UNL     1       1.934   9.524  18.171  0.00  0.00    +0.000 A 
ATOM      5  O   UNL     1       2.184  10.170  17.159  0.00  0.00    +0.000 OA
ATOM      6  CA  UNL     1       1.069  10.055  19.286  0.00  0.00    +0.000 A 
ATOM      7  C   UNL     1       0.575  11.299  19.170  0.00  0.00    +0.000 C 
ATOM      8  N   UNL     1       0.820   9.259  20.380  0.00  0.00    +0.000 N 
ATOM      9  C   UNL     1       1.317   7.997  20.572  0.00  0.00    +0.000 A 
ATOM     10  O   UNL     1       1.042   7.355  21.581  0.00  0.00    +0.000 OA
ATOM     11  H   UNL     1       3.024   7.871  17.643  0.00  0.00    +0.000 HD
ATOM     12  H   UNL     1       0.226   9.600  21.123  0.00  0.00    +0.000 HD
ENDROOT
BRANCH   1  17
ATOM     13  C   UNL     1       3.577   4.215  18.378  0.00  0.00    +0.000 A 
ATOM     14  N   UNL     1       4.573   4.136  17.419  0.00  0.00    +0.000 N 
ATOM     15  C   UNL     1       5.095   5.378  17.223  0.00  0.00    +0.000 A 
ATOM     16  N   UNL     1       4.505   6.267  17.982  0.00  0.00    +0.000 NA
ATOM     17  C   UNL     1       3.565   5.564  18.700  0.00  0.00    +0.000 A 
ATOM     18  H   UNL     1       4.875   3.302  16.936  0.00  0.00    +0.000 HD
BRANCH  13  20
ATOM     19  C   UNL     1       2.860   2.837  20.377  0.00  0.00    +0.000 C 
ATOM     20  C   UNL     1       2.781   3.002  18.842  0.00  0.00    +0.000 C 
ATOM     21  C   UNL     1       3.334   1.713  18.202  0.00  0.00    +0.000 C 
ATOM     22  C   UNL     1       1.292   3.147  18.470  0.00  0.00    +0.000 C 
ENDBRANCH  13  20
ENDBRANCH   1  17
BRANCH   7  23
ATOM     23  C   UNL     1      -0.266  11.945  20.183  0.00  0.00    +0.000 A 
ATOM     24  C   UNL     1       0.321  12.566  21.291  0.00  0.00    +0.000 A 
ATOM     25  C   UNL     1      -0.483  13.116  22.295  0.00  0.00    +0.000 A 
ATOM     26  C   UNL     1      -1.877  13.050  22.197  0.00  0.00    +0.000 A 
ATOM     27  C   UNL     1      -2.462  12.443  21.081  0.00  0.00    +0.000 A 
ATOM     28  C   UNL     1      -1.658  11.892  20.077  0.00  0.00    +0.000 A 
BRANCH  26  29
ATOM     29  C   UNL     1      -2.702  13.589  23.242  0.00  0.00    +0.000 C 
ATOM     30  N   UNL     1      -3.373  14.019  24.084  0.00  0.00    +0.000 NA
ENDBRANCH  26  29
ENDBRANCH   7  23
TORSDOF 4
ENDMDL
MODEL 5
REMARK VINA RESULT:      -7.7      2.016      9.356
REMARK  Name = 
REMARK  7 active torsions:
REMARK  status: ('A' for Active; 'I' for Inactive)
REMARK    1  A    between atoms: C_1  and  C_2
REMARK    2  A    between atoms: C_2  and  C_3
REMARK    3  A    between atoms: C_2  and  C_4
REMARK    4  A    between atoms: C_2  and  C_5
REMARK    5  A    between atoms: C_9  and  C_10
REMARK    6  A    between atoms: C_16  and  C_17
REMARK    7  A    between atoms: C_20  and  C_21
REMARK                            x       y       z     vdW  Elec       q    Type
REMARK                         _______ _______ _______ _____ _____    ______ ____
ROOT
ATOM      1  C   UNL     1       2.729   6.242  19.633  0.00  0.00    +0.000 C 
ATOM      2  CA  UNL     1       2.195   7.469  19.494  0.00  0.00    +0.000 A 
ATOM      3  N   UNL     1       2.406   8.258  18.386  0.00  0.00    +0.000 N 
ATOM      4  C   UNL     1       1.905   9.517  18.196  0.00  0.00    +0.000 A 
ATOM      5  O   UNL     1       2.137  10.166  17.180  0.00  0.00    +0.000 OA
ATOM      6  CA  UNL     1       1.057  10.044  19.325  0.00  0.00    +0.000 A 
ATOM      7  C   UNL     1       0.557  11.287  19.219  0.00  0.00    +0.000 C 
ATOM      8  N   UNL     1       0.827   9.245  20.422  0.00  0.00    +0.000 N 
ATOM      9  C   UNL     1       1.330   7.985  20.603  0.00  0.00    +0.000 A 
ATOM     10  O   UNL     1       1.073   7.341  21.615  0.00  0.00    +0.000 OA
ATOM     11  H   UNL     1       2.992   7.868  17.648  0.00  0.00    +0.000 HD
ATOM     12  H   UNL     1       0.244   9.583  21.174  0.00  0.00    +0.000 HD
ENDROOT
BRANCH   1  17
ATOM     13  C   UNL     1       3.573   4.211  18.375  0.00  0.00    +0.000 A 
ATOM     14  N   UNL     1       4.550   4.137  17.397  0.00  0.00    +0.000 N 
ATOM     15  C   UNL     1       5.057   5.383  17.186  0.00  0.00    +0.000 A 
ATOM     16  N   UNL     1       4.475   6.270  17.954  0.00  0.00    +0.000 NA
ATOM     17  C   UNL     1       3.556   5.562  18.693  0.00  0.00    +0.000 A 
ATOM     18  H   UNL     1       4.849   3.305  16.910  0.00  0.00    +0.000 HD
BRANCH  13  20
ATOM     19  C   UNL     1       3.350   1.693  18.229  0.00  0.00    +0.000 C 
ATOM     20  C   UNL     1       2.796   2.993  18.858  0.00  0.00    +0.000 C 
ATOM     21  C   UNL     1       1.310   3.107  18.467  0.00  0.00    +0.000 C 
ATOM     22  C   UNL     1       2.902   2.845  20.388  0.00  0.00    +0.000 C 
ENDBRANCH  13  20
ENDBRANCH   1  17
BRANCH   7  23
ATOM     23  C   UNL     1      -0.269  11.929  20.246  0.00  0.00    +0.000 A 
ATOM     24  C   UNL     1      -1.664  11.891  20.150  0.00  0.00    +0.000 A 
ATOM     25  C   UNL     1      -2.452  12.567  21.089  0.00  0.00    +0.000 A 
ATOM     26  C   UNL     1      -1.849  13.283  22.129  0.00  0.00    +0.000 A 
ATOM     27  C   UNL     1      -0.454  13.307  22.232  0.00  0.00    +0.000 A 
ATOM     28  C   UNL     1       0.333  12.632  21.293  0.00  0.00    +0.000 A 
BRANCH  26  29
ATOM     29  C   UNL     1      -2.656  14.001  23.075  0.00  0.00    +0.000 C 
ATOM     30  N   UNL     1      -3.313  14.578  23.836  0.00  0.00    +0.000 NA
ENDBRANCH  26  29
ENDBRANCH   7  23
TORSDOF 4
ENDMDL
MODEL 6
REMARK VINA RESULT:      -7.7      3.945      6.478
REMARK  Name = 
REMARK  7 active torsions:
REMARK  status: ('A' for Active; 'I' for Inactive)
REMARK    1  A    between atoms: C_1  and  C_2
REMARK    2  A    between atoms: C_2  and  C_3
REMARK    3  A    between atoms: C_2  and  C_4
REMARK    4  A    between atoms: C_2  and  C_5
REMARK    5  A    between atoms: C_9  and  C_10
REMARK    6  A    between atoms: C_16  and  C_17
REMARK    7  A    between atoms: C_20  and  C_21
REMARK                            x       y       z     vdW  Elec       q    Type
REMARK                         _______ _______ _______ _____ _____    ______ ____
ROOT
ATOM      1  C   UNL     1      -5.031  11.502  17.433  0.00  0.00    +0.000 C 
ATOM      2  CA  UNL     1      -3.800  11.344  17.953  0.00  0.00    +0.000 A 
ATOM      3  N   UNL     1      -3.211  12.271  18.782  0.00  0.00    +0.000 N 
ATOM      4  C   UNL     1      -1.959  12.174  19.327  0.00  0.00    +0.000 A 
ATOM      5  O   UNL     1      -1.496  13.043  20.059  0.00  0.00    +0.000 OA
ATOM      6  CA  UNL     1      -1.196  10.928  18.956  0.00  0.00    +0.000 A 
ATOM      7  C   UNL     1       0.052  10.781  19.431  0.00  0.00    +0.000 C 
ATOM      8  N   UNL     1      -1.795   9.990  18.145  0.00  0.00    +0.000 N 
ATOM      9  C   UNL     1      -3.050  10.094  17.606  0.00  0.00    +0.000 A 
ATOM     10  O   UNL     1      -3.507   9.208  16.892  0.00  0.00    +0.000 OA
ATOM     11  H   UNL     1      -3.757  13.104  19.004  0.00  0.00    +0.000 HD
ATOM     12  H   UNL     1      -1.298   9.143  17.907  0.00  0.00    +0.000 HD
ENDROOT
BRANCH   1  17
ATOM     13  C   UNL     1      -6.614  12.928  18.805  0.00  0.00    +0.000 A 
ATOM     14  N   UNL     1      -7.278  14.086  18.442  0.00  0.00    +0.000 N 
ATOM     15  C   UNL     1      -6.969  14.384  17.149  0.00  0.00    +0.000 A 
ATOM     16  N   UNL     1      -6.143  13.505  16.642  0.00  0.00    +0.000 NA
ATOM     17  C   UNL     1      -5.913  12.599  17.653  0.00  0.00    +0.000 A 
ATOM     18  H   UNL     1      -7.895  14.633  19.026  0.00  0.00    +0.000 HD
BRANCH  13  20
ATOM     19  C   UNL     1      -6.983  10.783  20.100  0.00  0.00    +0.000 C 
ATOM     20  C   UNL     1      -6.736  12.307  20.191  0.00  0.00    +0.000 C 
ATOM     21  C   UNL     1      -7.916  12.929  20.962  0.00  0.00    +0.000 C 
ATOM     22  C   UNL     1      -5.442  12.515  21.002  0.00  0.00    +0.000 C 
ENDBRANCH  13  20
ENDBRANCH   1  17
BRANCH   7  23
ATOM     23  C   UNL     1       0.910   9.629  19.138  0.00  0.00    +0.000 A 
ATOM     24  C   UNL     1       1.169   8.675  20.128  0.00  0.00    +0.000 A 
ATOM     25  C   UNL     1       2.048   7.617  19.872  0.00  0.00    +0.000 A 
ATOM     26  C   UNL     1       2.670   7.504  18.624  0.00  0.00    +0.000 A 
ATOM     27  C   UNL     1       2.399   8.449  17.629  0.00  0.00    +0.000 A 
ATOM     28  C   UNL     1       1.521   9.509  17.886  0.00  0.00    +0.000 A 
BRANCH  26  29
ATOM     29  C   UNL     1       3.595   6.434  18.371  0.00  0.00    +0.000 C 
ATOM     30  N   UNL     1       4.346   5.575  18.168  0.00  0.00    +0.000 NA
ENDBRANCH  26  29
ENDBRANCH   7  23
TORSDOF 4
ENDMDL
MODEL 7
REMARK VINA RESULT:      -7.6      2.544      9.062
REMARK  Name = 
REMARK  7 active torsions:
REMARK  status: ('A' for Active; 'I' for Inactive)
REMARK    1  A    between atoms: C_1  and  C_2
REMARK    2  A    between atoms: C_2  and  C_3
REMARK    3  A    between atoms: C_2  and  C_4
REMARK    4  A    between atoms: C_2  and  C_5
REMARK    5  A    between atoms: C_9  and  C_10
REMARK    6  A    between atoms: C_16  and  C_17
REMARK    7  A    between atoms: C_20  and  C_21
REMARK                            x       y       z     vdW  Elec       q    Type
REMARK                         _______ _______ _______ _____ _____    ______ ____
ROOT
ATOM      1  C   UNL     1       2.799   5.981  20.294  0.00  0.00    +0.000 C 
ATOM      2  CA  UNL     1       2.274   7.138  19.849  0.00  0.00    +0.000 A 
ATOM      3  N   UNL     1       2.608   7.695  18.636  0.00  0.00    +0.000 N 
ATOM      4  C   UNL     1       2.121   8.873  18.138  0.00  0.00    +0.000 A 
ATOM      5  O   UNL     1       2.466   9.312  17.045  0.00  0.00    +0.000 OA
ATOM      6  CA  UNL     1       1.141   9.588  19.032  0.00  0.00    +0.000 A 
ATOM      7  C   UNL     1       0.647  10.768  18.620  0.00  0.00    +0.000 C 
ATOM      8  N   UNL     1       0.791   9.019  20.235  0.00  0.00    +0.000 N 
ATOM      9  C   UNL     1       1.280   7.837  20.725  0.00  0.00    +0.000 A 
ATOM     10  O   UNL     1       0.911   7.402  21.811  0.00  0.00    +0.000 OA
ATOM     11  H   UNL     1       3.279   7.184  18.063  0.00  0.00    +0.000 HD
ATOM     12  H   UNL     1       0.121   9.482  20.832  0.00  0.00    +0.000 HD
ENDROOT
BRANCH   1  17
ATOM     13  C   UNL     1       3.550   3.877  19.100  0.00  0.00    +0.000 A 
ATOM     14  N   UNL     1       4.782   3.588  18.538  0.00  0.00    +0.000 N 
ATOM     15  C   UNL     1       5.615   4.648  18.734  0.00  0.00    +0.000 A 
ATOM     16  N   UNL     1       5.012   5.614  19.380  0.00  0.00    +0.000 NA
ATOM     17  C   UNL     1       3.736   5.153  19.612  0.00  0.00    +0.000 A 
ATOM     18  H   UNL     1       5.038   2.737  18.058  0.00  0.00    +0.000 HD
BRANCH  13  20
ATOM     19  C   UNL     1       2.787   1.565  18.407  0.00  0.00    +0.000 C 
ATOM     20  C   UNL     1       2.379   2.904  19.063  0.00  0.00    +0.000 C 
ATOM     21  C   UNL     1       1.212   3.491  18.245  0.00  0.00    +0.000 C 
ATOM     22  C   UNL     1       1.882   2.587  20.487  0.00  0.00    +0.000 C 
ENDBRANCH  13  20
ENDBRANCH   1  17
BRANCH   7  23
ATOM     23  C   UNL     1      -0.300  11.576  19.395  0.00  0.00    +0.000 A 
ATOM     24  C   UNL     1      -1.673  11.479  19.146  0.00  0.00    +0.000 A 
ATOM     25  C   UNL     1      -2.571  12.305  19.832  0.00  0.00    +0.000 A 
ATOM     26  C   UNL     1      -2.102  13.229  20.772  0.00  0.00    +0.000 A 
ATOM     27  C   UNL     1      -0.730  13.313  21.031  0.00  0.00    +0.000 A 
ATOM     28  C   UNL     1       0.169  12.489  20.343  0.00  0.00    +0.000 A 
BRANCH  26  29
ATOM     29  C   UNL     1      -3.020  14.096  21.455  0.00  0.00    +0.000 C 
ATOM     30  N   UNL     1      -3.765  14.797  22.001  0.00  0.00    +0.000 NA
ENDBRANCH  26  29
ENDBRANCH   7  23
TORSDOF 4
ENDMDL
MODEL 8
REMARK VINA RESULT:      -7.6      2.578      9.110
REMARK  Name = 
REMARK  7 active torsions:
REMARK  status: ('A' for Active; 'I' for Inactive)
REMARK    1  A    between atoms: C_1  and  C_2
REMARK    2  A    between atoms: C_2  and  C_3
REMARK    3  A    between atoms: C_2  and  C_4
REMARK    4  A    between atoms: C_2  and  C_5
REMARK    5  A    between atoms: C_9  and  C_10
REMARK    6  A    between atoms: C_16  and  C_17
REMARK    7  A    between atoms: C_20  and  C_21
REMARK                            x       y       z     vdW  Elec       q    Type
REMARK                         _______ _______ _______ _____ _____    ______ ____
ROOT
ATOM      1  C   UNL     1       2.430   6.283  20.505  0.00  0.00    +0.000 C 
ATOM      2  CA  UNL     1       1.982   7.458  20.027  0.00  0.00    +0.000 A 
ATOM      3  N   UNL     1       2.302   7.929  18.774  0.00  0.00    +0.000 N 
ATOM      4  C   UNL     1       1.890   9.120  18.239  0.00  0.00    +0.000 A 
ATOM      5  O   UNL     1       2.218   9.478  17.112  0.00  0.00    +0.000 OA
ATOM      6  CA  UNL     1       1.015   9.954  19.138  0.00  0.00    +0.000 A 
ATOM      7  C   UNL     1       0.599  11.151  18.689  0.00  0.00    +0.000 C 
ATOM      8  N   UNL     1       0.675   9.472  20.382  0.00  0.00    +0.000 N 
ATOM      9  C   UNL     1       1.089   8.277  20.908  0.00  0.00    +0.000 A 
ATOM     10  O   UNL     1       0.737   7.924  22.029  0.00  0.00    +0.000 OA
ATOM     11  H   UNL     1       2.903   7.338  18.199  0.00  0.00    +0.000 HD
ATOM     12  H   UNL     1       0.073  10.016  20.983  0.00  0.00    +0.000 HD
ENDROOT
BRANCH   1  17
ATOM     13  C   UNL     1       3.081   3.984  19.663  0.00  0.00    +0.000 A 
ATOM     14  N   UNL     1       4.182   3.612  18.912  0.00  0.00    +0.000 N 
ATOM     15  C   UNL     1       4.946   4.714  18.674  0.00  0.00    +0.000 A 
ATOM     16  N   UNL     1       4.417   5.784  19.212  0.00  0.00    +0.000 NA
ATOM     17  C   UNL     1       3.265   5.350  19.826  0.00  0.00    +0.000 A 
ATOM     18  H   UNL     1       4.399   2.681  18.585  0.00  0.00    +0.000 HD
BRANCH  13  20
ATOM     19  C   UNL     1       2.037   1.718  19.235  0.00  0.00    +0.000 C 
ATOM     20  C   UNL     1       2.015   2.992  20.111  0.00  0.00    +0.000 C 
ATOM     21  C   UNL     1       0.610   3.617  19.996  0.00  0.00    +0.000 C 
ATOM     22  C   UNL     1       2.250   2.552  21.569  0.00  0.00    +0.000 C 
ENDBRANCH  13  20
ENDBRANCH   1  17
BRANCH   7  23
ATOM     23  C   UNL     1      -0.242  12.069  19.463  0.00  0.00    +0.000 A 
ATOM     24  C   UNL     1       0.342  12.976  20.354  0.00  0.00    +0.000 A 
ATOM     25  C   UNL     1      -0.464  13.800  21.148  0.00  0.00    +0.000 A 
ATOM     26  C   UNL     1      -1.858  13.724  21.053  0.00  0.00    +0.000 A 
ATOM     27  C   UNL     1      -2.441  12.828  20.150  0.00  0.00    +0.000 A 
ATOM     28  C   UNL     1      -1.635  12.003  19.358  0.00  0.00    +0.000 A 
BRANCH  26  29
ATOM     29  C   UNL     1      -2.685  14.549  21.888  0.00  0.00    +0.000 C 
ATOM     30  N   UNL     1      -3.359  15.214  22.557  0.00  0.00    +0.000 NA
ENDBRANCH  26  29
ENDBRANCH   7  23
TORSDOF 4
ENDMDL
MODEL 9
REMARK VINA RESULT:      -7.5      2.491      9.164
REMARK  Name = 
REMARK  7 active torsions:
REMARK  status: ('A' for Active; 'I' for Inactive)
REMARK    1  A    between atoms: C_1  and  C_2
REMARK    2  A    between atoms: C_2  and  C_3
REMARK    3  A    between atoms: C_2  and  C_4
REMARK    4  A    between atoms: C_2  and  C_5
REMARK    5  A    between atoms: C_9  and  C_10
REMARK    6  A    between atoms: C_16  and  C_17
REMARK    7  A    between atoms: C_20  and  C_21
REMARK                            x       y       z     vdW  Elec       q    Type
REMARK                         _______ _______ _______ _____ _____    ______ ____
ROOT
ATOM      1  C   UNL     1       2.384   6.369  20.413  0.00  0.00    +0.000 C 
ATOM      2  CA  UNL     1       1.936   7.560  19.976  0.00  0.00    +0.000 A 
ATOM      3  N   UNL     1       2.259   8.077  18.742  0.00  0.00    +0.000 N 
ATOM      4  C   UNL     1       1.849   9.287  18.251  0.00  0.00    +0.000 A 
ATOM      5  O   UNL     1       2.179   9.686  17.139  0.00  0.00    +0.000 OA
ATOM      6  CA  UNL     1       0.970  10.088  19.178  0.00  0.00    +0.000 A 
ATOM      7  C   UNL     1       0.555  11.300  18.773  0.00  0.00    +0.000 C 
ATOM      8  N   UNL     1       0.628   9.559  20.402  0.00  0.00    +0.000 N 
ATOM      9  C   UNL     1       1.041   8.346  20.885  0.00  0.00    +0.000 A 
ATOM     10  O   UNL     1       0.687   7.952  21.992  0.00  0.00    +0.000 OA
ATOM     11  H   UNL     1       2.861   7.508  18.148  0.00  0.00    +0.000 HD
ATOM     12  H   UNL     1       0.025  10.081  21.022  0.00  0.00    +0.000 HD
ENDROOT
BRANCH   1  17
ATOM     13  C   UNL     1       3.086   4.087  19.566  0.00  0.00    +0.000 A 
ATOM     14  N   UNL     1       4.161   3.750  18.761  0.00  0.00    +0.000 N 
ATOM     15  C   UNL     1       4.863   4.879  18.469  0.00  0.00    +0.000 A 
ATOM     16  N   UNL     1       4.319   5.934  19.021  0.00  0.00    +0.000 NA
ATOM     17  C   UNL     1       3.220   5.461  19.701  0.00  0.00    +0.000 A 
ATOM     18  H   UNL     1       4.399   2.824  18.435  0.00  0.00    +0.000 HD
BRANCH  13  20
ATOM     19  C   UNL     1       0.645   3.614  20.046  0.00  0.00    +0.000 C 
ATOM     20  C   UNL     1       2.088   3.058  20.082  0.00  0.00    +0.000 C 
ATOM     21  C   UNL     1       2.408   2.675  21.540  0.00  0.00    +0.000 C 
ATOM     22  C   UNL     1       2.112   1.785  19.213  0.00  0.00    +0.000 C 
ENDBRANCH  13  20
ENDBRANCH   1  17
BRANCH   7  23
ATOM     23  C   UNL     1      -0.288  12.189  19.577  0.00  0.00    +0.000 A 
ATOM     24  C   UNL     1      -1.678  12.029  19.578  0.00  0.00    +0.000 A 
ATOM     25  C   UNL     1      -2.488  12.924  20.286  0.00  0.00    +0.000 A 
ATOM     26  C   UNL     1      -1.913  13.982  20.998  0.00  0.00    +0.000 A 
ATOM     27  C   UNL     1      -0.522  14.132  21.009  0.00  0.00    +0.000 A 
ATOM     28  C   UNL     1       0.288  13.238  20.300  0.00  0.00    +0.000 A 
BRANCH  26  29
ATOM     29  C   UNL     1      -2.746  14.918  21.700  0.00  0.00    +0.000 C 
ATOM     30  N   UNL     1      -3.423  15.669  22.268  0.00  0.00    +0.000 NA
ENDBRANCH  26  29
ENDBRANCH   7  23
TORSDOF 4
ENDMDL
