MODEL 1
REMARK VINA RESULT:      -6.6      0.000      0.000
REMARK  Name = 
REMARK  11 active torsions:
REMARK  status: ('A' for Active; 'I' for Inactive)
REMARK    1  A    between atoms: C_2  and  C_3
REMARK    2  A    between atoms: C_3  and  C_4
REMARK    3  A    between atoms: C_6  and  O_7
REMARK    4  A    between atoms: O_7  and  C_8
REMARK    5  A    between atoms: N_10  and  C_11
REMARK    6  A    between atoms: C_14  and  O_15
REMARK    7  A    between atoms: O_15  and  C_16
REMARK    8  A    between atoms: C_19  and  C_20
REMARK    9  A    between atoms: C_21  and  C_22
REMARK   10  A    between atoms: C_32  and  C_33
REMARK   11  A    between atoms: C_34  and  O_35
REMARK                            x       y       z     vdW  Elec       q    Type
REMARK                         _______ _______ _______ _____ _____    ______ ____
ROOT
ATOM      1  C   UNL     1       0.054  15.039  21.226  0.00  0.00    +0.000 C 
ATOM      2  C   UNL     1       0.993  16.281  21.072  0.00  0.00    +0.000 C 
ATOM      3  C   UNL     1      -0.379  14.617  22.616  0.00  0.00    +0.000 C 
ATOM      4  C   UNL     1      -1.297  13.186  22.507  0.00  0.00    +0.000 C 
ATOM      5  C   UNL     1      -2.905  13.209  22.636  0.00  0.00    +0.000 C 
ATOM      6  C   UNL     1      -3.433  12.167  23.676  0.00  0.00    +0.000 C 
ATOM      7  C   UNL     1      -3.840  12.801  21.324  0.00  0.00    +0.000 C 
ATOM      8  C   UNL     1      -3.473  12.697  19.829  0.00  0.00    +0.000 C 
ATOM      9  C   UNL     1      -5.227  13.467  21.407  0.00  0.00    +0.000 C 
ATOM     10  C   UNL     1      -5.231  14.836  22.043  0.00  0.00    +0.000 C 
ATOM     11  O   UNL     1      -6.309  15.302  22.414  0.00  0.00    +0.000 OA
ATOM     12  C   UNL     1      -3.879  15.558  22.293  0.00  0.00    +0.000 C 
ATOM     13  C   UNL     1      -4.141  16.796  23.245  0.00  0.00    +0.000 C 
ATOM     14  C   UNL     1      -3.548  16.521  24.642  0.00  0.00    +0.000 C 
ATOM     15  C   UNL     1      -3.335  15.038  24.620  0.00  0.00    +0.000 C 
ATOM     16  O   UNL     1      -3.056  14.379  25.609  0.00  0.00    +0.000 OA
ATOM     17  C   UNL     1      -3.195  14.592  23.184  0.00  0.00    +0.000 C 
ATOM     18  C   UNL     1      -2.992  15.802  20.926  0.00  0.00    +0.000 C 
ATOM     19  C   UNL     1      -3.524  17.073  20.228  0.00  0.00    +0.000 C 
ATOM     20  C   UNL     1      -1.349  15.383  20.413  0.00  0.00    +0.000 C 
ENDROOT
BRANCH   1  22
ATOM     21  C   UNL     1       2.288  13.653  20.473  0.00  0.00    +0.000 C 
ATOM     22  C   UNL     1       1.165  13.928  21.141  0.00  0.00    +0.000 C 
ENDBRANCH   1  22
BRANCH  20  23
ATOM     23  O   UNL     1      -1.439  14.387  19.387  0.00  0.00    +0.000 OA
ATOM     24  H   UNL     1      -0.906  14.671  18.625  0.00  0.00    +0.000 HD
ENDBRANCH  20  23
BRANCH   4  25
ATOM     25  O   UNL     1      -0.790  12.122  23.362  0.00  0.00    +0.000 OA
BRANCH  25  26
ATOM     26  C   UNL     1      -0.503  10.916  22.815  0.00  0.00    +0.000 C 
ATOM     27  O   UNL     1      -1.010   9.861  23.176  0.00  0.00    +0.000 OA
ATOM     28  N   UNL     1       0.368  11.076  21.780  0.00  0.00    +0.000 N 
ATOM     29  H   UNL     1       0.687  12.025  21.634  0.00  0.00    +0.000 HD
BRANCH  28  30
ATOM     30  C   UNL     1       0.769  10.074  20.884  0.00  0.00    +0.000 A 
ATOM     31  C   UNL     1       1.177   8.807  21.308  0.00  0.00    +0.000 A 
ATOM     32  C   UNL     1       1.703   7.892  20.408  0.00  0.00    +0.000 A 
ATOM     33  C   UNL     1       1.770   8.205  19.060  0.00  0.00    +0.000 A 
ATOM     34  C   UNL     1       1.285   9.432  18.611  0.00  0.00    +0.000 A 
ATOM     35  C   UNL     1       0.778  10.369  19.532  0.00  0.00    +0.000 A 
BRANCH  33  36
ATOM     36  O   UNL     1       2.368   7.248  18.285  0.00  0.00    +0.000 OA
ATOM     37  C   UNL     1       2.896   6.133  18.978  0.00  0.00    +0.000 C 
ENDBRANCH  33  36
ENDBRANCH  28  30
ENDBRANCH  25  26
ENDBRANCH   4  25
TORSDOF 6
ENDMDL
MODEL 2
REMARK VINA RESULT:      -6.5      2.282      4.599
REMARK  Name = 
REMARK  11 active torsions:
REMARK  status: ('A' for Active; 'I' for Inactive)
REMARK    1  A    between atoms: C_2  and  C_3
REMARK    2  A    between atoms: C_3  and  C_4
REMARK    3  A    between atoms: C_6  and  O_7
REMARK    4  A    between atoms: O_7  and  C_8
REMARK    5  A    between atoms: N_10  and  C_11
REMARK    6  A    between atoms: C_14  and  O_15
REMARK    7  A    between atoms: O_15  and  C_16
REMARK    8  A    between atoms: C_19  and  C_20
REMARK    9  A    between atoms: C_21  and  C_22
REMARK   10  A    between atoms: C_32  and  C_33
REMARK   11  A    between atoms: C_34  and  O_35
REMARK                            x       y       z     vdW  Elec       q    Type
REMARK                         _______ _______ _______ _____ _____    ______ ____
ROOT
ATOM      1  C   UNL     1      -3.122  11.914  18.742  0.00  0.00    +0.000 C 
ATOM      2  C   UNL     1      -4.261  12.091  17.684  0.00  0.00    +0.000 C 
ATOM      3  C   UNL     1      -1.713  12.336  18.375  0.00  0.00    +0.000 C 
ATOM      4  C   UNL     1      -0.659  11.937  19.653  0.00  0.00    +0.000 C 
ATOM      5  C   UNL     1      -0.115  13.061  20.674  0.00  0.00    +0.000 C 
ATOM      6  C   UNL     1       1.440  13.017  20.835  0.00  0.00    +0.000 C 
ATOM      7  C   UNL     1      -0.569  13.007  22.272  0.00  0.00    +0.000 C 
ATOM      8  C   UNL     1      -1.716  12.238  22.959  0.00  0.00    +0.000 C 
ATOM      9  C   UNL     1      -0.514  14.409  22.910  0.00  0.00    +0.000 C 
ATOM     10  C   UNL     1      -0.876  15.538  21.976  0.00  0.00    +0.000 C 
ATOM     11  O   UNL     1      -0.576  16.686  22.307  0.00  0.00    +0.000 OA
ATOM     12  C   UNL     1      -1.519  15.208  20.601  0.00  0.00    +0.000 C 
ATOM     13  C   UNL     1      -1.493  16.515  19.709  0.00  0.00    +0.000 C 
ATOM     14  C   UNL     1      -0.463  16.358  18.572  0.00  0.00    +0.000 C 
ATOM     15  C   UNL     1       0.363  15.197  19.039  0.00  0.00    +0.000 C 
ATOM     16  O   UNL     1       1.415  14.862  18.519  0.00  0.00    +0.000 OA
ATOM     17  C   UNL     1      -0.468  14.364  19.986  0.00  0.00    +0.000 C 
ATOM     18  C   UNL     1      -2.934  14.370  20.712  0.00  0.00    +0.000 C 
ATOM     19  C   UNL     1      -4.071  15.379  20.984  0.00  0.00    +0.000 C 
ATOM     20  C   UNL     1      -3.529  12.835  20.058  0.00  0.00    +0.000 C 
ENDROOT
BRANCH   1  22
ATOM     21  C   UNL     1      -2.527   9.568  17.468  0.00  0.00    +0.000 C 
ATOM     22  C   UNL     1      -2.827  10.392  18.476  0.00  0.00    +0.000 C 
ENDBRANCH   1  22
BRANCH  20  23
ATOM     23  O   UNL     1      -3.656  11.905  21.139  0.00  0.00    +0.000 OA
ATOM     24  H   UNL     1      -4.129  11.116  20.822  0.00  0.00    +0.000 HD
ENDBRANCH  20  23
BRANCH   4  25
ATOM     25  O   UNL     1       0.476  11.133  19.221  0.00  0.00    +0.000 OA
BRANCH  25  26
ATOM     26  C   UNL     1       0.599   9.864  19.678  0.00  0.00    +0.000 C 
ATOM     27  O   UNL     1      -0.163   9.351  20.488  0.00  0.00    +0.000 OA
ATOM     28  N   UNL     1       1.641   9.249  19.053  0.00  0.00    +0.000 N 
ATOM     29  H   UNL     1       2.165   9.837  18.417  0.00  0.00    +0.000 HD
BRANCH  28  30
ATOM     30  C   UNL     1       1.972   7.890  19.157  0.00  0.00    +0.000 A 
ATOM     31  C   UNL     1       2.439   7.145  18.071  0.00  0.00    +0.000 A 
ATOM     32  C   UNL     1       2.618   5.773  18.175  0.00  0.00    +0.000 A 
ATOM     33  C   UNL     1       2.395   5.134  19.383  0.00  0.00    +0.000 A 
ATOM     34  C   UNL     1       2.013   5.878  20.499  0.00  0.00    +0.000 A 
ATOM     35  C   UNL     1       1.806   7.266  20.382  0.00  0.00    +0.000 A 
BRANCH  33  36
ATOM     36  O   UNL     1       2.542   3.773  19.341  0.00  0.00    +0.000 OA
ATOM     37  C   UNL     1       1.688   3.034  20.192  0.00  0.00    +0.000 C 
ENDBRANCH  33  36
ENDBRANCH  28  30
ENDBRANCH  25  26
ENDBRANCH   4  25
TORSDOF 6
ENDMDL
MODEL 3
REMARK VINA RESULT:      -6.5      2.031      4.368
REMARK  Name = 
REMARK  11 active torsions:
REMARK  status: ('A' for Active; 'I' for Inactive)
REMARK    1  A    between atoms: C_2  and  C_3
REMARK    2  A    between atoms: C_3  and  C_4
REMARK    3  A    between atoms: C_6  and  O_7
REMARK    4  A    between atoms: O_7  and  C_8
REMARK    5  A    between atoms: N_10  and  C_11
REMARK    6  A    between atoms: C_14  and  O_15
REMARK    7  A    between atoms: O_15  and  C_16
REMARK    8  A    between atoms: C_19  and  C_20
REMARK    9  A    between atoms: C_21  and  C_22
REMARK   10  A    between atoms: C_32  and  C_33
REMARK   11  A    between atoms: C_34  and  O_35
REMARK                            x       y       z     vdW  Elec       q    Type
REMARK                         _______ _______ _______ _____ _____    ______ ____
ROOT
ATOM      1  C   UNL     1      -6.300  13.068  20.429  0.00  0.00    +0.000 C 
ATOM      2  C   UNL     1      -7.684  13.200  19.709  0.00  0.00    +0.000 C 
ATOM      3  C   UNL     1      -5.196  14.043  20.074  0.00  0.00    +0.000 C 
ATOM      4  C   UNL     1      -3.777  13.611  20.911  0.00  0.00    +0.000 C 
ATOM      5  C   UNL     1      -3.292  14.426  22.217  0.00  0.00    +0.000 C 
ATOM      6  C   UNL     1      -1.793  14.861  22.124  0.00  0.00    +0.000 C 
ATOM      7  C   UNL     1      -3.279  13.670  23.697  0.00  0.00    +0.000 C 
ATOM      8  C   UNL     1      -3.966  12.369  24.161  0.00  0.00    +0.000 C 
ATOM      9  C   UNL     1      -3.422  14.693  24.841  0.00  0.00    +0.000 C 
ATOM     10  C   UNL     1      -4.296  15.880  24.516  0.00  0.00    +0.000 C 
ATOM     11  O   UNL     1      -4.225  16.871  25.244  0.00  0.00    +0.000 OA
ATOM     12  C   UNL     1      -5.171  15.849  23.233  0.00  0.00    +0.000 C 
ATOM     13  C   UNL     1      -5.719  17.309  22.964  0.00  0.00    +0.000 C 
ATOM     14  C   UNL     1      -5.021  17.916  21.731  0.00  0.00    +0.000 C 
ATOM     15  C   UNL     1      -3.830  17.022  21.556  0.00  0.00    +0.000 C 
ATOM     16  O   UNL     1      -2.903  17.267  20.802  0.00  0.00    +0.000 OA
ATOM     17  C   UNL     1      -4.138  15.683  22.183  0.00  0.00    +0.000 C 
ATOM     18  C   UNL     1      -6.240  14.596  23.187  0.00  0.00    +0.000 C 
ATOM     19  C   UNL     1      -7.486  14.996  24.007  0.00  0.00    +0.000 C 
ATOM     20  C   UNL     1      -6.570  13.278  22.050  0.00  0.00    +0.000 C 
ENDROOT
BRANCH   1  22
ATOM     21  C   UNL     1      -6.105  10.877  18.803  0.00  0.00    +0.000 C 
ATOM     22  C   UNL     1      -5.704  11.929  19.521  0.00  0.00    +0.000 C 
ENDBRANCH   1  22
BRANCH  20  23
ATOM     23  O   UNL     1      -6.163  12.047  22.658  0.00  0.00    +0.000 OA
ATOM     24  H   UNL     1      -5.194  12.038  22.733  0.00  0.00    +0.000 HD
ENDBRANCH  20  23
BRANCH   4  25
ATOM     25  O   UNL     1      -2.629  13.445  20.031  0.00  0.00    +0.000 OA
BRANCH  25  26
ATOM     26  C   UNL     1      -2.160  12.198  19.785  0.00  0.00    +0.000 C 
ATOM     27  O   UNL     1      -2.647  11.432  18.963  0.00  0.00    +0.000 OA
ATOM     28  N   UNL     1      -1.046  11.969  20.536  0.00  0.00    +0.000 N 
ATOM     29  H   UNL     1      -0.797  12.719  21.169  0.00  0.00    +0.000 HD
BRANCH  28  30
ATOM     30  C   UNL     1      -0.205  10.852  20.434  0.00  0.00    +0.000 A 
ATOM     31  C   UNL     1       0.666  10.663  19.357  0.00  0.00    +0.000 A 
ATOM     32  C   UNL     1       1.376   9.479  19.218  0.00  0.00    +0.000 A 
ATOM     33  C   UNL     1       1.275   8.492  20.184  0.00  0.00    +0.000 A 
ATOM     34  C   UNL     1       0.478   8.703  21.308  0.00  0.00    +0.000 A 
ATOM     35  C   UNL     1      -0.262   9.895  21.432  0.00  0.00    +0.000 A 
BRANCH  33  36
ATOM     36  O   UNL     1       1.971   7.347  19.899  0.00  0.00    +0.000 OA
ATOM     37  C   UNL     1       1.685   6.231  20.720  0.00  0.00    +0.000 C 
ENDBRANCH  33  36
ENDBRANCH  28  30
ENDBRANCH  25  26
ENDBRANCH   4  25
TORSDOF 6
ENDMDL
MODEL 4
REMARK VINA RESULT:      -6.4      2.913      7.191
REMARK  Name = 
REMARK  11 active torsions:
REMARK  status: ('A' for Active; 'I' for Inactive)
REMARK    1  A    between atoms: C_2  and  C_3
REMARK    2  A    between atoms: C_3  and  C_4
REMARK    3  A    between atoms: C_6  and  O_7
REMARK    4  A    between atoms: O_7  and  C_8
REMARK    5  A    between atoms: N_10  and  C_11
REMARK    6  A    between atoms: C_14  and  O_15
REMARK    7  A    between atoms: O_15  and  C_16
REMARK    8  A    between atoms: C_19  and  C_20
REMARK    9  A    between atoms: C_21  and  C_22
REMARK   10  A    between atoms: C_32  and  C_33
REMARK   11  A    between atoms: C_34  and  O_35
REMARK                            x       y       z     vdW  Elec       q    Type
REMARK                         _______ _______ _______ _____ _____    ______ ____
ROOT
ATOM      1  C   UNL     1       0.938  12.683  19.492  0.00  0.00    +0.000 C 
ATOM      2  C   UNL     1       1.397  11.403  18.716  0.00  0.00    +0.000 C 
ATOM      3  C   UNL     1       1.505  12.942  20.873  0.00  0.00    +0.000 C 
ATOM      4  C   UNL     1       0.763  14.327  21.531  0.00  0.00    +0.000 C 
ATOM      5  C   UNL     1       1.527  15.747  21.577  0.00  0.00    +0.000 C 
ATOM      6  C   UNL     1       1.492  16.397  22.999  0.00  0.00    +0.000 C 
ATOM      7  C   UNL     1       0.955  17.017  20.670  0.00  0.00    +0.000 C 
ATOM      8  C   UNL     1      -0.033  17.033  19.485  0.00  0.00    +0.000 C 
ATOM      9  C   UNL     1       2.086  18.008  20.334  0.00  0.00    +0.000 C 
ATOM     10  C   UNL     1       3.438  17.371  20.122  0.00  0.00    +0.000 C 
ATOM     11  O   UNL     1       4.433  18.097  20.146  0.00  0.00    +0.000 OA
ATOM     12  C   UNL     1       3.535  15.828  19.981  0.00  0.00    +0.000 C 
ATOM     13  C   UNL     1       5.056  15.408  20.097  0.00  0.00    +0.000 C 
ATOM     14  C   UNL     1       5.303  14.684  21.436  0.00  0.00    +0.000 C 
ATOM     15  C   UNL     1       4.085  15.046  22.232  0.00  0.00    +0.000 C 
ATOM     16  O   UNL     1       3.970  14.834  23.428  0.00  0.00    +0.000 OA
ATOM     17  C   UNL     1       2.967  15.383  21.275  0.00  0.00    +0.000 C 
ATOM     18  C   UNL     1       2.653  15.217  18.729  0.00  0.00    +0.000 C 
ATOM     19  C   UNL     1       3.483  15.372  17.436  0.00  0.00    +0.000 C 
ATOM     20  C   UNL     1       1.382  13.993  18.579  0.00  0.00    +0.000 C 
ENDROOT
BRANCH   1  22
ATOM     21  C   UNL     1      -1.672  11.887  19.677  0.00  0.00    +0.000 C 
ATOM     22  C   UNL     1      -0.412  12.107  20.060  0.00  0.00    +0.000 C 
ENDBRANCH   1  22
BRANCH  20  23
ATOM     23  O   UNL     1       0.154  14.656  18.258  0.00  0.00    +0.000 OA
ATOM     24  H   UNL     1      -0.527  14.387  18.898  0.00  0.00    +0.000 HD
ENDBRANCH  20  23
BRANCH   4  25
ATOM     25  O   UNL     1       0.178  14.086  22.843  0.00  0.00    +0.000 OA
BRANCH  25  26
ATOM     26  C   UNL     1      -1.150  14.287  23.021  0.00  0.00    +0.000 C 
ATOM     27  O   UNL     1      -1.691  15.385  22.967  0.00  0.00    +0.000 OA
ATOM     28  N   UNL     1      -1.776  13.091  23.199  0.00  0.00    +0.000 N 
ATOM     29  H   UNL     1      -1.161  12.287  23.224  0.00  0.00    +0.000 HD
BRANCH  28  30
ATOM     30  C   UNL     1      -3.163  12.893  23.259  0.00  0.00    +0.000 A 
ATOM     31  C   UNL     1      -3.984  12.979  22.131  0.00  0.00    +0.000 A 
ATOM     32  C   UNL     1      -5.365  12.921  22.252  0.00  0.00    +0.000 A 
ATOM     33  C   UNL     1      -5.944  12.712  23.492  0.00  0.00    +0.000 A 
ATOM     34  C   UNL     1      -5.135  12.536  24.613  0.00  0.00    +0.000 A 
ATOM     35  C   UNL     1      -3.734  12.623  24.491  0.00  0.00    +0.000 A 
BRANCH  33  36
ATOM     36  O   UNL     1      -7.314  12.740  23.490  0.00  0.00    +0.000 OA
ATOM     37  C   UNL     1      -7.916  13.333  22.355  0.00  0.00    +0.000 C 
ENDBRANCH  33  36
ENDBRANCH  28  30
ENDBRANCH  25  26
ENDBRANCH   4  25
TORSDOF 6
ENDMDL
MODEL 5
REMARK VINA RESULT:      -6.4      2.575      6.939
REMARK  Name = 
REMARK  11 active torsions:
REMARK  status: ('A' for Active; 'I' for Inactive)
REMARK    1  A    between atoms: C_2  and  C_3
REMARK    2  A    between atoms: C_3  and  C_4
REMARK    3  A    between atoms: C_6  and  O_7
REMARK    4  A    between atoms: O_7  and  C_8
REMARK    5  A    between atoms: N_10  and  C_11
REMARK    6  A    between atoms: C_14  and  O_15
REMARK    7  A    between atoms: O_15  and  C_16
REMARK    8  A    between atoms: C_19  and  C_20
REMARK    9  A    between atoms: C_21  and  C_22
REMARK   10  A    between atoms: C_32  and  C_33
REMARK   11  A    between atoms: C_34  and  O_35
REMARK                            x       y       z     vdW  Elec       q    Type
REMARK                         _______ _______ _______ _____ _____    ______ ____
ROOT
ATOM      1  C   UNL     1       1.178  12.335  19.326  0.00  0.00    +0.000 C 
ATOM      2  C   UNL     1       1.823  11.138  18.551  0.00  0.00    +0.000 C 
ATOM      3  C   UNL     1       1.686  12.664  20.716  0.00  0.00    +0.000 C 
ATOM      4  C   UNL     1       0.747  13.925  21.371  0.00  0.00    +0.000 C 
ATOM      5  C   UNL     1       1.300  15.439  21.433  0.00  0.00    +0.000 C 
ATOM      6  C   UNL     1       1.156  16.068  22.857  0.00  0.00    +0.000 C 
ATOM      7  C   UNL     1       0.565  16.620  20.524  0.00  0.00    +0.000 C 
ATOM      8  C   UNL     1      -0.402  16.503  19.326  0.00  0.00    +0.000 C 
ATOM      9  C   UNL     1       1.546  17.764  20.206  0.00  0.00    +0.000 C 
ATOM     10  C   UNL     1       2.978  17.328  20.008  0.00  0.00    +0.000 C 
ATOM     11  O   UNL     1       3.859  18.188  20.048  0.00  0.00    +0.000 OA
ATOM     12  C   UNL     1       3.295  15.814  19.861  0.00  0.00    +0.000 C 
ATOM     13  C   UNL     1       4.859  15.614  19.995  0.00  0.00    +0.000 C 
ATOM     14  C   UNL     1       5.191  14.925  21.334  0.00  0.00    +0.000 C 
ATOM     15  C   UNL     1       3.925  15.105  22.116  0.00  0.00    +0.000 C 
ATOM     16  O   UNL     1       3.827  14.872  23.309  0.00  0.00    +0.000 OA
ATOM     17  C   UNL     1       2.781  15.286  21.147  0.00  0.00    +0.000 C 
ATOM     18  C   UNL     1       2.524  15.092  18.597  0.00  0.00    +0.000 C 
ATOM     19  C   UNL     1       3.338  15.371  17.314  0.00  0.00    +0.000 C 
ATOM     20  C   UNL     1       1.442  13.700  18.425  0.00  0.00    +0.000 C 
ENDROOT
BRANCH   1  22
ATOM     21  C   UNL     1      -1.187  10.965  19.430  0.00  0.00    +0.000 C 
ATOM     22  C   UNL     1      -0.082  11.569  19.875  0.00  0.00    +0.000 C 
ENDBRANCH   1  22
BRANCH  20  23
ATOM     23  O   UNL     1       0.136  14.184  18.092  0.00  0.00    +0.000 OA
ATOM     24  H   UNL     1      -0.484  13.435  18.077  0.00  0.00    +0.000 HD
ENDBRANCH  20  23
BRANCH   4  25
ATOM     25  O   UNL     1       0.187  13.596  22.674  0.00  0.00    +0.000 OA
BRANCH  25  26
ATOM     26  C   UNL     1      -1.048  13.045  22.742  0.00  0.00    +0.000 C 
ATOM     27  O   UNL     1      -1.311  12.025  23.368  0.00  0.00    +0.000 OA
ATOM     28  N   UNL     1      -1.939  13.830  22.074  0.00  0.00    +0.000 N 
ATOM     29  H   UNL     1      -1.535  14.632  21.608  0.00  0.00    +0.000 HD
BRANCH  28  30
ATOM     30  C   UNL     1      -3.331  13.660  22.059  0.00  0.00    +0.000 A 
ATOM     31  C   UNL     1      -4.159  14.149  23.073  0.00  0.00    +0.000 A 
ATOM     32  C   UNL     1      -5.510  13.839  23.099  0.00  0.00    +0.000 A 
ATOM     33  C   UNL     1      -6.069  13.086  22.079  0.00  0.00    +0.000 A 
ATOM     34  C   UNL     1      -5.273  12.665  21.015  0.00  0.00    +0.000 A 
ATOM     35  C   UNL     1      -3.895  12.959  21.007  0.00  0.00    +0.000 A 
BRANCH  33  36
ATOM     36  O   UNL     1      -7.395  12.792  22.253  0.00  0.00    +0.000 OA
ATOM     37  C   UNL     1      -7.716  12.063  23.422  0.00  0.00    +0.000 C 
ENDBRANCH  33  36
ENDBRANCH  28  30
ENDBRANCH  25  26
ENDBRANCH   4  25
TORSDOF 6
ENDMDL
MODEL 6
REMARK VINA RESULT:      -6.4      2.225      4.600
REMARK  Name = 
REMARK  11 active torsions:
REMARK  status: ('A' for Active; 'I' for Inactive)
REMARK    1  A    between atoms: C_2  and  C_3
REMARK    2  A    between atoms: C_3  and  C_4
REMARK    3  A    between atoms: C_6  and  O_7
REMARK    4  A    between atoms: O_7  and  C_8
REMARK    5  A    between atoms: N_10  and  C_11
REMARK    6  A    between atoms: C_14  and  O_15
REMARK    7  A    between atoms: O_15  and  C_16
REMARK    8  A    between atoms: C_19  and  C_20
REMARK    9  A    between atoms: C_21  and  C_22
REMARK   10  A    between atoms: C_32  and  C_33
REMARK   11  A    between atoms: C_34  and  O_35
REMARK                            x       y       z     vdW  Elec       q    Type
REMARK                         _______ _______ _______ _____ _____    ______ ____
ROOT
ATOM      1  C   UNL     1      -5.883  13.134  20.611  0.00  0.00    +0.000 C 
ATOM      2  C   UNL     1      -7.225  12.740  19.908  0.00  0.00    +0.000 C 
ATOM      3  C   UNL     1      -5.218  14.443  20.233  0.00  0.00    +0.000 C 
ATOM      4  C   UNL     1      -3.732  14.573  21.057  0.00  0.00    +0.000 C 
ATOM      5  C   UNL     1      -3.570  15.525  22.349  0.00  0.00    +0.000 C 
ATOM      6  C   UNL     1      -2.337  16.479  22.234  0.00  0.00    +0.000 C 
ATOM      7  C   UNL     1      -3.268  14.846  23.836  0.00  0.00    +0.000 C 
ATOM      8  C   UNL     1      -3.425  13.389  24.320  0.00  0.00    +0.000 C 
ATOM      9  C   UNL     1      -3.767  15.759  24.972  0.00  0.00    +0.000 C 
ATOM     10  C   UNL     1      -5.018  16.538  24.648  0.00  0.00    +0.000 C 
ATOM     11  O   UNL     1      -5.311  17.495  25.367  0.00  0.00    +0.000 OA
ATOM     12  C   UNL     1      -5.831  16.172  23.376  0.00  0.00    +0.000 C 
ATOM     13  C   UNL     1      -6.880  17.325  23.101  0.00  0.00    +0.000 C 
ATOM     14  C   UNL     1      -6.464  18.130  21.854  0.00  0.00    +0.000 C 
ATOM     15  C   UNL     1      -5.030  17.733  21.672  0.00  0.00    +0.000 C 
ATOM     16  O   UNL     1      -4.264  18.292  20.905  0.00  0.00    +0.000 OA
ATOM     17  C   UNL     1      -4.818  16.383  22.315  0.00  0.00    +0.000 C 
ATOM     18  C   UNL     1      -6.366  14.613  23.355  0.00  0.00    +0.000 C 
ATOM     19  C   UNL     1      -7.665  14.538  24.187  0.00  0.00    +0.000 C 
ATOM     20  C   UNL     1      -6.198  13.252  22.234  0.00  0.00    +0.000 C 
ENDROOT
BRANCH   1  22
ATOM     21  C   UNL     1      -4.768  11.917  18.430  0.00  0.00    +0.000 C 
ATOM     22  C   UNL     1      -4.918  12.283  19.706  0.00  0.00    +0.000 C 
ENDBRANCH   1  22
BRANCH  20  23
ATOM     23  O   UNL     1      -5.362  12.264  22.847  0.00  0.00    +0.000 OA
ATOM     24  H   UNL     1      -4.575  12.701  23.213  0.00  0.00    +0.000 HD
ENDBRANCH  20  23
BRANCH   4  25
ATOM     25  O   UNL     1      -2.611  14.829  20.164  0.00  0.00    +0.000 OA
BRANCH  25  26
ATOM     26  C   UNL     1      -1.574  13.957  20.139  0.00  0.00    +0.000 C 
ATOM     27  O   UNL     1      -0.447  14.242  19.754  0.00  0.00    +0.000 OA
ATOM     28  N   UNL     1      -1.966  12.762  20.664  0.00  0.00    +0.000 N 
ATOM     29  H   UNL     1      -2.943  12.709  20.922  0.00  0.00    +0.000 HD
BRANCH  28  30
ATOM     30  C   UNL     1      -1.125  11.675  20.942  0.00  0.00    +0.000 A 
ATOM     31  C   UNL     1      -0.542  10.899  19.936  0.00  0.00    +0.000 A 
ATOM     32  C   UNL     1       0.164   9.747  20.247  0.00  0.00    +0.000 A 
ATOM     33  C   UNL     1       0.354   9.385  21.571  0.00  0.00    +0.000 A 
ATOM     34  C   UNL     1      -0.147  10.197  22.588  0.00  0.00    +0.000 A 
ATOM     35  C   UNL     1      -0.888  11.351  22.267  0.00  0.00    +0.000 A 
BRANCH  33  36
ATOM     36  O   UNL     1       1.009   8.195  21.746  0.00  0.00    +0.000 OA
ATOM     37  C   UNL     1       1.682   7.690  20.609  0.00  0.00    +0.000 C 
ENDBRANCH  33  36
ENDBRANCH  28  30
ENDBRANCH  25  26
ENDBRANCH   4  25
TORSDOF 6
ENDMDL
MODEL 7
REMARK VINA RESULT:      -6.3      1.590      1.988
REMARK  Name = 
REMARK  11 active torsions:
REMARK  status: ('A' for Active; 'I' for Inactive)
REMARK    1  A    between atoms: C_2  and  C_3
REMARK    2  A    between atoms: C_3  and  C_4
REMARK    3  A    between atoms: C_6  and  O_7
REMARK    4  A    between atoms: O_7  and  C_8
REMARK    5  A    between atoms: N_10  and  C_11
REMARK    6  A    between atoms: C_14  and  O_15
REMARK    7  A    between atoms: O_15  and  C_16
REMARK    8  A    between atoms: C_19  and  C_20
REMARK    9  A    between atoms: C_21  and  C_22
REMARK   10  A    between atoms: C_32  and  C_33
REMARK   11  A    between atoms: C_34  and  O_35
REMARK                            x       y       z     vdW  Elec       q    Type
REMARK                         _______ _______ _______ _____ _____    ______ ____
ROOT
ATOM      1  C   UNL     1       1.122  14.060  19.492  0.00  0.00    +0.000 C 
ATOM      2  C   UNL     1       2.270  15.017  19.029  0.00  0.00    +0.000 C 
ATOM      3  C   UNL     1       0.988  13.739  20.967  0.00  0.00    +0.000 C 
ATOM      4  C   UNL     1      -0.260  12.599  21.181  0.00  0.00    +0.000 C 
ATOM      5  C   UNL     1      -1.712  13.038  21.732  0.00  0.00    +0.000 C 
ATOM      6  C   UNL     1      -2.188  12.150  22.928  0.00  0.00    +0.000 C 
ATOM      7  C   UNL     1      -3.038  12.913  20.739  0.00  0.00    +0.000 C 
ATOM      8  C   UNL     1      -3.128  12.744  19.207  0.00  0.00    +0.000 C 
ATOM      9  C   UNL     1      -4.133  13.915  21.151  0.00  0.00    +0.000 C 
ATOM     10  C   UNL     1      -3.615  15.225  21.692  0.00  0.00    +0.000 C 
ATOM     11  O   UNL     1      -4.396  15.949  22.311  0.00  0.00    +0.000 OA
ATOM     12  C   UNL     1      -2.108  15.566  21.536  0.00  0.00    +0.000 C 
ATOM     13  C   UNL     1      -1.777  16.811  22.456  0.00  0.00    +0.000 C 
ATOM     14  C   UNL     1      -0.920  16.365  23.658  0.00  0.00    +0.000 C 
ATOM     15  C   UNL     1      -1.107  14.878  23.659  0.00  0.00    +0.000 C 
ATOM     16  O   UNL     1      -0.750  14.151  24.571  0.00  0.00    +0.000 OA
ATOM     17  C   UNL     1      -1.480  14.438  22.264  0.00  0.00    +0.000 C 
ATOM     18  C   UNL     1      -1.591  15.596  19.971  0.00  0.00    +0.000 C 
ATOM     19  C   UNL     1      -1.948  16.974  19.373  0.00  0.00    +0.000 C 
ATOM     20  C   UNL     1      -0.312  14.773  19.064  0.00  0.00    +0.000 C 
ENDROOT
BRANCH   1  22
ATOM     21  C   UNL     1       2.475  12.085  18.169  0.00  0.00    +0.000 C 
ATOM     22  C   UNL     1       1.846  12.699  19.174  0.00  0.00    +0.000 C 
ENDBRANCH   1  22
BRANCH  20  23
ATOM     23  O   UNL     1      -0.927  13.854  18.153  0.00  0.00    +0.000 OA
ATOM     24  H   UNL     1      -0.566  12.965  18.310  0.00  0.00    +0.000 HD
ENDBRANCH  20  23
BRANCH   4  25
ATOM     25  O   UNL     1       0.169  11.424  21.926  0.00  0.00    +0.000 OA
BRANCH  25  26
ATOM     26  C   UNL     1       0.085  10.205  21.342  0.00  0.00    +0.000 C 
ATOM     27  O   UNL     1      -0.969   9.618  21.128  0.00  0.00    +0.000 OA
ATOM     28  N   UNL     1       1.328   9.782  20.979  0.00  0.00    +0.000 N 
ATOM     29  H   UNL     1       2.084  10.400  21.248  0.00  0.00    +0.000 HD
BRANCH  28  30
ATOM     30  C   UNL     1       1.615   8.642  20.215  0.00  0.00    +0.000 A 
ATOM     31  C   UNL     1       1.709   7.365  20.775  0.00  0.00    +0.000 A 
ATOM     32  C   UNL     1       2.135   6.286  20.015  0.00  0.00    +0.000 A 
ATOM     33  C   UNL     1       2.415   6.452  18.669  0.00  0.00    +0.000 A 
ATOM     34  C   UNL     1       2.242   7.702  18.076  0.00  0.00    +0.000 A 
ATOM     35  C   UNL     1       1.835   8.801  18.857  0.00  0.00    +0.000 A 
BRANCH  33  36
ATOM     36  O   UNL     1       2.890   5.329  18.046  0.00  0.00    +0.000 OA
ATOM     37  C   UNL     1       2.081   4.174  18.156  0.00  0.00    +0.000 C 
ENDBRANCH  33  36
ENDBRANCH  28  30
ENDBRANCH  25  26
ENDBRANCH   4  25
TORSDOF 6
ENDMDL
MODEL 8
REMARK VINA RESULT:      -6.2      2.104      4.201
REMARK  Name = 
REMARK  11 active torsions:
REMARK  status: ('A' for Active; 'I' for Inactive)
REMARK    1  A    between atoms: C_2  and  C_3
REMARK    2  A    between atoms: C_3  and  C_4
REMARK    3  A    between atoms: C_6  and  O_7
REMARK    4  A    between atoms: O_7  and  C_8
REMARK    5  A    between atoms: N_10  and  C_11
REMARK    6  A    between atoms: C_14  and  O_15
REMARK    7  A    between atoms: O_15  and  C_16
REMARK    8  A    between atoms: C_19  and  C_20
REMARK    9  A    between atoms: C_21  and  C_22
REMARK   10  A    between atoms: C_32  and  C_33
REMARK   11  A    between atoms: C_34  and  O_35
REMARK                            x       y       z     vdW  Elec       q    Type
REMARK                         _______ _______ _______ _____ _____    ______ ____
ROOT
ATOM      1  C   UNL     1      -2.837  12.217  19.208  0.00  0.00    +0.000 C 
ATOM      2  C   UNL     1      -4.003  12.085  18.172  0.00  0.00    +0.000 C 
ATOM      3  C   UNL     1      -1.550  12.891  18.776  0.00  0.00    +0.000 C 
ATOM      4  C   UNL     1      -0.420  12.804  20.048  0.00  0.00    +0.000 C 
ATOM      5  C   UNL     1      -0.104  14.083  20.979  0.00  0.00    +0.000 C 
ATOM      6  C   UNL     1       1.429  14.368  21.100  0.00  0.00    +0.000 C 
ATOM      7  C   UNL     1      -0.515  14.048  22.589  0.00  0.00    +0.000 C 
ATOM      8  C   UNL     1      -1.471  13.110  23.356  0.00  0.00    +0.000 C 
ATOM      9  C   UNL     1      -0.741  15.472  23.133  0.00  0.00    +0.000 C 
ATOM     10  C   UNL     1      -1.339  16.436  22.138  0.00  0.00    +0.000 C 
ATOM     11  O   UNL     1      -1.276  17.642  22.386  0.00  0.00    +0.000 OA
ATOM     12  C   UNL     1      -1.919  15.889  20.806  0.00  0.00    +0.000 C 
ATOM     13  C   UNL     1      -2.174  17.109  19.830  0.00  0.00    +0.000 C 
ATOM     14  C   UNL     1      -1.149  17.087  18.679  0.00  0.00    +0.000 C 
ATOM     15  C   UNL     1      -0.096  16.154  19.196  0.00  0.00    +0.000 C 
ATOM     16  O   UNL     1       0.994  16.005  18.671  0.00  0.00    +0.000 OA
ATOM     17  C   UNL     1      -0.726  15.236  20.217  0.00  0.00    +0.000 C 
ATOM     18  C   UNL     1      -3.130  14.790  21.009  0.00  0.00    +0.000 C 
ATOM     19  C   UNL     1      -4.446  15.562  21.246  0.00  0.00    +0.000 C 
ATOM     20  C   UNL     1      -3.407  13.125  20.472  0.00  0.00    +0.000 C 
ENDROOT
BRANCH   1  22
ATOM     21  C   UNL     1      -1.890   9.919  18.067  0.00  0.00    +0.000 C 
ATOM     22  C   UNL     1      -2.241  10.772  19.033  0.00  0.00    +0.000 C 
ENDBRANCH   1  22
BRANCH  20  23
ATOM     23  O   UNL     1      -3.326  12.264  21.614  0.00  0.00    +0.000 OA
ATOM     24  H   UNL     1      -4.160  12.321  22.112  0.00  0.00    +0.000 HD
ENDBRANCH  20  23
BRANCH   4  25
ATOM     25  O   UNL     1       0.850  12.220  19.637  0.00  0.00    +0.000 OA
BRANCH  25  26
ATOM     26  C   UNL     1       1.214  11.015  20.136  0.00  0.00    +0.000 C 
ATOM     27  O   UNL     1       1.250  10.749  21.331  0.00  0.00    +0.000 OA
ATOM     28  N   UNL     1       1.462  10.150  19.113  0.00  0.00    +0.000 N 
ATOM     29  H   UNL     1       1.390  10.552  18.187  0.00  0.00    +0.000 HD
BRANCH  28  30
ATOM     30  C   UNL     1       1.712   8.776  19.244  0.00  0.00    +0.000 A 
ATOM     31  C   UNL     1       1.442   8.071  20.420  0.00  0.00    +0.000 A 
ATOM     32  C   UNL     1       1.835   6.749  20.562  0.00  0.00    +0.000 A 
ATOM     33  C   UNL     1       2.448   6.091  19.508  0.00  0.00    +0.000 A 
ATOM     34  C   UNL     1       2.644   6.755  18.298  0.00  0.00    +0.000 A 
ATOM     35  C   UNL     1       2.268   8.105  18.168  0.00  0.00    +0.000 A 
BRANCH  33  36
ATOM     36  O   UNL     1       2.847   4.812  19.794  0.00  0.00    +0.000 OA
ATOM     37  C   UNL     1       4.133   4.449  19.329  0.00  0.00    +0.000 C 
ENDBRANCH  33  36
ENDBRANCH  28  30
ENDBRANCH  25  26
ENDBRANCH   4  25
TORSDOF 6
ENDMDL
MODEL 9
REMARK VINA RESULT:      -6.2      1.869      4.149
REMARK  Name = 
REMARK  11 active torsions:
REMARK  status: ('A' for Active; 'I' for Inactive)
REMARK    1  A    between atoms: C_2  and  C_3
REMARK    2  A    between atoms: C_3  and  C_4
REMARK    3  A    between atoms: C_6  and  O_7
REMARK    4  A    between atoms: O_7  and  C_8
REMARK    5  A    between atoms: N_10  and  C_11
REMARK    6  A    between atoms: C_14  and  O_15
REMARK    7  A    between atoms: O_15  and  C_16
REMARK    8  A    between atoms: C_19  and  C_20
REMARK    9  A    between atoms: C_21  and  C_22
REMARK   10  A    between atoms: C_32  and  C_33
REMARK   11  A    between atoms: C_34  and  O_35
REMARK                            x       y       z     vdW  Elec       q    Type
REMARK                         _______ _______ _______ _____ _____    ______ ____
ROOT
ATOM      1  C   UNL     1      -5.370  13.056  20.333  0.00  0.00    +0.000 C 
ATOM      2  C   UNL     1      -6.826  13.418  19.889  0.00  0.00    +0.000 C 
ATOM      3  C   UNL     1      -4.207  13.779  19.684  0.00  0.00    +0.000 C 
ATOM      4  C   UNL     1      -2.746  13.123  20.263  0.00  0.00    +0.000 C 
ATOM      5  C   UNL     1      -1.860  13.893  21.370  0.00  0.00    +0.000 C 
ATOM      6  C   UNL     1      -0.361  14.024  20.948  0.00  0.00    +0.000 C 
ATOM      7  C   UNL     1      -1.675  13.226  22.881  0.00  0.00    +0.000 C 
ATOM      8  C   UNL     1      -2.472  12.108  23.585  0.00  0.00    +0.000 C 
ATOM      9  C   UNL     1      -1.389  14.314  23.934  0.00  0.00    +0.000 C 
ATOM     10  C   UNL     1      -2.084  15.630  23.681  0.00  0.00    +0.000 C 
ATOM     11  O   UNL     1      -1.685  16.624  24.290  0.00  0.00    +0.000 OA
ATOM     12  C   UNL     1      -3.198  15.704  22.602  0.00  0.00    +0.000 C 
ATOM     13  C   UNL     1      -3.519  17.227  22.316  0.00  0.00    +0.000 C 
ATOM     14  C   UNL     1      -2.996  17.624  20.921  0.00  0.00    +0.000 C 
ATOM     15  C   UNL     1      -2.049  16.507  20.598  0.00  0.00    +0.000 C 
ATOM     16  O   UNL     1      -1.271  16.529  19.659  0.00  0.00    +0.000 OA
ATOM     17  C   UNL     1      -2.454  15.287  21.390  0.00  0.00    +0.000 C 
ATOM     18  C   UNL     1      -4.461  14.682  22.879  0.00  0.00    +0.000 C 
ATOM     19  C   UNL     1      -5.415  15.358  23.888  0.00  0.00    +0.000 C 
ATOM     20  C   UNL     1      -5.253  13.398  21.951  0.00  0.00    +0.000 C 
ENDROOT
BRANCH   1  22
ATOM     21  C   UNL     1      -5.884  11.027  18.574  0.00  0.00    +0.000 C 
ATOM     22  C   UNL     1      -5.191  11.779  19.432  0.00  0.00    +0.000 C 
ENDBRANCH   1  22
BRANCH  20  23
ATOM     23  O   UNL     1      -4.956  12.143  22.575  0.00  0.00    +0.000 OA
ATOM     24  H   UNL     1      -5.790  11.714  22.831  0.00  0.00    +0.000 HD
ENDBRANCH  20  23
BRANCH   4  25
ATOM     25  O   UNL     1      -1.855  12.692  19.194  0.00  0.00    +0.000 OA
BRANCH  25  26
ATOM     26  C   UNL     1      -1.530  11.381  19.094  0.00  0.00    +0.000 C 
ATOM     27  O   UNL     1      -2.258  10.530  18.597  0.00  0.00    +0.000 OA
ATOM     28  N   UNL     1      -0.266  11.184  19.562  0.00  0.00    +0.000 N 
ATOM     29  H   UNL     1       0.181  12.008  19.944  0.00  0.00    +0.000 HD
BRANCH  28  30
ATOM     30  C   UNL     1       0.462   9.989  19.475  0.00  0.00    +0.000 A 
ATOM     31  C   UNL     1       0.668   9.152  20.575  0.00  0.00    +0.000 A 
ATOM     32  C   UNL     1       1.513   8.056  20.486  0.00  0.00    +0.000 A 
ATOM     33  C   UNL     1       2.116   7.741  19.280  0.00  0.00    +0.000 A 
ATOM     34  C   UNL     1       1.851   8.516  18.152  0.00  0.00    +0.000 A 
ATOM     35  C   UNL     1       1.014   9.644  18.253  0.00  0.00    +0.000 A 
BRANCH  33  36
ATOM     36  O   UNL     1       2.977   6.678  19.337  0.00  0.00    +0.000 OA
ATOM     37  C   UNL     1       3.600   6.323  18.117  0.00  0.00    +0.000 C 
ENDBRANCH  33  36
ENDBRANCH  28  30
ENDBRANCH  25  26
ENDBRANCH   4  25
TORSDOF 6
ENDMDL
