MODEL 1
REMARK VINA RESULT:      -6.8      0.000      0.000
REMARK  Name = 
REMARK  6 active torsions:
REMARK  status: ('A' for Active; 'I' for Inactive)
REMARK    1  A    between atoms: C_1  and  C_2
REMARK    2  A    between atoms: N_6  and  C_7
REMARK    3  A    between atoms: N_6  and  C_8
REMARK    4  A    between atoms: N_9  and  C_10
REMARK    5  A    between atoms: C_10  and  C_11
REMARK    6  A    between atoms: C_11  and  C_12
REMARK                            x       y       z     vdW  Elec       q    Type
REMARK                         _______ _______ _______ _____ _____    ______ ____
ROOT
ATOM      1  C   UNL     1       2.791   7.589  17.978  0.00  0.00    +0.000 C 
ATOM      2  C   UNL     1       2.871   6.498  19.026  0.00  0.00    +0.000 C 
ATOM      3  C   UNL     1       2.027   6.876  20.253  0.00  0.00    +0.000 C 
ATOM      4  N   UNL     1       1.585   5.594  20.838  0.00  0.00    +0.000 NA
ATOM      5  C   UNL     1       1.725   4.723  19.865  0.00  0.00    +0.000 C 
ATOM      6  N   UNL     1       1.499   3.382  20.055  0.00  0.00    +0.000 N 
ATOM      7  C   UNL     1       0.748   2.546  19.136  0.00  0.00    +0.000 C 
ATOM      8  C   UNL     1       1.536   2.856  21.421  0.00  0.00    +0.000 C 
ATOM      9  N   UNL     1       2.273   5.203  18.690  0.00  0.00    +0.000 N 
ENDROOT
BRANCH   9  10
ATOM     10  C   UNL     1       2.675   4.378  17.552  0.00  0.00    +0.000 C 
BRANCH  10  11
ATOM     11  C   UNL     1       4.005   3.628  17.602  0.00  0.00    +0.000 C 
BRANCH  11  12
ATOM     12  C   UNL     1       5.131   4.175  16.758  0.00  0.00    +0.000 A 
ATOM     13  C   UNL     1       5.431   3.661  15.487  0.00  0.00    +0.000 A 
ATOM     14  C   UNL     1       6.492   4.170  14.740  0.00  0.00    +0.000 A 
ATOM     15  C   UNL     1       7.262   5.213  15.248  0.00  0.00    +0.000 A 
ATOM     16  C   UNL     1       6.957   5.743  16.496  0.00  0.00    +0.000 A 
ATOM     17  F   UNL     1       7.694   6.744  16.987  0.00  0.00    +0.000 F 
ATOM     18  C   UNL     1       5.896   5.245  17.246  0.00  0.00    +0.000 A 
ENDBRANCH  11  12
ENDBRANCH  10  11
ENDBRANCH   9  10
TORSDOF 3
ENDMDL
MODEL 2
REMARK VINA RESULT:      -6.8      2.818      4.062
REMARK  Name = 
REMARK  6 active torsions:
REMARK  status: ('A' for Active; 'I' for Inactive)
REMARK    1  A    between atoms: C_1  and  C_2
REMARK    2  A    between atoms: N_6  and  C_7
REMARK    3  A    between atoms: N_6  and  C_8
REMARK    4  A    between atoms: N_9  and  C_10
REMARK    5  A    between atoms: C_10  and  C_11
REMARK    6  A    between atoms: C_11  and  C_12
REMARK                            x       y       z     vdW  Elec       q    Type
REMARK                         _______ _______ _______ _____ _____    ______ ____
ROOT
ATOM      1  C   UNL     1       7.704   7.258  17.393  0.00  0.00    +0.000 C 
ATOM      2  C   UNL     1       7.242   5.901  17.884  0.00  0.00    +0.000 C 
ATOM      3  C   UNL     1       7.468   5.778  19.399  0.00  0.00    +0.000 C 
ATOM      4  N   UNL     1       6.424   4.850  19.879  0.00  0.00    +0.000 NA
ATOM      5  C   UNL     1       5.514   4.860  18.933  0.00  0.00    +0.000 C 
ATOM      6  N   UNL     1       4.416   4.037  18.975  0.00  0.00    +0.000 N 
ATOM      7  C   UNL     1       3.062   4.471  18.676  0.00  0.00    +0.000 C 
ATOM      8  C   UNL     1       4.470   2.846  19.825  0.00  0.00    +0.000 C 
ATOM      9  N   UNL     1       5.806   5.616  17.813  0.00  0.00    +0.000 N 
ENDROOT
BRANCH   9  10
ATOM     10  C   UNL     1       5.022   5.630  16.580  0.00  0.00    +0.000 C 
BRANCH  10  11
ATOM     11  C   UNL     1       4.916   4.354  15.744  0.00  0.00    +0.000 C 
BRANCH  11  12
ATOM     12  C   UNL     1       5.739   4.294  14.480  0.00  0.00    +0.000 A 
ATOM     13  C   UNL     1       6.911   5.049  14.314  0.00  0.00    +0.000 A 
ATOM     14  C   UNL     1       7.637   4.991  13.125  0.00  0.00    +0.000 A 
ATOM     15  C   UNL     1       7.211   4.164  12.089  0.00  0.00    +0.000 A 
ATOM     16  C   UNL     1       6.064   3.395  12.256  0.00  0.00    +0.000 A 
ATOM     17  F   UNL     1       5.652   2.601  11.263  0.00  0.00    +0.000 F 
ATOM     18  C   UNL     1       5.336   3.443  13.440  0.00  0.00    +0.000 A 
ENDBRANCH  11  12
ENDBRANCH  10  11
ENDBRANCH   9  10
TORSDOF 3
ENDMDL
MODEL 3
REMARK VINA RESULT:      -6.8      3.246      6.046
REMARK  Name = 
REMARK  6 active torsions:
REMARK  status: ('A' for Active; 'I' for Inactive)
REMARK    1  A    between atoms: C_1  and  C_2
REMARK    2  A    between atoms: N_6  and  C_7
REMARK    3  A    between atoms: N_6  and  C_8
REMARK    4  A    between atoms: N_9  and  C_10
REMARK    5  A    between atoms: C_10  and  C_11
REMARK    6  A    between atoms: C_11  and  C_12
REMARK                            x       y       z     vdW  Elec       q    Type
REMARK                         _______ _______ _______ _____ _____    ______ ____
ROOT
ATOM      1  C   UNL     1       5.410   3.752  13.858  0.00  0.00    +0.000 C 
ATOM      2  C   UNL     1       6.367   4.029  15.000  0.00  0.00    +0.000 C 
ATOM      3  C   UNL     1       7.134   5.337  14.746  0.00  0.00    +0.000 C 
ATOM      4  N   UNL     1       7.446   5.877  16.084  0.00  0.00    +0.000 NA
ATOM      5  C   UNL     1       6.602   5.273  16.889  0.00  0.00    +0.000 C 
ATOM      6  N   UNL     1       6.646   5.447  18.249  0.00  0.00    +0.000 N 
ATOM      7  C   UNL     1       5.475   5.675  19.079  0.00  0.00    +0.000 C 
ATOM      8  C   UNL     1       7.887   5.943  18.848  0.00  0.00    +0.000 C 
ATOM      9  N   UNL     1       5.779   4.324  16.309  0.00  0.00    +0.000 N 
ENDROOT
BRANCH   9  10
ATOM     10  C   UNL     1       4.896   3.418  17.041  0.00  0.00    +0.000 C 
BRANCH  10  11
ATOM     11  C   UNL     1       3.388   3.668  17.028  0.00  0.00    +0.000 C 
BRANCH  11  12
ATOM     12  C   UNL     1       2.631   3.354  18.295  0.00  0.00    +0.000 A 
ATOM     13  C   UNL     1       1.231   3.433  18.369  0.00  0.00    +0.000 A 
ATOM     14  C   UNL     1       0.560   3.161  19.560  0.00  0.00    +0.000 A 
ATOM     15  C   UNL     1       1.278   2.790  20.693  0.00  0.00    +0.000 A 
ATOM     16  C   UNL     1       2.663   2.687  20.622  0.00  0.00    +0.000 A 
ATOM     17  F   UNL     1       3.356   2.332  21.708  0.00  0.00    +0.000 F 
ATOM     18  C   UNL     1       3.340   2.952  19.436  0.00  0.00    +0.000 A 
ENDBRANCH  11  12
ENDBRANCH  10  11
ENDBRANCH   9  10
TORSDOF 3
ENDMDL
MODEL 4
REMARK VINA RESULT:      -6.8      3.235      6.321
REMARK  Name = 
REMARK  6 active torsions:
REMARK  status: ('A' for Active; 'I' for Inactive)
REMARK    1  A    between atoms: C_1  and  C_2
REMARK    2  A    between atoms: N_6  and  C_7
REMARK    3  A    between atoms: N_6  and  C_8
REMARK    4  A    between atoms: N_9  and  C_10
REMARK    5  A    between atoms: C_10  and  C_11
REMARK    6  A    between atoms: C_11  and  C_12
REMARK                            x       y       z     vdW  Elec       q    Type
REMARK                         _______ _______ _______ _____ _____    ______ ____
ROOT
ATOM      1  C   UNL     1       5.703   4.665  19.491  0.00  0.00    +0.000 C 
ATOM      2  C   UNL     1       6.272   5.185  18.187  0.00  0.00    +0.000 C 
ATOM      3  C   UNL     1       7.688   4.628  17.964  0.00  0.00    +0.000 C 
ATOM      4  N   UNL     1       7.860   4.565  16.498  0.00  0.00    +0.000 NA
ATOM      5  C   UNL     1       6.637   4.595  16.021  0.00  0.00    +0.000 C 
ATOM      6  N   UNL     1       6.386   4.649  14.672  0.00  0.00    +0.000 N 
ATOM      7  C   UNL     1       5.387   3.837  13.998  0.00  0.00    +0.000 C 
ATOM      8  C   UNL     1       7.452   5.115  13.783  0.00  0.00    +0.000 C 
ATOM      9  N   UNL     1       5.623   4.743  16.950  0.00  0.00    +0.000 N 
ENDROOT
BRANCH   9  10
ATOM     10  C   UNL     1       4.216   4.973  16.628  0.00  0.00    +0.000 C 
BRANCH  10  11
ATOM     11  C   UNL     1       3.356   5.807  17.577  0.00  0.00    +0.000 C 
BRANCH  11  12
ATOM     12  C   UNL     1       2.453   5.055  18.523  0.00  0.00    +0.000 A 
ATOM     13  C   UNL     1       2.203   5.500  19.831  0.00  0.00    +0.000 A 
ATOM     14  C   UNL     1       1.383   4.771  20.691  0.00  0.00    +0.000 A 
ATOM     15  C   UNL     1       0.788   3.592  20.252  0.00  0.00    +0.000 A 
ATOM     16  C   UNL     1       1.012   3.158  18.950  0.00  0.00    +0.000 A 
ATOM     17  F   UNL     1       0.442   2.025  18.525  0.00  0.00    +0.000 F 
ATOM     18  C   UNL     1       1.824   3.881  18.084  0.00  0.00    +0.000 A 
ENDBRANCH  11  12
ENDBRANCH  10  11
ENDBRANCH   9  10
TORSDOF 3
ENDMDL
MODEL 5
REMARK VINA RESULT:      -6.7      0.957      1.473
REMARK  Name = 
REMARK  6 active torsions:
REMARK  status: ('A' for Active; 'I' for Inactive)
REMARK    1  A    between atoms: C_1  and  C_2
REMARK    2  A    between atoms: N_6  and  C_7
REMARK    3  A    between atoms: N_6  and  C_8
REMARK    4  A    between atoms: N_9  and  C_10
REMARK    5  A    between atoms: C_10  and  C_11
REMARK    6  A    between atoms: C_11  and  C_12
REMARK                            x       y       z     vdW  Elec       q    Type
REMARK                         _______ _______ _______ _____ _____    ______ ____
ROOT
ATOM      1  C   UNL     1       2.692   7.448  17.920  0.00  0.00    +0.000 C 
ATOM      2  C   UNL     1       2.809   6.349  18.958  0.00  0.00    +0.000 C 
ATOM      3  C   UNL     1       2.061   6.746  20.240  0.00  0.00    +0.000 C 
ATOM      4  N   UNL     1       1.622   5.474  20.849  0.00  0.00    +0.000 NA
ATOM      5  C   UNL     1       1.670   4.604  19.867  0.00  0.00    +0.000 C 
ATOM      6  N   UNL     1       1.419   3.270  20.067  0.00  0.00    +0.000 N 
ATOM      7  C   UNL     1       0.583   2.460  19.198  0.00  0.00    +0.000 C 
ATOM      8  C   UNL     1       1.532   2.736  21.426  0.00  0.00    +0.000 C 
ATOM      9  N   UNL     1       2.153   5.074  18.659  0.00  0.00    +0.000 N 
ENDROOT
BRANCH   9  10
ATOM     10  C   UNL     1       2.452   4.244  17.494  0.00  0.00    +0.000 C 
BRANCH  10  11
ATOM     11  C   UNL     1       3.690   3.348  17.509  0.00  0.00    +0.000 C 
BRANCH  11  12
ATOM     12  C   UNL     1       5.019   4.012  17.242  0.00  0.00    +0.000 A 
ATOM     13  C   UNL     1       5.820   4.524  18.275  0.00  0.00    +0.000 A 
ATOM     14  C   UNL     1       7.032   5.155  17.996  0.00  0.00    +0.000 A 
ATOM     15  C   UNL     1       7.470   5.269  16.680  0.00  0.00    +0.000 A 
ATOM     16  C   UNL     1       6.693   4.744  15.653  0.00  0.00    +0.000 A 
ATOM     17  F   UNL     1       7.109   4.853  14.388  0.00  0.00    +0.000 F 
ATOM     18  C   UNL     1       5.485   4.109  15.923  0.00  0.00    +0.000 A 
ENDBRANCH  11  12
ENDBRANCH  10  11
ENDBRANCH   9  10
TORSDOF 3
ENDMDL
MODEL 6
REMARK VINA RESULT:      -6.6      1.421      2.032
REMARK  Name = 
REMARK  6 active torsions:
REMARK  status: ('A' for Active; 'I' for Inactive)
REMARK    1  A    between atoms: C_1  and  C_2
REMARK    2  A    between atoms: N_6  and  C_7
REMARK    3  A    between atoms: N_6  and  C_8
REMARK    4  A    between atoms: N_9  and  C_10
REMARK    5  A    between atoms: C_10  and  C_11
REMARK    6  A    between atoms: C_11  and  C_12
REMARK                            x       y       z     vdW  Elec       q    Type
REMARK                         _______ _______ _______ _____ _____    ______ ____
ROOT
ATOM      1  C   UNL     1       2.625   7.633  17.985  0.00  0.00    +0.000 C 
ATOM      2  C   UNL     1       2.938   6.615  19.064  0.00  0.00    +0.000 C 
ATOM      3  C   UNL     1       1.919   6.723  20.209  0.00  0.00    +0.000 C 
ATOM      4  N   UNL     1       1.832   5.367  20.788  0.00  0.00    +0.000 NA
ATOM      5  C   UNL     1       2.307   4.578  19.853  0.00  0.00    +0.000 C 
ATOM      6  N   UNL     1       2.478   3.232  20.058  0.00  0.00    +0.000 N 
ATOM      7  C   UNL     1       2.091   2.208  19.102  0.00  0.00    +0.000 C 
ATOM      8  C   UNL     1       2.554   2.741  21.435  0.00  0.00    +0.000 C 
ATOM      9  N   UNL     1       2.785   5.201  18.714  0.00  0.00    +0.000 N 
ENDROOT
BRANCH   9  10
ATOM     10  C   UNL     1       3.510   4.534  17.633  0.00  0.00    +0.000 C 
BRANCH  10  11
ATOM     11  C   UNL     1       4.521   5.328  16.807  0.00  0.00    +0.000 C 
BRANCH  11  12
ATOM     12  C   UNL     1       5.782   5.769  17.508  0.00  0.00    +0.000 A 
ATOM     13  C   UNL     1       6.361   5.022  18.547  0.00  0.00    +0.000 A 
ATOM     14  C   UNL     1       7.514   5.466  19.193  0.00  0.00    +0.000 A 
ATOM     15  C   UNL     1       8.116   6.658  18.799  0.00  0.00    +0.000 A 
ATOM     16  C   UNL     1       7.563   7.391  17.754  0.00  0.00    +0.000 A 
ATOM     17  F   UNL     1       8.138   8.536  17.374  0.00  0.00    +0.000 F 
ATOM     18  C   UNL     1       6.415   6.952  17.101  0.00  0.00    +0.000 A 
ENDBRANCH  11  12
ENDBRANCH  10  11
ENDBRANCH   9  10
TORSDOF 3
ENDMDL
MODEL 7
REMARK VINA RESULT:      -6.5      2.854      5.799
REMARK  Name = 
REMARK  6 active torsions:
REMARK  status: ('A' for Active; 'I' for Inactive)
REMARK    1  A    between atoms: C_1  and  C_2
REMARK    2  A    between atoms: N_6  and  C_7
REMARK    3  A    between atoms: N_6  and  C_8
REMARK    4  A    between atoms: N_9  and  C_10
REMARK    5  A    between atoms: C_10  and  C_11
REMARK    6  A    between atoms: C_11  and  C_12
REMARK                            x       y       z     vdW  Elec       q    Type
REMARK                         _______ _______ _______ _____ _____    ______ ____
ROOT
ATOM      1  C   UNL     1       1.411   3.797  20.211  0.00  0.00    +0.000 C 
ATOM      2  C   UNL     1       2.861   4.185  20.006  0.00  0.00    +0.000 C 
ATOM      3  C   UNL     1       3.779   2.986  20.290  0.00  0.00    +0.000 C 
ATOM      4  N   UNL     1       4.967   3.188  19.437  0.00  0.00    +0.000 NA
ATOM      5  C   UNL     1       4.571   4.035  18.515  0.00  0.00    +0.000 C 
ATOM      6  N   UNL     1       5.436   4.545  17.579  0.00  0.00    +0.000 N 
ATOM      7  C   UNL     1       5.131   4.653  16.163  0.00  0.00    +0.000 C 
ATOM      8  C   UNL     1       6.872   4.504  17.863  0.00  0.00    +0.000 C 
ATOM      9  N   UNL     1       3.280   4.514  18.641  0.00  0.00    +0.000 N 
ENDROOT
BRANCH   9  10
ATOM     10  C   UNL     1       2.699   5.586  17.834  0.00  0.00    +0.000 C 
BRANCH  10  11
ATOM     11  C   UNL     1       3.178   7.023  18.040  0.00  0.00    +0.000 C 
BRANCH  11  12
ATOM     12  C   UNL     1       2.214   7.978  18.701  0.00  0.00    +0.000 A 
ATOM     13  C   UNL     1       1.592   9.020  17.995  0.00  0.00    +0.000 A 
ATOM     14  C   UNL     1       0.724   9.902  18.637  0.00  0.00    +0.000 A 
ATOM     15  C   UNL     1       0.451   9.746  19.993  0.00  0.00    +0.000 A 
ATOM     16  C   UNL     1       1.044   8.701  20.693  0.00  0.00    +0.000 A 
ATOM     17  F   UNL     1       0.785   8.547  21.996  0.00  0.00    +0.000 F 
ATOM     18  C   UNL     1       1.908   7.813  20.060  0.00  0.00    +0.000 A 
ENDBRANCH  11  12
ENDBRANCH  10  11
ENDBRANCH   9  10
TORSDOF 3
ENDMDL
MODEL 8
REMARK VINA RESULT:      -6.5      3.468      6.294
REMARK  Name = 
REMARK  6 active torsions:
REMARK  status: ('A' for Active; 'I' for Inactive)
REMARK    1  A    between atoms: C_1  and  C_2
REMARK    2  A    between atoms: N_6  and  C_7
REMARK    3  A    between atoms: N_6  and  C_8
REMARK    4  A    between atoms: N_9  and  C_10
REMARK    5  A    between atoms: C_10  and  C_11
REMARK    6  A    between atoms: C_11  and  C_12
REMARK                            x       y       z     vdW  Elec       q    Type
REMARK                         _______ _______ _______ _____ _____    ______ ____
ROOT
ATOM      1  C   UNL     1       5.539   3.661  13.243  0.00  0.00    +0.000 C 
ATOM      2  C   UNL     1       6.304   4.005  14.505  0.00  0.00    +0.000 C 
ATOM      3  C   UNL     1       7.404   5.033  14.197  0.00  0.00    +0.000 C 
ATOM      4  N   UNL     1       7.584   5.803  15.444  0.00  0.00    +0.000 NA
ATOM      5  C   UNL     1       6.481   5.592  16.124  0.00  0.00    +0.000 C 
ATOM      6  N   UNL     1       6.311   6.074  17.398  0.00  0.00    +0.000 N 
ATOM      7  C   UNL     1       5.098   6.724  17.867  0.00  0.00    +0.000 C 
ATOM      8  C   UNL     1       7.500   6.439  18.169  0.00  0.00    +0.000 C 
ATOM      9  N   UNL     1       5.572   4.717  15.557  0.00  0.00    +0.000 N 
ENDROOT
BRANCH   9  10
ATOM     10  C   UNL     1       4.371   4.209  16.216  0.00  0.00    +0.000 C 
BRANCH  10  11
ATOM     11  C   UNL     1       4.494   3.063  17.220  0.00  0.00    +0.000 C 
BRANCH  11  12
ATOM     12  C   UNL     1       3.458   2.998  18.315  0.00  0.00    +0.000 A 
ATOM     13  C   UNL     1       3.752   3.338  19.645  0.00  0.00    +0.000 A 
ATOM     14  C   UNL     1       2.781   3.244  20.640  0.00  0.00    +0.000 A 
ATOM     15  C   UNL     1       1.493   2.824  20.318  0.00  0.00    +0.000 A 
ATOM     16  C   UNL     1       1.188   2.509  18.999  0.00  0.00    +0.000 A 
ATOM     17  F   UNL     1      -0.047   2.104  18.686  0.00  0.00    +0.000 F 
ATOM     18  C   UNL     1       2.149   2.604  17.999  0.00  0.00    +0.000 A 
ENDBRANCH  11  12
ENDBRANCH  10  11
ENDBRANCH   9  10
TORSDOF 3
ENDMDL
MODEL 9
REMARK VINA RESULT:      -6.5      3.254      6.008
REMARK  Name = 
REMARK  6 active torsions:
REMARK  status: ('A' for Active; 'I' for Inactive)
REMARK    1  A    between atoms: C_1  and  C_2
REMARK    2  A    between atoms: N_6  and  C_7
REMARK    3  A    between atoms: N_6  and  C_8
REMARK    4  A    between atoms: N_9  and  C_10
REMARK    5  A    between atoms: C_10  and  C_11
REMARK    6  A    between atoms: C_11  and  C_12
REMARK                            x       y       z     vdW  Elec       q    Type
REMARK                         _______ _______ _______ _____ _____    ______ ____
ROOT
ATOM      1  C   UNL     1       6.033   5.414  19.463  0.00  0.00    +0.000 C 
ATOM      2  C   UNL     1       6.660   5.633  18.101  0.00  0.00    +0.000 C 
ATOM      3  C   UNL     1       7.815   4.643  17.881  0.00  0.00    +0.000 C 
ATOM      4  N   UNL     1       7.875   4.425  16.422  0.00  0.00    +0.000 NA
ATOM      5  C   UNL     1       6.697   4.806  15.983  0.00  0.00    +0.000 C 
ATOM      6  N   UNL     1       6.399   4.840  14.644  0.00  0.00    +0.000 N 
ATOM      7  C   UNL     1       5.160   4.340  14.074  0.00  0.00    +0.000 C 
ATOM      8  C   UNL     1       7.505   4.881  13.684  0.00  0.00    +0.000 C 
ATOM      9  N   UNL     1       5.835   5.332  16.928  0.00  0.00    +0.000 N 
ENDROOT
BRANCH   9  10
ATOM     10  C   UNL     1       4.555   5.972  16.632  0.00  0.00    +0.000 C 
BRANCH  10  11
ATOM     11  C   UNL     1       3.476   6.026  17.714  0.00  0.00    +0.000 C 
BRANCH  11  12
ATOM     12  C   UNL     1       2.811   4.723  18.083  0.00  0.00    +0.000 A 
ATOM     13  C   UNL     1       2.975   3.557  17.319  0.00  0.00    +0.000 A 
ATOM     14  C   UNL     1       2.328   2.373  17.670  0.00  0.00    +0.000 A 
ATOM     15  C   UNL     1       1.519   2.333  18.802  0.00  0.00    +0.000 A 
ATOM     16  C   UNL     1       1.371   3.477  19.577  0.00  0.00    +0.000 A 
ATOM     17  F   UNL     1       0.593   3.442  20.665  0.00  0.00    +0.000 F 
ATOM     18  C   UNL     1       2.016   4.661  19.237  0.00  0.00    +0.000 A 
ENDBRANCH  11  12
ENDBRANCH  10  11
ENDBRANCH   9  10
TORSDOF 3
ENDMDL
