MODEL 1
REMARK VINA RESULT:      -7.5      0.000      0.000
REMARK  Name = 
REMARK  7 active torsions:
REMARK  status: ('A' for Active; 'I' for Inactive)
REMARK    1  A    between atoms: C_2  and  O_3
REMARK    2  A    between atoms: C_2  and  C_12
REMARK    3  A    between atoms: O_3  and  C_4
REMARK    4  A    between atoms: C_4  and  C_5
REMARK    5  A    between atoms: C_5  and  C_6
REMARK    6  A    between atoms: C_6  and  N_7
REMARK    7  A    between atoms: C_12  and  C_13
REMARK                            x       y       z     vdW  Elec       q    Type
REMARK                         _______ _______ _______ _____ _____    ______ ____
ROOT
ATOM      1  O   UNL     1       5.103   3.187  19.692  0.00  0.00    +0.000 OA
ATOM      2  C   UNL     1       4.521   4.229  19.436  0.00  0.00    +0.000 C 
ENDROOT
BRANCH   2   3
ATOM      3  C   UNL     1       2.977   4.372  19.371  0.00  0.00    +0.000 C 
ATOM      4  C   UNL     1       2.539   3.475  18.181  0.00  0.00    +0.000 C 
ATOM      5  C   UNL     1       1.078   3.115  18.408  0.00  0.00    +0.000 C 
ATOM      6  C   UNL     1       0.879   3.178  19.914  0.00  0.00    +0.000 C 
ATOM      7  C   UNL     1       2.213   3.655  20.513  0.00  0.00    +0.000 C 
BRANCH   3   8
ATOM      8  C   UNL     1       2.562   5.847  19.293  0.00  0.00    +0.000 A 
ATOM      9  C   UNL     1       2.131   6.581  20.409  0.00  0.00    +0.000 A 
ATOM     10  C   UNL     1       1.745   7.919  20.294  0.00  0.00    +0.000 A 
ATOM     11  C   UNL     1       1.768   8.548  19.057  0.00  0.00    +0.000 A 
ATOM     12  C   UNL     1       2.206   7.850  17.936  0.00  0.00    +0.000 A 
ATOM     13  C   UNL     1       2.610   6.520  18.055  0.00  0.00    +0.000 A 
ENDBRANCH   3   8
ENDBRANCH   2   3
BRANCH   2  14
ATOM     14  O   UNL     1       5.176   5.419  19.253  0.00  0.00    +0.000 OA
BRANCH  14  15
ATOM     15  C   UNL     1       6.594   5.337  19.467  0.00  0.00    +0.000 C 
BRANCH  15  16
ATOM     16  C   UNL     1       7.487   5.979  18.399  0.00  0.00    +0.000 C 
BRANCH  16  17
ATOM     17  C   UNL     1       7.524   5.029  17.176  0.00  0.00    +0.000 C 
BRANCH  17  18
ATOM     18  N   UNL     1       7.099   5.619  15.894  0.00  0.00    +0.000 NA
ATOM     19  C   UNL     1       5.693   6.078  15.965  0.00  0.00    +0.000 C 
ATOM     20  C   UNL     1       4.864   4.869  15.577  0.00  0.00    +0.000 C 
ATOM     21  C   UNL     1       5.692   4.245  14.473  0.00  0.00    +0.000 C 
ATOM     22  C   UNL     1       7.130   4.656  14.781  0.00  0.00    +0.000 C 
ENDBRANCH  17  18
ENDBRANCH  16  17
ENDBRANCH  15  16
ENDBRANCH  14  15
ENDBRANCH   2  14
TORSDOF 7
ENDMDL
MODEL 2
REMARK VINA RESULT:      -7.2      1.214      2.557
REMARK  Name = 
REMARK  7 active torsions:
REMARK  status: ('A' for Active; 'I' for Inactive)
REMARK    1  A    between atoms: C_2  and  O_3
REMARK    2  A    between atoms: C_2  and  C_12
REMARK    3  A    between atoms: O_3  and  C_4
REMARK    4  A    between atoms: C_4  and  C_5
REMARK    5  A    between atoms: C_5  and  C_6
REMARK    6  A    between atoms: C_6  and  N_7
REMARK    7  A    between atoms: C_12  and  C_13
REMARK                            x       y       z     vdW  Elec       q    Type
REMARK                         _______ _______ _______ _____ _____    ______ ____
ROOT
ATOM      1  O   UNL     1       5.219   3.544  19.266  0.00  0.00    +0.000 OA
ATOM      2  C   UNL     1       4.193   3.433  18.614  0.00  0.00    +0.000 C 
ENDROOT
BRANCH   2   3
ATOM      3  C   UNL     1       2.774   3.731  19.165  0.00  0.00    +0.000 C 
ATOM      4  C   UNL     1       1.814   2.875  18.294  0.00  0.00    +0.000 C 
ATOM      5  C   UNL     1       0.543   2.667  19.104  0.00  0.00    +0.000 C 
ATOM      6  C   UNL     1       0.975   2.760  20.559  0.00  0.00    +0.000 C 
ATOM      7  C   UNL     1       2.474   3.103  20.550  0.00  0.00    +0.000 C 
BRANCH   3   8
ATOM      8  C   UNL     1       2.497   5.240  19.191  0.00  0.00    +0.000 A 
ATOM      9  C   UNL     1       2.635   6.064  18.064  0.00  0.00    +0.000 A 
ATOM     10  C   UNL     1       2.390   7.438  18.133  0.00  0.00    +0.000 A 
ATOM     11  C   UNL     1       2.016   8.020  19.335  0.00  0.00    +0.000 A 
ATOM     12  C   UNL     1       1.856   7.226  20.466  0.00  0.00    +0.000 A 
ATOM     13  C   UNL     1       2.082   5.851  20.392  0.00  0.00    +0.000 A 
ENDBRANCH   3   8
ENDBRANCH   2   3
BRANCH   2  14
ATOM     14  O   UNL     1       4.191   3.102  17.284  0.00  0.00    +0.000 OA
BRANCH  14  15
ATOM     15  C   UNL     1       4.713   4.133  16.431  0.00  0.00    +0.000 C 
BRANCH  15  16
ATOM     16  C   UNL     1       6.140   3.934  15.907  0.00  0.00    +0.000 C 
BRANCH  16  17
ATOM     17  C   UNL     1       6.962   5.195  16.275  0.00  0.00    +0.000 C 
BRANCH  17  18
ATOM     18  N   UNL     1       6.553   5.889  17.509  0.00  0.00    +0.000 NA
ATOM     19  C   UNL     1       6.286   7.322  17.245  0.00  0.00    +0.000 C 
ATOM     20  C   UNL     1       7.627   8.009  17.413  0.00  0.00    +0.000 C 
ATOM     21  C   UNL     1       8.229   7.271  18.589  0.00  0.00    +0.000 C 
ATOM     22  C   UNL     1       7.599   5.881  18.544  0.00  0.00    +0.000 C 
ENDBRANCH  17  18
ENDBRANCH  16  17
ENDBRANCH  15  16
ENDBRANCH  14  15
ENDBRANCH   2  14
TORSDOF 7
ENDMDL
MODEL 3
REMARK VINA RESULT:      -7.0      1.174      2.325
REMARK  Name = 
REMARK  7 active torsions:
REMARK  status: ('A' for Active; 'I' for Inactive)
REMARK    1  A    between atoms: C_2  and  O_3
REMARK    2  A    between atoms: C_2  and  C_12
REMARK    3  A    between atoms: O_3  and  C_4
REMARK    4  A    between atoms: C_4  and  C_5
REMARK    5  A    between atoms: C_5  and  C_6
REMARK    6  A    between atoms: C_6  and  N_7
REMARK    7  A    between atoms: C_12  and  C_13
REMARK                            x       y       z     vdW  Elec       q    Type
REMARK                         _______ _______ _______ _____ _____    ______ ____
ROOT
ATOM      1  O   UNL     1       5.226   3.455  19.346  0.00  0.00    +0.000 OA
ATOM      2  C   UNL     1       4.203   3.420  18.681  0.00  0.00    +0.000 C 
ENDROOT
BRANCH   2   3
ATOM      3  C   UNL     1       2.792   3.749  19.236  0.00  0.00    +0.000 C 
ATOM      4  C   UNL     1       1.814   2.890  18.388  0.00  0.00    +0.000 C 
ATOM      5  C   UNL     1       0.545   2.716  19.210  0.00  0.00    +0.000 C 
ATOM      6  C   UNL     1       0.989   2.831  20.660  0.00  0.00    +0.000 C 
ATOM      7  C   UNL     1       2.492   3.153  20.635  0.00  0.00    +0.000 C 
BRANCH   3   8
ATOM      8  C   UNL     1       2.537   5.262  19.234  0.00  0.00    +0.000 A 
ATOM      9  C   UNL     1       2.192   5.983  20.387  0.00  0.00    +0.000 A 
ATOM     10  C   UNL     1       1.952   7.358  20.341  0.00  0.00    +0.000 A 
ATOM     11  C   UNL     1       2.037   8.041  19.136  0.00  0.00    +0.000 A 
ATOM     12  C   UNL     1       2.393   7.356  17.979  0.00  0.00    +0.000 A 
ATOM     13  C   UNL     1       2.652   5.986  18.029  0.00  0.00    +0.000 A 
ENDBRANCH   3   8
ENDBRANCH   2   3
BRANCH   2  14
ATOM     14  O   UNL     1       4.201   3.157  17.336  0.00  0.00    +0.000 OA
BRANCH  14  15
ATOM     15  C   UNL     1       4.763   4.212  16.540  0.00  0.00    +0.000 C 
BRANCH  15  16
ATOM     16  C   UNL     1       6.122   3.933  15.890  0.00  0.00    +0.000 C 
BRANCH  16  17
ATOM     17  C   UNL     1       7.168   4.862  16.555  0.00  0.00    +0.000 C 
BRANCH  17  18
ATOM     18  N   UNL     1       6.682   5.662  17.693  0.00  0.00    +0.000 NA
ATOM     19  C   UNL     1       6.317   7.030  17.258  0.00  0.00    +0.000 C 
ATOM     20  C   UNL     1       7.600   7.832  17.362  0.00  0.00    +0.000 C 
ATOM     21  C   UNL     1       8.228   7.283  18.626  0.00  0.00    +0.000 C 
ATOM     22  C   UNL     1       7.703   5.854  18.736  0.00  0.00    +0.000 C 
ENDBRANCH  17  18
ENDBRANCH  16  17
ENDBRANCH  15  16
ENDBRANCH  14  15
ENDBRANCH   2  14
TORSDOF 7
ENDMDL
MODEL 4
REMARK VINA RESULT:      -6.7      0.484      1.137
REMARK  Name = 
REMARK  7 active torsions:
REMARK  status: ('A' for Active; 'I' for Inactive)
REMARK    1  A    between atoms: C_2  and  O_3
REMARK    2  A    between atoms: C_2  and  C_12
REMARK    3  A    between atoms: O_3  and  C_4
REMARK    4  A    between atoms: C_4  and  C_5
REMARK    5  A    between atoms: C_5  and  C_6
REMARK    6  A    between atoms: C_6  and  N_7
REMARK    7  A    between atoms: C_12  and  C_13
REMARK                            x       y       z     vdW  Elec       q    Type
REMARK                         _______ _______ _______ _____ _____    ______ ____
ROOT
ATOM      1  O   UNL     1       5.052   3.218  19.695  0.00  0.00    +0.000 OA
ATOM      2  C   UNL     1       4.473   4.281  19.541  0.00  0.00    +0.000 C 
ENDROOT
BRANCH   2   3
ATOM      3  C   UNL     1       2.934   4.422  19.399  0.00  0.00    +0.000 C 
ATOM      4  C   UNL     1       2.554   3.509  18.201  0.00  0.00    +0.000 C 
ATOM      5  C   UNL     1       1.083   3.152  18.363  0.00  0.00    +0.000 C 
ATOM      6  C   UNL     1       0.812   3.235  19.857  0.00  0.00    +0.000 C 
ATOM      7  C   UNL     1       2.115   3.720  20.513  0.00  0.00    +0.000 C 
BRANCH   3   8
ATOM      8  C   UNL     1       2.523   5.896  19.283  0.00  0.00    +0.000 A 
ATOM      9  C   UNL     1       2.629   6.629  18.091  0.00  0.00    +0.000 A 
ATOM     10  C   UNL     1       2.260   7.976  18.030  0.00  0.00    +0.000 A 
ATOM     11  C   UNL     1       1.790   8.622  19.164  0.00  0.00    +0.000 A 
ATOM     12  C   UNL     1       1.660   7.917  20.356  0.00  0.00    +0.000 A 
ATOM     13  C   UNL     1       2.010   6.567  20.412  0.00  0.00    +0.000 A 
ENDBRANCH   3   8
ENDBRANCH   2   3
BRANCH   2  14
ATOM     14  O   UNL     1       5.121   5.489  19.553  0.00  0.00    +0.000 OA
BRANCH  14  15
ATOM     15  C   UNL     1       6.520   5.397  19.237  0.00  0.00    +0.000 C 
BRANCH  15  16
ATOM     16  C   UNL     1       6.881   4.725  17.908  0.00  0.00    +0.000 C 
BRANCH  16  17
ATOM     17  C   UNL     1       7.351   5.829  16.928  0.00  0.00    +0.000 C 
BRANCH  17  18
ATOM     18  N   UNL     1       6.574   5.952  15.682  0.00  0.00    +0.000 NA
ATOM     19  C   UNL     1       5.164   5.552  15.898  0.00  0.00    +0.000 C 
ATOM     20  C   UNL     1       5.139   4.056  15.656  0.00  0.00    +0.000 C 
ATOM     21  C   UNL     1       6.090   3.895  14.490  0.00  0.00    +0.000 C 
ATOM     22  C   UNL     1       7.062   5.066  14.612  0.00  0.00    +0.000 C 
ENDBRANCH  17  18
ENDBRANCH  16  17
ENDBRANCH  15  16
ENDBRANCH  14  15
ENDBRANCH   2  14
TORSDOF 7
ENDMDL
MODEL 5
REMARK VINA RESULT:      -6.6      2.650      6.052
REMARK  Name = 
REMARK  7 active torsions:
REMARK  status: ('A' for Active; 'I' for Inactive)
REMARK    1  A    between atoms: C_2  and  O_3
REMARK    2  A    between atoms: C_2  and  C_12
REMARK    3  A    between atoms: O_3  and  C_4
REMARK    4  A    between atoms: C_4  and  C_5
REMARK    5  A    between atoms: C_5  and  C_6
REMARK    6  A    between atoms: C_6  and  N_7
REMARK    7  A    between atoms: C_12  and  C_13
REMARK                            x       y       z     vdW  Elec       q    Type
REMARK                         _______ _______ _______ _____ _____    ______ ____
ROOT
ATOM      1  O   UNL     1       3.252   5.368  17.599  0.00  0.00    +0.000 OA
ATOM      2  C   UNL     1       4.124   4.566  17.304  0.00  0.00    +0.000 C 
ENDROOT
BRANCH   2   3
ATOM      3  C   UNL     1       5.380   4.915  16.461  0.00  0.00    +0.000 C 
ATOM      4  C   UNL     1       5.843   3.564  15.850  0.00  0.00    +0.000 C 
ATOM      5  C   UNL     1       6.664   3.894  14.612  0.00  0.00    +0.000 C 
ATOM      6  C   UNL     1       6.140   5.237  14.129  0.00  0.00    +0.000 C 
ATOM      7  C   UNL     1       5.083   5.688  15.151  0.00  0.00    +0.000 C 
BRANCH   3   8
ATOM      8  C   UNL     1       6.418   5.667  17.303  0.00  0.00    +0.000 A 
ATOM      9  C   UNL     1       7.082   5.090  18.396  0.00  0.00    +0.000 A 
ATOM     10  C   UNL     1       8.010   5.815  19.149  0.00  0.00    +0.000 A 
ATOM     11  C   UNL     1       8.283   7.138  18.834  0.00  0.00    +0.000 A 
ATOM     12  C   UNL     1       7.651   7.732  17.746  0.00  0.00    +0.000 A 
ATOM     13  C   UNL     1       6.739   7.002  16.983  0.00  0.00    +0.000 A 
ENDBRANCH   3   8
ENDBRANCH   2   3
BRANCH   2  14
ATOM     14  O   UNL     1       4.126   3.272  17.756  0.00  0.00    +0.000 OA
BRANCH  14  15
ATOM     15  C   UNL     1       2.899   2.570  17.504  0.00  0.00    +0.000 C 
BRANCH  15  16
ATOM     16  C   UNL     1       2.168   2.005  18.727  0.00  0.00    +0.000 C 
BRANCH  16  17
ATOM     17  C   UNL     1       0.853   2.805  18.907  0.00  0.00    +0.000 C 
BRANCH  17  18
ATOM     18  N   UNL     1       0.581   3.291  20.272  0.00  0.00    +0.000 NA
ATOM     19  C   UNL     1       0.946   4.720  20.406  0.00  0.00    +0.000 C 
ATOM     20  C   UNL     1       2.410   4.716  20.799  0.00  0.00    +0.000 C 
ATOM     21  C   UNL     1       2.493   3.537  21.745  0.00  0.00    +0.000 C 
ATOM     22  C   UNL     1       1.377   2.597  21.297  0.00  0.00    +0.000 C 
ENDBRANCH  17  18
ENDBRANCH  16  17
ENDBRANCH  15  16
ENDBRANCH  14  15
ENDBRANCH   2  14
TORSDOF 7
ENDMDL
MODEL 6
REMARK VINA RESULT:      -6.6      2.294      5.297
REMARK  Name = 
REMARK  7 active torsions:
REMARK  status: ('A' for Active; 'I' for Inactive)
REMARK    1  A    between atoms: C_2  and  O_3
REMARK    2  A    between atoms: C_2  and  C_12
REMARK    3  A    between atoms: O_3  and  C_4
REMARK    4  A    between atoms: C_4  and  C_5
REMARK    5  A    between atoms: C_5  and  C_6
REMARK    6  A    between atoms: C_6  and  N_7
REMARK    7  A    between atoms: C_12  and  C_13
REMARK                            x       y       z     vdW  Elec       q    Type
REMARK                         _______ _______ _______ _____ _____    ______ ____
ROOT
ATOM      1  O   UNL     1       5.699   5.490  14.829  0.00  0.00    +0.000 OA
ATOM      2  C   UNL     1       5.754   4.999  15.945  0.00  0.00    +0.000 C 
ENDROOT
BRANCH   2   3
ATOM      3  C   UNL     1       6.067   5.802  17.236  0.00  0.00    +0.000 C 
ATOM      4  C   UNL     1       6.904   4.836  18.119  0.00  0.00    +0.000 C 
ATOM      5  C   UNL     1       7.704   5.697  19.086  0.00  0.00    +0.000 C 
ATOM      6  C   UNL     1       7.883   7.032  18.380  0.00  0.00    +0.000 C 
ATOM      7  C   UNL     1       7.109   6.935  17.055  0.00  0.00    +0.000 C 
BRANCH   3   8
ATOM      8  C   UNL     1       4.782   6.353  17.868  0.00  0.00    +0.000 A 
ATOM      9  C   UNL     1       4.031   7.392  17.297  0.00  0.00    +0.000 A 
ATOM     10  C   UNL     1       2.875   7.877  17.913  0.00  0.00    +0.000 A 
ATOM     11  C   UNL     1       2.452   7.344  19.122  0.00  0.00    +0.000 A 
ATOM     12  C   UNL     1       3.168   6.302  19.704  0.00  0.00    +0.000 A 
ATOM     13  C   UNL     1       4.311   5.805  19.079  0.00  0.00    +0.000 A 
ENDBRANCH   3   8
ENDBRANCH   2   3
BRANCH   2  14
ATOM     14  O   UNL     1       5.465   3.682  16.192  0.00  0.00    +0.000 OA
BRANCH  14  15
ATOM     15  C   UNL     1       4.093   3.448  16.549  0.00  0.00    +0.000 C 
BRANCH  15  16
ATOM     16  C   UNL     1       3.806   2.193  17.381  0.00  0.00    +0.000 C 
BRANCH  16  17
ATOM     17  C   UNL     1       3.750   2.612  18.871  0.00  0.00    +0.000 C 
BRANCH  17  18
ATOM     18  N   UNL     1       2.668   2.005  19.667  0.00  0.00    +0.000 NA
ATOM     19  C   UNL     1       1.363   2.154  18.983  0.00  0.00    +0.000 C 
ATOM     20  C   UNL     1       0.827   3.495  19.447  0.00  0.00    +0.000 C 
ATOM     21  C   UNL     1       1.239   3.526  20.904  0.00  0.00    +0.000 C 
ATOM     22  C   UNL     1       2.488   2.652  20.977  0.00  0.00    +0.000 C 
ENDBRANCH  17  18
ENDBRANCH  16  17
ENDBRANCH  15  16
ENDBRANCH  14  15
ENDBRANCH   2  14
TORSDOF 7
ENDMDL
MODEL 7
REMARK VINA RESULT:      -6.6      1.241      1.854
REMARK  Name = 
REMARK  7 active torsions:
REMARK  status: ('A' for Active; 'I' for Inactive)
REMARK    1  A    between atoms: C_2  and  O_3
REMARK    2  A    between atoms: C_2  and  C_12
REMARK    3  A    between atoms: O_3  and  C_4
REMARK    4  A    between atoms: C_4  and  C_5
REMARK    5  A    between atoms: C_5  and  C_6
REMARK    6  A    between atoms: C_6  and  N_7
REMARK    7  A    between atoms: C_12  and  C_13
REMARK                            x       y       z     vdW  Elec       q    Type
REMARK                         _______ _______ _______ _____ _____    ______ ____
ROOT
ATOM      1  O   UNL     1       5.300   3.609  19.608  0.00  0.00    +0.000 OA
ATOM      2  C   UNL     1       4.438   3.802  18.766  0.00  0.00    +0.000 C 
ENDROOT
BRANCH   2   3
ATOM      3  C   UNL     1       2.934   4.006  19.090  0.00  0.00    +0.000 C 
ATOM      4  C   UNL     1       2.174   3.179  18.016  0.00  0.00    +0.000 C 
ATOM      5  C   UNL     1       0.798   2.866  18.587  0.00  0.00    +0.000 C 
ATOM      6  C   UNL     1       0.980   2.870  20.097  0.00  0.00    +0.000 C 
ATOM      7  C   UNL     1       2.441   3.268  20.361  0.00  0.00    +0.000 C 
BRANCH   3   8
ATOM      8  C   UNL     1       2.584   5.498  19.168  0.00  0.00    +0.000 A 
ATOM      9  C   UNL     1       2.220   6.138  20.361  0.00  0.00    +0.000 A 
ATOM     10  C   UNL     1       1.891   7.496  20.387  0.00  0.00    +0.000 A 
ATOM     11  C   UNL     1       1.906   8.240  19.216  0.00  0.00    +0.000 A 
ATOM     12  C   UNL     1       2.278   7.635  18.020  0.00  0.00    +0.000 A 
ATOM     13  C   UNL     1       2.625   6.284  17.998  0.00  0.00    +0.000 A 
ENDBRANCH   3   8
ENDBRANCH   2   3
BRANCH   2  14
ATOM     14  O   UNL     1       4.720   3.937  17.432  0.00  0.00    +0.000 OA
BRANCH  14  15
ATOM     15  C   UNL     1       5.901   4.712  17.166  0.00  0.00    +0.000 C 
BRANCH  15  16
ATOM     16  C   UNL     1       5.734   5.919  16.238  0.00  0.00    +0.000 C 
BRANCH  16  17
ATOM     17  C   UNL     1       5.599   5.390  14.788  0.00  0.00    +0.000 C 
BRANCH  17  18
ATOM     18  N   UNL     1       6.577   4.363  14.387  0.00  0.00    +0.000 NA
ATOM     19  C   UNL     1       7.813   4.988  13.862  0.00  0.00    +0.000 C 
ATOM     20  C   UNL     1       7.554   5.187  12.381  0.00  0.00    +0.000 C 
ATOM     21  C   UNL     1       6.794   3.932  12.009  0.00  0.00    +0.000 C 
ATOM     22  C   UNL     1       6.091   3.504  13.295  0.00  0.00    +0.000 C 
ENDBRANCH  17  18
ENDBRANCH  16  17
ENDBRANCH  15  16
ENDBRANCH  14  15
ENDBRANCH   2  14
TORSDOF 7
ENDMDL
MODEL 8
REMARK VINA RESULT:      -6.6      3.790      5.893
REMARK  Name = 
REMARK  7 active torsions:
REMARK  status: ('A' for Active; 'I' for Inactive)
REMARK    1  A    between atoms: C_2  and  O_3
REMARK    2  A    between atoms: C_2  and  C_12
REMARK    3  A    between atoms: O_3  and  C_4
REMARK    4  A    between atoms: C_4  and  C_5
REMARK    5  A    between atoms: C_5  and  C_6
REMARK    6  A    between atoms: C_6  and  N_7
REMARK    7  A    between atoms: C_12  and  C_13
REMARK                            x       y       z     vdW  Elec       q    Type
REMARK                         _______ _______ _______ _____ _____    ______ ____
ROOT
ATOM      1  O   UNL     1       7.143   5.551  19.045  0.00  0.00    +0.000 OA
ATOM      2  C   UNL     1       6.892   5.942  17.916  0.00  0.00    +0.000 C 
ENDROOT
BRANCH   2   3
ATOM      3  C   UNL     1       5.944   5.208  16.930  0.00  0.00    +0.000 C 
ATOM      4  C   UNL     1       5.919   6.098  15.657  0.00  0.00    +0.000 C 
ATOM      5  C   UNL     1       5.507   5.203  14.497  0.00  0.00    +0.000 C 
ATOM      6  C   UNL     1       5.949   3.803  14.894  0.00  0.00    +0.000 C 
ATOM      7  C   UNL     1       6.531   3.913  16.313  0.00  0.00    +0.000 C 
BRANCH   3   8
ATOM      8  C   UNL     1       4.585   4.922  17.582  0.00  0.00    +0.000 A 
ATOM      9  C   UNL     1       4.245   3.675  18.130  0.00  0.00    +0.000 A 
ATOM     10  C   UNL     1       2.989   3.450  18.700  0.00  0.00    +0.000 A 
ATOM     11  C   UNL     1       2.041   4.462  18.722  0.00  0.00    +0.000 A 
ATOM     12  C   UNL     1       2.355   5.713  18.200  0.00  0.00    +0.000 A 
ATOM     13  C   UNL     1       3.616   5.943  17.648  0.00  0.00    +0.000 A 
ENDBRANCH   3   8
ENDBRANCH   2   3
BRANCH   2  14
ATOM     14  O   UNL     1       7.368   7.126  17.418  0.00  0.00    +0.000 OA
BRANCH  14  15
ATOM     15  C   UNL     1       8.130   7.888  18.368  0.00  0.00    +0.000 C 
BRANCH  15  16
ATOM     16  C   UNL     1       8.324   9.376  18.056  0.00  0.00    +0.000 C 
BRANCH  16  17
ATOM     17  C   UNL     1       9.281   9.965  19.123  0.00  0.00    +0.000 C 
BRANCH  17  18
ATOM     18  N   UNL     1       9.547  11.411  19.016  0.00  0.00    +0.000 NA
ATOM     19  C   UNL     1      10.636  11.676  18.047  0.00  0.00    +0.000 C 
ATOM     20  C   UNL     1      11.913  11.596  18.860  0.00  0.00    +0.000 C 
ATOM     21  C   UNL     1      11.513  12.247  20.166  0.00  0.00    +0.000 C 
ATOM     22  C   UNL     1      10.010  12.004  20.281  0.00  0.00    +0.000 C 
ENDBRANCH  17  18
ENDBRANCH  16  17
ENDBRANCH  15  16
ENDBRANCH  14  15
ENDBRANCH   2  14
TORSDOF 7
ENDMDL
MODEL 9
REMARK VINA RESULT:      -6.5      2.148      5.645
REMARK  Name = 
REMARK  7 active torsions:
REMARK  status: ('A' for Active; 'I' for Inactive)
REMARK    1  A    between atoms: C_2  and  O_3
REMARK    2  A    between atoms: C_2  and  C_12
REMARK    3  A    between atoms: O_3  and  C_4
REMARK    4  A    between atoms: C_4  and  C_5
REMARK    5  A    between atoms: C_5  and  C_6
REMARK    6  A    between atoms: C_6  and  N_7
REMARK    7  A    between atoms: C_12  and  C_13
REMARK                            x       y       z     vdW  Elec       q    Type
REMARK                         _______ _______ _______ _____ _____    ______ ____
ROOT
ATOM      1  O   UNL     1       3.497   7.596  16.815  0.00  0.00    +0.000 OA
ATOM      2  C   UNL     1       3.788   6.420  16.967  0.00  0.00    +0.000 C 
ENDROOT
BRANCH   2   3
ATOM      3  C   UNL     1       5.120   5.783  16.489  0.00  0.00    +0.000 C 
ATOM      4  C   UNL     1       4.844   4.255  16.448  0.00  0.00    +0.000 C 
ATOM      5  C   UNL     1       5.850   3.646  15.482  0.00  0.00    +0.000 C 
ATOM      6  C   UNL     1       6.198   4.762  14.510  0.00  0.00    +0.000 C 
ATOM      7  C   UNL     1       5.445   6.014  14.991  0.00  0.00    +0.000 C 
BRANCH   3   8
ATOM      8  C   UNL     1       6.294   6.234  17.367  0.00  0.00    +0.000 A 
ATOM      9  C   UNL     1       6.803   5.462  18.422  0.00  0.00    +0.000 A 
ATOM     10  C   UNL     1       7.864   5.916  19.210  0.00  0.00    +0.000 A 
ATOM     11  C   UNL     1       8.428   7.160  18.970  0.00  0.00    +0.000 A 
ATOM     12  C   UNL     1       7.955   7.942  17.921  0.00  0.00    +0.000 A 
ATOM     13  C   UNL     1       6.908   7.479  17.122  0.00  0.00    +0.000 A 
ENDBRANCH   3   8
ENDBRANCH   2   3
BRANCH   2  14
ATOM     14  O   UNL     1       2.990   5.542  17.652  0.00  0.00    +0.000 OA
BRANCH  14  15
ATOM     15  C   UNL     1       2.633   5.991  18.969  0.00  0.00    +0.000 C 
BRANCH  15  16
ATOM     16  C   UNL     1       3.337   5.302  20.144  0.00  0.00    +0.000 C 
BRANCH  16  17
ATOM     17  C   UNL     1       3.756   3.884  19.683  0.00  0.00    +0.000 C 
BRANCH  17  18
ATOM     18  N   UNL     1       2.969   2.770  20.242  0.00  0.00    +0.000 NA
ATOM     19  C   UNL     1       2.349   1.968  19.163  0.00  0.00    +0.000 C 
ATOM     20  C   UNL     1       1.021   2.644  18.884  0.00  0.00    +0.000 C 
ATOM     21  C   UNL     1       0.559   3.042  20.270  0.00  0.00    +0.000 C 
ATOM     22  C   UNL     1       1.843   3.225  21.074  0.00  0.00    +0.000 C 
ENDBRANCH  17  18
ENDBRANCH  16  17
ENDBRANCH  15  16
ENDBRANCH  14  15
ENDBRANCH   2  14
TORSDOF 7
ENDMDL
