MODEL 1
REMARK VINA RESULT:      -8.2      0.000      0.000
REMARK  Name = 
REMARK  7 active torsions:
REMARK  status: ('A' for Active; 'I' for Inactive)
REMARK    1  A    between atoms: C_1  and  O_2
REMARK    2  A    between atoms: O_2  and  C_3
REMARK    3  A    between atoms: C_6  and  C_7
REMARK    4  A    between atoms: C_7  and  C_9
REMARK    5  A    between atoms: C_10  and  C_11
REMARK    6  A    between atoms: C_21  and  O_22
REMARK    7  A    between atoms: O_22  and  C_23
REMARK                            x       y       z     vdW  Elec       q    Type
REMARK                         _______ _______ _______ _____ _____    ______ ____
ROOT
ATOM      1  C   UNL     1       3.885   3.798  17.755  0.00  0.00    +0.000 C 
ATOM      2  O   UNL     1       3.861   2.677  18.257  0.00  0.00    +0.000 OA
ENDROOT
BRANCH   1   6
ATOM      3  C   UNL     1       7.033   5.070  15.046  0.00  0.00    +0.000 A 
ATOM      4  C   UNL     1       5.745   4.803  14.591  0.00  0.00    +0.000 A 
ATOM      5  C   UNL     1       4.745   4.369  15.472  0.00  0.00    +0.000 A 
ATOM      6  C   UNL     1       5.014   4.194  16.838  0.00  0.00    +0.000 A 
ATOM      7  C   UNL     1       6.315   4.503  17.314  0.00  0.00    +0.000 A 
ATOM      8  C   UNL     1       7.311   4.920  16.403  0.00  0.00    +0.000 A 
BRANCH   3  10
ATOM      9  C   UNL     1       7.701   5.026  12.753  0.00  0.00    +0.000 C 
ATOM     10  O   UNL     1       7.918   5.482  14.086  0.00  0.00    +0.000 OA
ENDBRANCH   3  10
BRANCH   7  11
ATOM     11  O   UNL     1       6.575   4.367  18.657  0.00  0.00    +0.000 OA
ATOM     12  C   UNL     1       6.879   5.547  19.402  0.00  0.00    +0.000 C 
ENDBRANCH   7  11
ENDBRANCH   1   6
BRANCH   1  13
ATOM     13  C   UNL     1       2.803   4.814  18.102  0.00  0.00    +0.000 C 
ATOM     14  C   UNL     1       3.192   6.064  18.403  0.00  0.00    +0.000 C 
BRANCH  14  15
ATOM     15  C   UNL     1       2.434   7.277  18.822  0.00  0.00    +0.000 A 
ATOM     16  C   UNL     1       2.186   8.230  17.838  0.00  0.00    +0.000 A 
ATOM     17  C   UNL     1       1.528   9.408  18.163  0.00  0.00    +0.000 A 
ATOM     18  C   UNL     1       1.050   9.591  19.454  0.00  0.00    +0.000 A 
ATOM     19  C   UNL     1       0.310  10.747  19.771  0.00  0.00    +0.000 A 
ATOM     20  C   UNL     1      -0.275  10.887  21.023  0.00  0.00    +0.000 A 
ATOM     21  C   UNL     1      -0.077   9.888  21.969  0.00  0.00    +0.000 A 
ATOM     22  C   UNL     1       0.715   8.766  21.660  0.00  0.00    +0.000 A 
ATOM     23  C   UNL     1       1.288   8.567  20.402  0.00  0.00    +0.000 A 
ATOM     24  N   UNL     1       2.001   7.436  20.100  0.00  0.00    +0.000 NA
ENDBRANCH  14  15
ENDBRANCH   1  13
TORSDOF 5
ENDMDL
MODEL 2
REMARK VINA RESULT:      -8.0      1.064      1.136
REMARK  Name = 
REMARK  7 active torsions:
REMARK  status: ('A' for Active; 'I' for Inactive)
REMARK    1  A    between atoms: C_1  and  O_2
REMARK    2  A    between atoms: O_2  and  C_3
REMARK    3  A    between atoms: C_6  and  C_7
REMARK    4  A    between atoms: C_7  and  C_9
REMARK    5  A    between atoms: C_10  and  C_11
REMARK    6  A    between atoms: C_21  and  O_22
REMARK    7  A    between atoms: O_22  and  C_23
REMARK                            x       y       z     vdW  Elec       q    Type
REMARK                         _______ _______ _______ _____ _____    ______ ____
ROOT
ATOM      1  C   UNL     1       4.996   4.341  18.914  0.00  0.00    +0.000 C 
ATOM      2  O   UNL     1       5.110   3.309  19.570  0.00  0.00    +0.000 OA
ENDROOT
BRANCH   1   6
ATOM      3  C   UNL     1       6.640   4.685  14.908  0.00  0.00    +0.000 A 
ATOM      4  C   UNL     1       5.510   3.915  15.167  0.00  0.00    +0.000 A 
ATOM      5  C   UNL     1       5.004   3.792  16.469  0.00  0.00    +0.000 A 
ATOM      6  C   UNL     1       5.622   4.444  17.547  0.00  0.00    +0.000 A 
ATOM      7  C   UNL     1       6.752   5.262  17.282  0.00  0.00    +0.000 A 
ATOM      8  C   UNL     1       7.253   5.354  15.965  0.00  0.00    +0.000 A 
BRANCH   3  10
ATOM      9  C   UNL     1       6.431   3.788  12.705  0.00  0.00    +0.000 C 
ATOM     10  O   UNL     1       7.035   4.719  13.598  0.00  0.00    +0.000 OA
ENDBRANCH   3  10
BRANCH   7  11
ATOM     11  O   UNL     1       7.340   5.932  18.328  0.00  0.00    +0.000 OA
ATOM     12  C   UNL     1       7.858   7.240  18.080  0.00  0.00    +0.000 C 
ENDBRANCH   7  11
ENDBRANCH   1   6
BRANCH   1  13
ATOM     13  C   UNL     1       4.266   5.543  19.502  0.00  0.00    +0.000 C 
ATOM     14  C   UNL     1       3.338   6.146  18.741  0.00  0.00    +0.000 C 
BRANCH  14  15
ATOM     15  C   UNL     1       2.480   7.343  18.964  0.00  0.00    +0.000 A 
ATOM     16  C   UNL     1       2.206   8.132  17.851  0.00  0.00    +0.000 A 
ATOM     17  C   UNL     1       1.453   9.291  17.989  0.00  0.00    +0.000 A 
ATOM     18  C   UNL     1       0.910   9.610  19.227  0.00  0.00    +0.000 A 
ATOM     19  C   UNL     1       0.077  10.739  19.358  0.00  0.00    +0.000 A 
ATOM     20  C   UNL     1      -0.568  11.002  20.560  0.00  0.00    +0.000 A 
ATOM     21  C   UNL     1      -0.338  10.158  21.641  0.00  0.00    +0.000 A 
ATOM     22  C   UNL     1       0.543   9.067  21.515  0.00  0.00    +0.000 A 
ATOM     23  C   UNL     1       1.181   8.744  20.314  0.00  0.00    +0.000 A 
ATOM     24  N   UNL     1       1.983   7.641  20.193  0.00  0.00    +0.000 NA
ENDBRANCH  14  15
ENDBRANCH   1  13
TORSDOF 5
ENDMDL
MODEL 3
REMARK VINA RESULT:      -7.7      0.820      1.586
REMARK  Name = 
REMARK  7 active torsions:
REMARK  status: ('A' for Active; 'I' for Inactive)
REMARK    1  A    between atoms: C_1  and  O_2
REMARK    2  A    between atoms: O_2  and  C_3
REMARK    3  A    between atoms: C_6  and  C_7
REMARK    4  A    between atoms: C_7  and  C_9
REMARK    5  A    between atoms: C_10  and  C_11
REMARK    6  A    between atoms: C_21  and  O_22
REMARK    7  A    between atoms: O_22  and  C_23
REMARK                            x       y       z     vdW  Elec       q    Type
REMARK                         _______ _______ _______ _____ _____    ______ ____
ROOT
ATOM      1  C   UNL     1       4.074   3.516  18.200  0.00  0.00    +0.000 C 
ATOM      2  O   UNL     1       3.884   2.309  18.335  0.00  0.00    +0.000 OA
ENDROOT
BRANCH   1   6
ATOM      3  C   UNL     1       6.958   5.067  15.345  0.00  0.00    +0.000 A 
ATOM      4  C   UNL     1       5.718   4.583  14.938  0.00  0.00    +0.000 A 
ATOM      5  C   UNL     1       4.806   4.062  15.867  0.00  0.00    +0.000 A 
ATOM      6  C   UNL     1       5.117   4.016  17.234  0.00  0.00    +0.000 A 
ATOM      7  C   UNL     1       6.365   4.544  17.659  0.00  0.00    +0.000 A 
ATOM      8  C   UNL     1       7.274   5.045  16.702  0.00  0.00    +0.000 A 
BRANCH   3  10
ATOM      9  C   UNL     1       7.592   4.977  13.045  0.00  0.00    +0.000 C 
ATOM     10  O   UNL     1       7.757   5.544  14.342  0.00  0.00    +0.000 OA
ENDBRANCH   3  10
BRANCH   7  11
ATOM     11  O   UNL     1       6.662   4.533  19.002  0.00  0.00    +0.000 OA
ATOM     12  C   UNL     1       7.429   5.618  19.526  0.00  0.00    +0.000 C 
ENDBRANCH   7  11
ENDBRANCH   1   6
BRANCH   1  13
ATOM     13  C   UNL     1       3.295   4.512  19.051  0.00  0.00    +0.000 C 
ATOM     14  C   UNL     1       3.058   5.728  18.531  0.00  0.00    +0.000 C 
BRANCH  14  15
ATOM     15  C   UNL     1       2.384   6.939  19.078  0.00  0.00    +0.000 A 
ATOM     16  C   UNL     1       1.962   6.874  20.403  0.00  0.00    +0.000 A 
ATOM     17  C   UNL     1       1.283   7.945  20.968  0.00  0.00    +0.000 A 
ATOM     18  C   UNL     1       1.103   9.107  20.230  0.00  0.00    +0.000 A 
ATOM     19  C   UNL     1       0.488  10.228  20.823  0.00  0.00    +0.000 A 
ATOM     20  C   UNL     1       0.409  11.433  20.136  0.00  0.00    +0.000 A 
ATOM     21  C   UNL     1       0.904  11.497  18.839  0.00  0.00    +0.000 A 
ATOM     22  C   UNL     1       1.462  10.354  18.235  0.00  0.00    +0.000 A 
ATOM     23  C   UNL     1       1.597   9.135  18.903  0.00  0.00    +0.000 A 
ATOM     24  N   UNL     1       2.202   8.052  18.321  0.00  0.00    +0.000 NA
ENDBRANCH  14  15
ENDBRANCH   1  13
TORSDOF 5
ENDMDL
MODEL 4
REMARK VINA RESULT:      -7.4      5.252      7.282
REMARK  Name = 
REMARK  7 active torsions:
REMARK  status: ('A' for Active; 'I' for Inactive)
REMARK    1  A    between atoms: C_1  and  O_2
REMARK    2  A    between atoms: O_2  and  C_3
REMARK    3  A    between atoms: C_6  and  C_7
REMARK    4  A    between atoms: C_7  and  C_9
REMARK    5  A    between atoms: C_10  and  C_11
REMARK    6  A    between atoms: C_21  and  O_22
REMARK    7  A    between atoms: O_22  and  C_23
REMARK                            x       y       z     vdW  Elec       q    Type
REMARK                         _______ _______ _______ _____ _____    ______ ____
ROOT
ATOM      1  C   UNL     1       7.361   6.612  17.230  0.00  0.00    +0.000 C 
ATOM      2  O   UNL     1       7.852   6.481  16.112  0.00  0.00    +0.000 OA
ENDROOT
BRANCH   1   6
ATOM      3  C   UNL     1       3.866   4.375  18.514  0.00  0.00    +0.000 A 
ATOM      4  C   UNL     1       4.811   4.835  19.427  0.00  0.00    +0.000 A 
ATOM      5  C   UNL     1       5.948   5.534  18.997  0.00  0.00    +0.000 A 
ATOM      6  C   UNL     1       6.162   5.792  17.634  0.00  0.00    +0.000 A 
ATOM      7  C   UNL     1       5.182   5.359  16.703  0.00  0.00    +0.000 A 
ATOM      8  C   UNL     1       4.055   4.640  17.160  0.00  0.00    +0.000 A 
BRANCH   3  10
ATOM      9  C   UNL     1       3.086   2.501  19.774  0.00  0.00    +0.000 C 
ATOM     10  O   UNL     1       2.806   3.703  19.061  0.00  0.00    +0.000 OA
ENDBRANCH   3  10
BRANCH   7  11
ATOM     11  O   UNL     1       5.369   5.639  15.371  0.00  0.00    +0.000 OA
ATOM     12  C   UNL     1       5.562   4.542  14.476  0.00  0.00    +0.000 C 
ENDBRANCH   7  11
ENDBRANCH   1   6
BRANCH   1  13
ATOM     13  C   UNL     1       7.928   7.646  18.197  0.00  0.00    +0.000 C 
ATOM     14  C   UNL     1       8.128   8.891  17.734  0.00  0.00    +0.000 C 
BRANCH  14  15
ATOM     15  C   UNL     1       8.694  10.116  18.365  0.00  0.00    +0.000 A 
ATOM     16  C   UNL     1       9.285   9.960  19.616  0.00  0.00    +0.000 A 
ATOM     17  C   UNL     1       9.791  11.064  20.288  0.00  0.00    +0.000 A 
ATOM     18  C   UNL     1       9.776  12.308  19.669  0.00  0.00    +0.000 A 
ATOM     19  C   UNL     1      10.362  13.418  20.309  0.00  0.00    +0.000 A 
ATOM     20  C   UNL     1      10.459  14.638  19.653  0.00  0.00    +0.000 A 
ATOM     21  C   UNL     1       9.928  14.754  18.374  0.00  0.00    +0.000 A 
ATOM     22  C   UNL     1       9.292  13.654  17.767  0.00  0.00    +0.000 A 
ATOM     23  C   UNL     1       9.207  12.399  18.376  0.00  0.00    +0.000 A 
ATOM     24  N   UNL     1       8.642  11.323  17.743  0.00  0.00    +0.000 NA
ENDBRANCH  14  15
ENDBRANCH   1  13
TORSDOF 5
ENDMDL
MODEL 5
REMARK VINA RESULT:      -7.3      5.431      7.483
REMARK  Name = 
REMARK  7 active torsions:
REMARK  status: ('A' for Active; 'I' for Inactive)
REMARK    1  A    between atoms: C_1  and  O_2
REMARK    2  A    between atoms: O_2  and  C_3
REMARK    3  A    between atoms: C_6  and  C_7
REMARK    4  A    between atoms: C_7  and  C_9
REMARK    5  A    between atoms: C_10  and  C_11
REMARK    6  A    between atoms: C_21  and  O_22
REMARK    7  A    between atoms: O_22  and  C_23
REMARK                            x       y       z     vdW  Elec       q    Type
REMARK                         _______ _______ _______ _____ _____    ______ ____
ROOT
ATOM      1  C   UNL     1       7.053   7.125  17.162  0.00  0.00    +0.000 C 
ATOM      2  O   UNL     1       7.765   6.657  16.277  0.00  0.00    +0.000 OA
ENDROOT
BRANCH   1   6
ATOM      3  C   UNL     1       3.704   4.776  18.625  0.00  0.00    +0.000 A 
ATOM      4  C   UNL     1       3.512   5.890  17.812  0.00  0.00    +0.000 A 
ATOM      5  C   UNL     1       4.600   6.654  17.367  0.00  0.00    +0.000 A 
ATOM      6  C   UNL     1       5.914   6.316  17.727  0.00  0.00    +0.000 A 
ATOM      7  C   UNL     1       6.117   5.158  18.524  0.00  0.00    +0.000 A 
ATOM      8  C   UNL     1       5.003   4.417  18.975  0.00  0.00    +0.000 A 
BRANCH   3  10
ATOM      9  C   UNL     1       2.590   3.389  20.218  0.00  0.00    +0.000 C 
ATOM     10  O   UNL     1       2.562   4.119  18.994  0.00  0.00    +0.000 OA
ENDBRANCH   3  10
BRANCH   7  11
ATOM     11  O   UNL     1       7.404   4.802  18.851  0.00  0.00    +0.000 OA
ATOM     12  C   UNL     1       8.057   5.532  19.890  0.00  0.00    +0.000 C 
ENDBRANCH   7  11
ENDBRANCH   1   6
BRANCH   1  13
ATOM     13  C   UNL     1       7.283   8.549  17.655  0.00  0.00    +0.000 C 
ATOM     14  C   UNL     1       8.522   8.881  18.053  0.00  0.00    +0.000 C 
BRANCH  14  15
ATOM     15  C   UNL     1       9.092  10.135  18.621  0.00  0.00    +0.000 A 
ATOM     16  C   UNL     1       9.187  10.206  20.008  0.00  0.00    +0.000 A 
ATOM     17  C   UNL     1       9.662  11.362  20.612  0.00  0.00    +0.000 A 
ATOM     18  C   UNL     1      10.117  12.410  19.823  0.00  0.00    +0.000 A 
ATOM     19  C   UNL     1      10.678  13.553  20.427  0.00  0.00    +0.000 A 
ATOM     20  C   UNL     1      11.244  14.554  19.649  0.00  0.00    +0.000 A 
ATOM     21  C   UNL     1      11.205  14.429  18.265  0.00  0.00    +0.000 A 
ATOM     22  C   UNL     1      10.589  13.311  17.671  0.00  0.00    +0.000 A 
ATOM     23  C   UNL     1      10.043  12.263  18.416  0.00  0.00    +0.000 A 
ATOM     24  N   UNL     1       9.506  11.152  17.821  0.00  0.00    +0.000 NA
ENDBRANCH  14  15
ENDBRANCH   1  13
TORSDOF 5
ENDMDL
MODEL 6
REMARK VINA RESULT:      -7.3      5.248      7.364
REMARK  Name = 
REMARK  7 active torsions:
REMARK  status: ('A' for Active; 'I' for Inactive)
REMARK    1  A    between atoms: C_1  and  O_2
REMARK    2  A    between atoms: O_2  and  C_3
REMARK    3  A    between atoms: C_6  and  C_7
REMARK    4  A    between atoms: C_7  and  C_9
REMARK    5  A    between atoms: C_10  and  C_11
REMARK    6  A    between atoms: C_21  and  O_22
REMARK    7  A    between atoms: O_22  and  C_23
REMARK                            x       y       z     vdW  Elec       q    Type
REMARK                         _______ _______ _______ _____ _____    ______ ____
ROOT
ATOM      1  C   UNL     1       7.107   6.553  17.278  0.00  0.00    +0.000 C 
ATOM      2  O   UNL     1       7.416   6.421  16.096  0.00  0.00    +0.000 OA
ENDROOT
BRANCH   1   6
ATOM      3  C   UNL     1       3.830   4.337  19.074  0.00  0.00    +0.000 A 
ATOM      4  C   UNL     1       5.141   3.872  19.129  0.00  0.00    +0.000 A 
ATOM      5  C   UNL     1       6.186   4.584  18.524  0.00  0.00    +0.000 A 
ATOM      6  C   UNL     1       5.939   5.788  17.847  0.00  0.00    +0.000 A 
ATOM      7  C   UNL     1       4.610   6.287  17.821  0.00  0.00    +0.000 A 
ATOM      8  C   UNL     1       3.573   5.541  18.422  0.00  0.00    +0.000 A 
BRANCH   3  10
ATOM      9  C   UNL     1       3.387   2.547  20.592  0.00  0.00    +0.000 C 
ATOM     10  O   UNL     1       2.903   3.548  19.699  0.00  0.00    +0.000 OA
ENDBRANCH   3  10
BRANCH   7  11
ATOM     11  O   UNL     1       4.368   7.484  17.190  0.00  0.00    +0.000 OA
ATOM     12  C   UNL     1       3.195   8.210  17.559  0.00  0.00    +0.000 C 
ENDBRANCH   7  11
ENDBRANCH   1   6
BRANCH   1  13
ATOM     13  C   UNL     1       7.868   7.534  18.162  0.00  0.00    +0.000 C 
ATOM     14  C   UNL     1       7.932   8.816  17.764  0.00  0.00    +0.000 C 
BRANCH  14  15
ATOM     15  C   UNL     1       8.609  10.012  18.338  0.00  0.00    +0.000 A 
ATOM     16  C   UNL     1       9.239   9.844  19.568  0.00  0.00    +0.000 A 
ATOM     17  C   UNL     1       9.850  10.925  20.188  0.00  0.00    +0.000 A 
ATOM     18  C   UNL     1       9.898  12.150  19.537  0.00  0.00    +0.000 A 
ATOM     19  C   UNL     1      10.588  13.230  20.123  0.00  0.00    +0.000 A 
ATOM     20  C   UNL     1      10.745  14.424  19.430  0.00  0.00    +0.000 A 
ATOM     21  C   UNL     1      10.170  14.547  18.171  0.00  0.00    +0.000 A 
ATOM     22  C   UNL     1       9.432  13.482  17.621  0.00  0.00    +0.000 A 
ATOM     23  C   UNL     1       9.283  12.251  18.266  0.00  0.00    +0.000 A 
ATOM     24  N   UNL     1       8.617  11.204  17.686  0.00  0.00    +0.000 NA
ENDBRANCH  14  15
ENDBRANCH   1  13
TORSDOF 5
ENDMDL
MODEL 7
REMARK VINA RESULT:      -7.3      5.597      7.238
REMARK  Name = 
REMARK  7 active torsions:
REMARK  status: ('A' for Active; 'I' for Inactive)
REMARK    1  A    between atoms: C_1  and  O_2
REMARK    2  A    between atoms: O_2  and  C_3
REMARK    3  A    between atoms: C_6  and  C_7
REMARK    4  A    between atoms: C_7  and  C_9
REMARK    5  A    between atoms: C_10  and  C_11
REMARK    6  A    between atoms: C_21  and  O_22
REMARK    7  A    between atoms: O_22  and  C_23
REMARK                            x       y       z     vdW  Elec       q    Type
REMARK                         _______ _______ _______ _____ _____    ______ ____
ROOT
ATOM      1  C   UNL     1       7.513   6.877  17.968  0.00  0.00    +0.000 C 
ATOM      2  O   UNL     1       7.851   6.243  18.965  0.00  0.00    +0.000 OA
ENDROOT
BRANCH   1   6
ATOM      3  C   UNL     1       5.604   4.724  14.714  0.00  0.00    +0.000 A 
ATOM      4  C   UNL     1       6.988   4.756  14.852  0.00  0.00    +0.000 A 
ATOM      5  C   UNL     1       7.593   5.475  15.892  0.00  0.00    +0.000 A 
ATOM      6  C   UNL     1       6.818   6.181  16.826  0.00  0.00    +0.000 A 
ATOM      7  C   UNL     1       5.404   6.120  16.712  0.00  0.00    +0.000 A 
ATOM      8  C   UNL     1       4.820   5.404  15.643  0.00  0.00    +0.000 A 
BRANCH   3  10
ATOM      9  C   UNL     1       6.104   3.450  12.757  0.00  0.00    +0.000 C 
ATOM     10  O   UNL     1       5.139   3.991  13.655  0.00  0.00    +0.000 OA
ENDBRANCH   3  10
BRANCH   7  11
ATOM     11  O   UNL     1       4.639   6.781  17.644  0.00  0.00    +0.000 OA
ATOM     12  C   UNL     1       3.371   6.221  17.986  0.00  0.00    +0.000 C 
ENDBRANCH   7  11
ENDBRANCH   1   6
BRANCH   1  13
ATOM     13  C   UNL     1       7.844   8.360  17.858  0.00  0.00    +0.000 C 
ATOM     14  C   UNL     1       8.757   8.862  18.706  0.00  0.00    +0.000 C 
BRANCH  14  15
ATOM     15  C   UNL     1       9.285  10.241  18.911  0.00  0.00    +0.000 A 
ATOM     16  C   UNL     1       9.283  10.722  20.217  0.00  0.00    +0.000 A 
ATOM     17  C   UNL     1       9.714  12.015  20.481  0.00  0.00    +0.000 A 
ATOM     18  C   UNL     1      10.222  12.791  19.447  0.00  0.00    +0.000 A 
ATOM     19  C   UNL     1      10.738  14.074  19.721  0.00  0.00    +0.000 A 
ATOM     20  C   UNL     1      11.356  14.812  18.719  0.00  0.00    +0.000 A 
ATOM     21  C   UNL     1      11.413  14.281  17.436  0.00  0.00    +0.000 A 
ATOM     22  C   UNL     1      10.841  13.024  17.162  0.00  0.00    +0.000 A 
ATOM     23  C   UNL     1      10.245  12.232  18.147  0.00  0.00    +0.000 A 
ATOM     24  N   UNL     1       9.752  10.983  17.874  0.00  0.00    +0.000 NA
ENDBRANCH  14  15
ENDBRANCH   1  13
TORSDOF 5
ENDMDL
MODEL 8
REMARK VINA RESULT:      -7.3      1.388      2.006
REMARK  Name = 
REMARK  7 active torsions:
REMARK  status: ('A' for Active; 'I' for Inactive)
REMARK    1  A    between atoms: C_1  and  O_2
REMARK    2  A    between atoms: O_2  and  C_3
REMARK    3  A    between atoms: C_6  and  C_7
REMARK    4  A    between atoms: C_7  and  C_9
REMARK    5  A    between atoms: C_10  and  C_11
REMARK    6  A    between atoms: C_21  and  O_22
REMARK    7  A    between atoms: O_22  and  C_23
REMARK                            x       y       z     vdW  Elec       q    Type
REMARK                         _______ _______ _______ _____ _____    ______ ____
ROOT
ATOM      1  C   UNL     1       3.668   5.517  19.279  0.00  0.00    +0.000 C 
ATOM      2  O   UNL     1       3.446   4.756  20.218  0.00  0.00    +0.000 OA
ENDROOT
BRANCH   1   6
ATOM      3  C   UNL     1       6.319   4.465  16.002  0.00  0.00    +0.000 A 
ATOM      4  C   UNL     1       4.943   4.571  15.820  0.00  0.00    +0.000 A 
ATOM      5  C   UNL     1       4.096   4.886  16.892  0.00  0.00    +0.000 A 
ATOM      6  C   UNL     1       4.612   5.107  18.178  0.00  0.00    +0.000 A 
ATOM      7  C   UNL     1       6.019   5.038  18.360  0.00  0.00    +0.000 A 
ATOM      8  C   UNL     1       6.849   4.700  17.269  0.00  0.00    +0.000 A 
BRANCH   3  10
ATOM      9  C   UNL     1       6.302   3.913  13.678  0.00  0.00    +0.000 C 
ATOM     10  O   UNL     1       7.034   4.147  14.879  0.00  0.00    +0.000 OA
ENDBRANCH   3  10
BRANCH   7  11
ATOM     11  O   UNL     1       6.534   5.288  19.610  0.00  0.00    +0.000 OA
ATOM     12  C   UNL     1       7.891   5.724  19.700  0.00  0.00    +0.000 C 
ENDBRANCH   7  11
ENDBRANCH   1   6
BRANCH   1  13
ATOM     13  C   UNL     1       3.034   6.903  19.252  0.00  0.00    +0.000 C 
ATOM     14  C   UNL     1       2.151   7.206  20.217  0.00  0.00    +0.000 C 
BRANCH  14  15
ATOM     15  C   UNL     1       1.323   8.417  20.475  0.00  0.00    +0.000 A 
ATOM     16  C   UNL     1       1.120   9.276  19.399  0.00  0.00    +0.000 A 
ATOM     17  C   UNL     1       0.399  10.450  19.574  0.00  0.00    +0.000 A 
ATOM     18  C   UNL     1      -0.184  10.718  20.806  0.00  0.00    +0.000 A 
ATOM     19  C   UNL     1      -0.985  11.865  20.969  0.00  0.00    +0.000 A 
ATOM     20  C   UNL     1      -1.670  12.083  22.158  0.00  0.00    +0.000 A 
ATOM     21  C   UNL     1      -1.512  11.172  23.196  0.00  0.00    +0.000 A 
ATOM     22  C   UNL     1      -0.661  10.061  23.043  0.00  0.00    +0.000 A 
ATOM     23  C   UNL     1       0.014   9.784  21.852  0.00  0.00    +0.000 A 
ATOM     24  N   UNL     1       0.786   8.662  21.699  0.00  0.00    +0.000 NA
ENDBRANCH  14  15
ENDBRANCH   1  13
TORSDOF 5
ENDMDL
MODEL 9
REMARK VINA RESULT:      -7.2      5.403      6.784
REMARK  Name = 
REMARK  7 active torsions:
REMARK  status: ('A' for Active; 'I' for Inactive)
REMARK    1  A    between atoms: C_1  and  O_2
REMARK    2  A    between atoms: O_2  and  C_3
REMARK    3  A    between atoms: C_6  and  C_7
REMARK    4  A    between atoms: C_7  and  C_9
REMARK    5  A    between atoms: C_10  and  C_11
REMARK    6  A    between atoms: C_21  and  O_22
REMARK    7  A    between atoms: O_22  and  C_23
REMARK                            x       y       z     vdW  Elec       q    Type
REMARK                         _______ _______ _______ _____ _____    ______ ____
ROOT
ATOM      1  C   UNL     1       7.504   6.788  17.902  0.00  0.00    +0.000 C 
ATOM      2  O   UNL     1       7.753   6.178  18.940  0.00  0.00    +0.000 OA
ENDROOT
BRANCH   1   6
ATOM      3  C   UNL     1       5.622   4.632  14.634  0.00  0.00    +0.000 A 
ATOM      4  C   UNL     1       7.005   4.746  14.730  0.00  0.00    +0.000 A 
ATOM      5  C   UNL     1       7.600   5.466  15.775  0.00  0.00    +0.000 A 
ATOM      6  C   UNL     1       6.815   6.089  16.758  0.00  0.00    +0.000 A 
ATOM      7  C   UNL     1       5.405   5.944  16.687  0.00  0.00    +0.000 A 
ATOM      8  C   UNL     1       4.830   5.230  15.613  0.00  0.00    +0.000 A 
BRANCH   3  10
ATOM      9  C   UNL     1       6.134   3.446  12.626  0.00  0.00    +0.000 C 
ATOM     10  O   UNL     1       5.167   3.908  13.565  0.00  0.00    +0.000 OA
ENDBRANCH   3  10
BRANCH   7  11
ATOM     11  O   UNL     1       4.633   6.523  17.666  0.00  0.00    +0.000 OA
ATOM     12  C   UNL     1       3.360   5.939  17.947  0.00  0.00    +0.000 C 
ENDBRANCH   7  11
ENDBRANCH   1   6
BRANCH   1  13
ATOM     13  C   UNL     1       7.941   8.240  17.746  0.00  0.00    +0.000 C 
ATOM     14  C   UNL     1       8.645   8.792  18.748  0.00  0.00    +0.000 C 
BRANCH  14  15
ATOM     15  C   UNL     1       9.187  10.165  18.955  0.00  0.00    +0.000 A 
ATOM     16  C   UNL     1       9.670  10.823  17.828  0.00  0.00    +0.000 A 
ATOM     17  C   UNL     1      10.235  12.085  17.949  0.00  0.00    +0.000 A 
ATOM     18  C   UNL     1      10.240  12.716  19.187  0.00  0.00    +0.000 A 
ATOM     19  C   UNL     1      10.736  14.030  19.302  0.00  0.00    +0.000 A 
ATOM     20  C   UNL     1      10.638  14.715  20.507  0.00  0.00    +0.000 A 
ATOM     21  C   UNL     1      10.085  14.065  21.603  0.00  0.00    +0.000 A 
ATOM     22  C   UNL     1       9.647  12.732  21.491  0.00  0.00    +0.000 A 
ATOM     23  C   UNL     1       9.691  12.019  20.290  0.00  0.00    +0.000 A 
ATOM     24  N   UNL     1       9.199  10.744  20.184  0.00  0.00    +0.000 NA
ENDBRANCH  14  15
ENDBRANCH   1  13
TORSDOF 5
ENDMDL
