MODEL 1
REMARK VINA RESULT:      -9.0      0.000      0.000
REMARK  Name = 
REMARK  4 active torsions:
REMARK  status: ('A' for Active; 'I' for Inactive)
REMARK    1  A    between atoms: C_1  and  C_2
REMARK    2  A    between atoms: N_4  and  C_5
REMARK    3  A    between atoms: C_19  and  C_20
REMARK    4  A    between atoms: C_25  and  N_26
REMARK                            x       y       z     vdW  Elec       q    Type
REMARK                         _______ _______ _______ _____ _____    ______ ____
ROOT
ATOM      1  C   UNL     1       4.079   8.127  17.067  0.00  0.00    +0.000 C 
ATOM      2  C   UNL     1       4.692   6.853  16.589  0.00  0.00    +0.000 C 
ATOM      3  N   UNL     1       4.925   6.615  15.307  0.00  0.00    +0.000 NA
ATOM      4  N   UNL     1       5.178   5.266  15.215  0.00  0.00    +0.000 N 
ATOM      5  C   UNL     1       5.068   4.737  16.480  0.00  0.00    +0.000 C 
ATOM      6  O   UNL     1       4.505   3.656  16.671  0.00  0.00    +0.000 OA
ATOM      7  C   UNL     1       5.435   5.828  17.514  0.00  0.00    +0.000 C 
ATOM      8  C   UNL     1       6.836   6.540  17.514  0.00  0.00    +0.000 C 
ATOM      9  O   UNL     1       7.089   7.556  16.851  0.00  0.00    +0.000 OA
ATOM     10  C   UNL     1       7.950   6.166  18.391  0.00  0.00    +0.000 C 
ATOM     11  C   UNL     1       7.809   5.333  19.397  0.00  0.00    +0.000 C 
ATOM     12  C   UNL     1       6.539   4.652  19.740  0.00  0.00    +0.000 C 
ATOM     13  C   UNL     1       5.294   4.991  18.849  0.00  0.00    +0.000 C 
ENDROOT
BRANCH   4  14
ATOM     14  C   UNL     1       6.281   4.619  14.567  0.00  0.00    +0.000 A 
ATOM     15  C   UNL     1       7.331   5.516  14.235  0.00  0.00    +0.000 A 
ATOM     16  C   UNL     1       7.890   5.534  12.955  0.00  0.00    +0.000 A 
ATOM     17  C   UNL     1       7.491   4.583  12.025  0.00  0.00    +0.000 A 
ATOM     18  C   UNL     1       6.598   3.577  12.404  0.00  0.00    +0.000 A 
ATOM     19  C   UNL     1       6.022   3.564  13.687  0.00  0.00    +0.000 A 
ENDBRANCH   4  14
BRANCH  13  20
ATOM     20  C   UNL     1       3.905   4.635  19.415  0.00  0.00    +0.000 A 
ATOM     21  C   UNL     1       3.007   5.729  19.541  0.00  0.00    +0.000 A 
ATOM     22  C   UNL     1       1.875   5.650  20.339  0.00  0.00    +0.000 A 
ATOM     23  C   UNL     1       1.560   4.456  20.970  0.00  0.00    +0.000 A 
ATOM     24  C   UNL     1       2.345   3.324  20.735  0.00  0.00    +0.000 A 
ATOM     25  C   UNL     1       3.498   3.414  19.929  0.00  0.00    +0.000 A 
BRANCH  25  26
ATOM     26  N   UNL     1       4.227   2.175  19.657  0.00  0.00    +0.000 N 
ATOM     27  O   UNL     1       5.147   1.875  20.432  0.00  0.00    +0.000 OA
ATOM     28  O   UNL     1       3.886   1.490  18.680  0.00  0.00    +0.000 OA
ENDBRANCH  25  26
ENDBRANCH  13  20
TORSDOF 3
ENDMDL
MODEL 2
REMARK VINA RESULT:      -7.9      9.197     11.315
REMARK  Name = 
REMARK  4 active torsions:
REMARK  status: ('A' for Active; 'I' for Inactive)
REMARK    1  A    between atoms: C_1  and  C_2
REMARK    2  A    between atoms: N_4  and  C_5
REMARK    3  A    between atoms: C_19  and  C_20
REMARK    4  A    between atoms: C_25  and  N_26
REMARK                            x       y       z     vdW  Elec       q    Type
REMARK                         _______ _______ _______ _____ _____    ______ ____
ROOT
ATOM      1  C   UNL     1       0.939  13.808  20.030  0.00  0.00    +0.000 C 
ATOM      2  C   UNL     1      -0.308  13.015  19.818  0.00  0.00    +0.000 C 
ATOM      3  N   UNL     1      -0.818  12.803  18.614  0.00  0.00    +0.000 NA
ATOM      4  N   UNL     1      -2.095  12.336  18.824  0.00  0.00    +0.000 N 
ATOM      5  C   UNL     1      -2.305  12.303  20.183  0.00  0.00    +0.000 C 
ATOM      6  O   UNL     1      -3.377  12.673  20.670  0.00  0.00    +0.000 OA
ATOM      7  C   UNL     1      -0.951  12.075  20.896  0.00  0.00    +0.000 C 
ATOM      8  C   UNL     1      -0.061  10.812  20.613  0.00  0.00    +0.000 C 
ATOM      9  O   UNL     1       0.785  10.757  19.710  0.00  0.00    +0.000 OA
ATOM     10  C   UNL     1      -0.038   9.615  21.460  0.00  0.00    +0.000 C 
ATOM     11  C   UNL     1      -0.609   9.574  22.642  0.00  0.00    +0.000 C 
ATOM     12  C   UNL     1      -1.365  10.699  23.239  0.00  0.00    +0.000 C 
ATOM     13  C   UNL     1      -1.445  12.020  22.397  0.00  0.00    +0.000 C 
ENDROOT
BRANCH   4  14
ATOM     14  C   UNL     1      -2.711  11.170  18.260  0.00  0.00    +0.000 A 
ATOM     15  C   UNL     1      -1.783  10.316  17.607  0.00  0.00    +0.000 A 
ATOM     16  C   UNL     1      -2.024   9.836  16.318  0.00  0.00    +0.000 A 
ATOM     17  C   UNL     1      -3.241  10.108  15.707  0.00  0.00    +0.000 A 
ATOM     18  C   UNL     1      -4.235  10.787  16.418  0.00  0.00    +0.000 A 
ATOM     19  C   UNL     1      -3.991  11.284  17.710  0.00  0.00    +0.000 A 
ENDBRANCH   4  14
BRANCH  13  20
ATOM     20  C   UNL     1      -1.852  13.307  23.143  0.00  0.00    +0.000 A 
ATOM     21  C   UNL     1      -0.898  14.359  23.095  0.00  0.00    +0.000 A 
ATOM     22  C   UNL     1      -0.948  15.425  23.982  0.00  0.00    +0.000 A 
ATOM     23  C   UNL     1      -1.993  15.516  24.889  0.00  0.00    +0.000 A 
ATOM     24  C   UNL     1      -3.025  14.574  24.850  0.00  0.00    +0.000 A 
ATOM     25  C   UNL     1      -2.963  13.490  23.950  0.00  0.00    +0.000 A 
BRANCH  25  26
ATOM     26  N   UNL     1      -4.115  12.588  23.904  0.00  0.00    +0.000 N 
ATOM     27  O   UNL     1      -4.228  11.764  24.822  0.00  0.00    +0.000 OA
ATOM     28  O   UNL     1      -4.915  12.700  22.963  0.00  0.00    +0.000 OA
ENDBRANCH  25  26
ENDBRANCH  13  20
TORSDOF 3
ENDMDL
MODEL 3
REMARK VINA RESULT:      -6.4      9.248     11.882
REMARK  Name = 
REMARK  4 active torsions:
REMARK  status: ('A' for Active; 'I' for Inactive)
REMARK    1  A    between atoms: C_1  and  C_2
REMARK    2  A    between atoms: N_4  and  C_5
REMARK    3  A    between atoms: C_19  and  C_20
REMARK    4  A    between atoms: C_25  and  N_26
REMARK                            x       y       z     vdW  Elec       q    Type
REMARK                         _______ _______ _______ _____ _____    ______ ____
ROOT
ATOM      1  C   UNL     1      -0.331  10.436  22.482  0.00  0.00    +0.000 C 
ATOM      2  C   UNL     1      -0.240  11.588  21.538  0.00  0.00    +0.000 C 
ATOM      3  N   UNL     1       0.918  12.129  21.189  0.00  0.00    +0.000 NA
ATOM      4  N   UNL     1       0.606  13.329  20.591  0.00  0.00    +0.000 N 
ATOM      5  C   UNL     1      -0.763  13.463  20.622  0.00  0.00    +0.000 C 
ATOM      6  O   UNL     1      -1.289  14.545  20.895  0.00  0.00    +0.000 OA
ATOM      7  C   UNL     1      -1.406  12.057  20.601  0.00  0.00    +0.000 C 
ATOM      8  C   UNL     1      -1.146  11.037  19.434  0.00  0.00    +0.000 C 
ATOM      9  O   UNL     1      -0.199  10.238  19.420  0.00  0.00    +0.000 OA
ATOM     10  C   UNL     1      -2.058  10.827  18.306  0.00  0.00    +0.000 C 
ATOM     11  C   UNL     1      -3.272  11.327  18.275  0.00  0.00    +0.000 C 
ATOM     12  C   UNL     1      -3.846  12.181  19.340  0.00  0.00    +0.000 C 
ATOM     13  C   UNL     1      -2.935  12.462  20.586  0.00  0.00    +0.000 C 
ENDROOT
BRANCH   4  14
ATOM     14  C   UNL     1       1.064  13.828  19.328  0.00  0.00    +0.000 A 
ATOM     15  C   UNL     1       1.911  12.914  18.645  0.00  0.00    +0.000 A 
ATOM     16  C   UNL     1       3.137  13.320  18.115  0.00  0.00    +0.000 A 
ATOM     17  C   UNL     1       3.485  14.663  18.157  0.00  0.00    +0.000 A 
ATOM     18  C   UNL     1       2.573  15.599  18.656  0.00  0.00    +0.000 A 
ATOM     19  C   UNL     1       1.344  15.192  19.204  0.00  0.00    +0.000 A 
ENDBRANCH   4  14
BRANCH  13  20
ATOM     20  C   UNL     1      -3.627  12.982  21.862  0.00  0.00    +0.000 A 
ATOM     21  C   UNL     1      -3.255  12.320  23.062  0.00  0.00    +0.000 A 
ATOM     22  C   UNL     1      -4.021  12.421  24.215  0.00  0.00    +0.000 A 
ATOM     23  C   UNL     1      -5.135  13.246  24.229  0.00  0.00    +0.000 A 
ATOM     24  C   UNL     1      -5.432  14.026  23.108  0.00  0.00    +0.000 A 
ATOM     25  C   UNL     1      -4.652  13.912  21.938  0.00  0.00    +0.000 A 
BRANCH  25  26
ATOM     26  N   UNL     1      -4.965  14.816  20.831  0.00  0.00    +0.000 N 
ATOM     27  O   UNL     1      -6.002  14.591  20.189  0.00  0.00    +0.000 OA
ATOM     28  O   UNL     1      -4.191  15.757  20.599  0.00  0.00    +0.000 OA
ENDBRANCH  25  26
ENDBRANCH  13  20
TORSDOF 3
ENDMDL
MODEL 4
REMARK VINA RESULT:      -6.4      7.152     10.190
REMARK  Name = 
REMARK  4 active torsions:
REMARK  status: ('A' for Active; 'I' for Inactive)
REMARK    1  A    between atoms: C_1  and  C_2
REMARK    2  A    between atoms: N_4  and  C_5
REMARK    3  A    between atoms: C_19  and  C_20
REMARK    4  A    between atoms: C_25  and  N_26
REMARK                            x       y       z     vdW  Elec       q    Type
REMARK                         _______ _______ _______ _____ _____    ______ ____
ROOT
ATOM      1  C   UNL     1       2.548  13.118  17.787  0.00  0.00    +0.000 C 
ATOM      2  C   UNL     1       1.779  13.029  19.063  0.00  0.00    +0.000 C 
ATOM      3  N   UNL     1       1.837  13.970  19.993  0.00  0.00    +0.000 NA
ATOM      4  N   UNL     1       1.283  13.415  21.125  0.00  0.00    +0.000 N 
ATOM      5  C   UNL     1       0.921  12.124  20.817  0.00  0.00    +0.000 C 
ATOM      6  O   UNL     1       1.122  11.201  21.611  0.00  0.00    +0.000 OA
ATOM      7  C   UNL     1       0.586  12.042  19.308  0.00  0.00    +0.000 C 
ATOM      8  C   UNL     1      -0.539  12.924  18.655  0.00  0.00    +0.000 C 
ATOM      9  O   UNL     1      -0.344  14.063  18.208  0.00  0.00    +0.000 OA
ATOM     10  C   UNL     1      -1.900  12.453  18.382  0.00  0.00    +0.000 C 
ATOM     11  C   UNL     1      -2.243  11.188  18.474  0.00  0.00    +0.000 C 
ATOM     12  C   UNL     1      -1.322  10.107  18.895  0.00  0.00    +0.000 C 
ATOM     13  C   UNL     1       0.156  10.523  19.212  0.00  0.00    +0.000 C 
ENDROOT
BRANCH   4  14
ATOM     14  C   UNL     1       0.261  13.966  21.966  0.00  0.00    +0.000 A 
ATOM     15  C   UNL     1      -0.670  12.991  22.413  0.00  0.00    +0.000 A 
ATOM     16  C   UNL     1      -2.047  13.204  22.308  0.00  0.00    +0.000 A 
ATOM     17  C   UNL     1      -2.513  14.433  21.860  0.00  0.00    +0.000 A 
ATOM     18  C   UNL     1      -1.605  15.464  21.599  0.00  0.00    +0.000 A 
ATOM     19  C   UNL     1      -0.219  15.249  21.690  0.00  0.00    +0.000 A 
ENDBRANCH   4  14
BRANCH  13  20
ATOM     20  C   UNL     1       1.213   9.400  19.246  0.00  0.00    +0.000 A 
ATOM     21  C   UNL     1       2.078   9.352  18.120  0.00  0.00    +0.000 A 
ATOM     22  C   UNL     1       2.831   8.223  17.831  0.00  0.00    +0.000 A 
ATOM     23  C   UNL     1       2.806   7.140  18.696  0.00  0.00    +0.000 A 
ATOM     24  C   UNL     1       2.082   7.225  19.888  0.00  0.00    +0.000 A 
ATOM     25  C   UNL     1       1.314   8.373  20.172  0.00  0.00    +0.000 A 
BRANCH  25  26
ATOM     26  N   UNL     1       0.647   8.432  21.473  0.00  0.00    +0.000 N 
ATOM     27  O   UNL     1      -0.566   8.183  21.502  0.00  0.00    +0.000 OA
ATOM     28  O   UNL     1       1.325   8.717  22.472  0.00  0.00    +0.000 OA
ENDBRANCH  25  26
ENDBRANCH  13  20
TORSDOF 3
ENDMDL
MODEL 5
REMARK VINA RESULT:      -6.4      9.041     11.280
REMARK  Name = 
REMARK  4 active torsions:
REMARK  status: ('A' for Active; 'I' for Inactive)
REMARK    1  A    between atoms: C_1  and  C_2
REMARK    2  A    between atoms: N_4  and  C_5
REMARK    3  A    between atoms: C_19  and  C_20
REMARK    4  A    between atoms: C_25  and  N_26
REMARK                            x       y       z     vdW  Elec       q    Type
REMARK                         _______ _______ _______ _____ _____    ______ ____
ROOT
ATOM      1  C   UNL     1       9.563  10.639  19.565  0.00  0.00    +0.000 C 
ATOM      2  C   UNL     1      10.078  12.040  19.556  0.00  0.00    +0.000 C 
ATOM      3  N   UNL     1      11.223  12.370  18.977  0.00  0.00    +0.000 NA
ATOM      4  N   UNL     1      11.526  13.632  19.436  0.00  0.00    +0.000 N 
ATOM      5  C   UNL     1      10.528  14.005  20.307  0.00  0.00    +0.000 C 
ATOM      6  O   UNL     1      10.790  14.587  21.363  0.00  0.00    +0.000 OA
ATOM      7  C   UNL     1       9.212  13.302  19.895  0.00  0.00    +0.000 C 
ATOM      8  C   UNL     1       8.574  13.493  18.473  0.00  0.00    +0.000 C 
ATOM      9  O   UNL     1       8.863  12.794  17.492  0.00  0.00    +0.000 OA
ATOM     10  C   UNL     1       7.478  14.423  18.180  0.00  0.00    +0.000 C 
ATOM     11  C   UNL     1       6.797  15.033  19.124  0.00  0.00    +0.000 C 
ATOM     12  C   UNL     1       7.071  14.887  20.572  0.00  0.00    +0.000 C 
ATOM     13  C   UNL     1       8.232  13.914  20.976  0.00  0.00    +0.000 C 
ENDROOT
BRANCH   4  14
ATOM     14  C   UNL     1      11.887  14.787  18.667  0.00  0.00    +0.000 A 
ATOM     15  C   UNL     1      11.549  16.007  19.310  0.00  0.00    +0.000 A 
ATOM     16  C   UNL     1      10.859  17.015  18.634  0.00  0.00    +0.000 A 
ATOM     17  C   UNL     1      10.595  16.867  17.278  0.00  0.00    +0.000 A 
ATOM     18  C   UNL     1      11.093  15.754  16.594  0.00  0.00    +0.000 A 
ATOM     19  C   UNL     1      11.775  14.730  17.275  0.00  0.00    +0.000 A 
ENDBRANCH   4  14
BRANCH  13  20
ATOM     20  C   UNL     1       8.270  13.431  22.440  0.00  0.00    +0.000 A 
ATOM     21  C   UNL     1       8.294  12.021  22.610  0.00  0.00    +0.000 A 
ATOM     22  C   UNL     1       7.981  11.431  23.826  0.00  0.00    +0.000 A 
ATOM     23  C   UNL     1       7.713  12.228  24.928  0.00  0.00    +0.000 A 
ATOM     24  C   UNL     1       7.835  13.616  24.822  0.00  0.00    +0.000 A 
ATOM     25  C   UNL     1       8.147  14.209  23.581  0.00  0.00    +0.000 A 
BRANCH  25  26
ATOM     26  N   UNL     1       8.341  15.659  23.558  0.00  0.00    +0.000 N 
ATOM     27  O   UNL     1       9.507  16.078  23.589  0.00  0.00    +0.000 OA
ATOM     28  O   UNL     1       7.339  16.388  23.500  0.00  0.00    +0.000 OA
ENDBRANCH  25  26
ENDBRANCH  13  20
TORSDOF 3
ENDMDL
MODEL 6
REMARK VINA RESULT:      -6.3      8.632     10.903
REMARK  Name = 
REMARK  4 active torsions:
REMARK  status: ('A' for Active; 'I' for Inactive)
REMARK    1  A    between atoms: C_1  and  C_2
REMARK    2  A    between atoms: N_4  and  C_5
REMARK    3  A    between atoms: C_19  and  C_20
REMARK    4  A    between atoms: C_25  and  N_26
REMARK                            x       y       z     vdW  Elec       q    Type
REMARK                         _______ _______ _______ _____ _____    ______ ____
ROOT
ATOM      1  C   UNL     1      -3.725  11.587  18.034  0.00  0.00    +0.000 C 
ATOM      2  C   UNL     1      -2.469  11.294  18.784  0.00  0.00    +0.000 C 
ATOM      3  N   UNL     1      -1.776  10.180  18.600  0.00  0.00    +0.000 NA
ATOM      4  N   UNL     1      -0.898  10.105  19.657  0.00  0.00    +0.000 N 
ATOM      5  C   UNL     1      -1.121  11.201  20.458  0.00  0.00    +0.000 C 
ATOM      6  O   UNL     1      -1.131  11.098  21.688  0.00  0.00    +0.000 OA
ATOM      7  C   UNL     1      -1.648  12.364  19.584  0.00  0.00    +0.000 C 
ATOM      8  C   UNL     1      -0.829  12.934  18.371  0.00  0.00    +0.000 C 
ATOM      9  O   UNL     1      -0.901  12.479  17.221  0.00  0.00    +0.000 OA
ATOM     10  C   UNL     1       0.004  14.139  18.434  0.00  0.00    +0.000 C 
ATOM     11  C   UNL     1      -0.021  14.964  19.456  0.00  0.00    +0.000 C 
ATOM     12  C   UNL     1      -0.851  14.762  20.666  0.00  0.00    +0.000 C 
ATOM     13  C   UNL     1      -1.771  13.492  20.686  0.00  0.00    +0.000 C 
ENDROOT
BRANCH   4  14
ATOM     14  C   UNL     1       0.517   9.879  19.612  0.00  0.00    +0.000 A 
ATOM     15  C   UNL     1       1.044   9.930  18.294  0.00  0.00    +0.000 A 
ATOM     16  C   UNL     1       1.881   8.923  17.810  0.00  0.00    +0.000 A 
ATOM     17  C   UNL     1       2.296   7.912  18.666  0.00  0.00    +0.000 A 
ATOM     18  C   UNL     1       1.936   7.959  20.017  0.00  0.00    +0.000 A 
ATOM     19  C   UNL     1       1.081   8.963  20.505  0.00  0.00    +0.000 A 
ENDBRANCH   4  14
BRANCH  13  20
ATOM     20  C   UNL     1      -2.922  13.472  21.712  0.00  0.00    +0.000 A 
ATOM     21  C   UNL     1      -4.154  12.958  21.227  0.00  0.00    +0.000 A 
ATOM     22  C   UNL     1      -5.350  13.190  21.891  0.00  0.00    +0.000 A 
ATOM     23  C   UNL     1      -5.344  13.871  23.099  0.00  0.00    +0.000 A 
ATOM     24  C   UNL     1      -4.127  14.252  23.671  0.00  0.00    +0.000 A 
ATOM     25  C   UNL     1      -2.917  14.018  22.986  0.00  0.00    +0.000 A 
BRANCH  25  26
ATOM     26  N   UNL     1      -1.675  14.365  23.678  0.00  0.00    +0.000 N 
ATOM     27  O   UNL     1      -1.564  15.525  24.101  0.00  0.00    +0.000 OA
ATOM     28  O   UNL     1      -0.808  13.488  23.812  0.00  0.00    +0.000 OA
ENDBRANCH  25  26
ENDBRANCH  13  20
TORSDOF 3
ENDMDL
MODEL 7
REMARK VINA RESULT:      -6.2     10.826     13.829
REMARK  Name = 
REMARK  4 active torsions:
REMARK  status: ('A' for Active; 'I' for Inactive)
REMARK    1  A    between atoms: C_1  and  C_2
REMARK    2  A    between atoms: N_4  and  C_5
REMARK    3  A    between atoms: C_19  and  C_20
REMARK    4  A    between atoms: C_25  and  N_26
REMARK                            x       y       z     vdW  Elec       q    Type
REMARK                         _______ _______ _______ _____ _____    ______ ____
ROOT
ATOM      1  C   UNL     1      -4.368  12.450  24.597  0.00  0.00    +0.000 C 
ATOM      2  C   UNL     1      -4.849  12.767  23.219  0.00  0.00    +0.000 C 
ATOM      3  N   UNL     1      -6.123  12.671  22.873  0.00  0.00    +0.000 NA
ATOM      4  N   UNL     1      -6.144  12.717  21.498  0.00  0.00    +0.000 N 
ATOM      5  C   UNL     1      -4.842  12.826  21.068  0.00  0.00    +0.000 C 
ATOM      6  O   UNL     1      -4.437  12.183  20.097  0.00  0.00    +0.000 OA
ATOM      7  C   UNL     1      -4.014  13.557  22.153  0.00  0.00    +0.000 C 
ATOM      8  C   UNL     1      -4.379  15.003  22.647  0.00  0.00    +0.000 C 
ATOM      9  O   UNL     1      -5.171  15.232  23.572  0.00  0.00    +0.000 OA
ATOM     10  C   UNL     1      -3.731  16.226  22.165  0.00  0.00    +0.000 C 
ATOM     11  C   UNL     1      -2.647  16.207  21.423  0.00  0.00    +0.000 C 
ATOM     12  C   UNL     1      -1.979  14.968  20.961  0.00  0.00    +0.000 C 
ATOM     13  C   UNL     1      -2.610  13.611  21.427  0.00  0.00    +0.000 C 
ENDROOT
BRANCH   4  14
ATOM     14  C   UNL     1      -6.951  13.551  20.656  0.00  0.00    +0.000 A 
ATOM     15  C   UNL     1      -7.679  12.815  19.683  0.00  0.00    +0.000 A 
ATOM     16  C   UNL     1      -7.668  13.188  18.337  0.00  0.00    +0.000 A 
ATOM     17  C   UNL     1      -7.027  14.361  17.961  0.00  0.00    +0.000 A 
ATOM     18  C   UNL     1      -6.472  15.191  18.941  0.00  0.00    +0.000 A 
ATOM     19  C   UNL     1      -6.468  14.812  20.295  0.00  0.00    +0.000 A 
ENDBRANCH   4  14
BRANCH  13  20
ATOM     20  C   UNL     1      -1.729  12.350  21.317  0.00  0.00    +0.000 A 
ATOM     21  C   UNL     1      -1.568  11.619  22.524  0.00  0.00    +0.000 A 
ATOM     22  C   UNL     1      -0.552  10.686  22.678  0.00  0.00    +0.000 A 
ATOM     23  C   UNL     1       0.282  10.397  21.610  0.00  0.00    +0.000 A 
ATOM     24  C   UNL     1       0.045  10.991  20.367  0.00  0.00    +0.000 A 
ATOM     25  C   UNL     1      -0.985  11.942  20.221  0.00  0.00    +0.000 A 
BRANCH  25  26
ATOM     26  N   UNL     1      -1.233  12.463  18.876  0.00  0.00    +0.000 N 
ATOM     27  O   UNL     1      -2.127  11.919  18.211  0.00  0.00    +0.000 OA
ATOM     28  O   UNL     1      -0.549  13.418  18.477  0.00  0.00    +0.000 OA
ENDBRANCH  25  26
ENDBRANCH  13  20
TORSDOF 3
ENDMDL
MODEL 8
REMARK VINA RESULT:      -6.1      9.096     11.324
REMARK  Name = 
REMARK  4 active torsions:
REMARK  status: ('A' for Active; 'I' for Inactive)
REMARK    1  A    between atoms: C_1  and  C_2
REMARK    2  A    between atoms: N_4  and  C_5
REMARK    3  A    between atoms: C_19  and  C_20
REMARK    4  A    between atoms: C_25  and  N_26
REMARK                            x       y       z     vdW  Elec       q    Type
REMARK                         _______ _______ _______ _____ _____    ______ ____
ROOT
ATOM      1  C   UNL     1       1.733  14.353  21.173  0.00  0.00    +0.000 C 
ATOM      2  C   UNL     1       0.596  13.644  20.514  0.00  0.00    +0.000 C 
ATOM      3  N   UNL     1       0.432  13.634  19.200  0.00  0.00    +0.000 NA
ATOM      4  N   UNL     1      -0.850  13.183  18.985  0.00  0.00    +0.000 N 
ATOM      5  C   UNL     1      -1.419  12.951  20.216  0.00  0.00    +0.000 C 
ATOM      6  O   UNL     1      -2.585  13.279  20.449  0.00  0.00    +0.000 OA
ATOM      7  C   UNL     1      -0.305  12.573  21.221  0.00  0.00    +0.000 C 
ATOM      8  C   UNL     1       0.639  11.338  20.994  0.00  0.00    +0.000 C 
ATOM      9  O   UNL     1       1.698  11.393  20.354  0.00  0.00    +0.000 OA
ATOM     10  C   UNL     1       0.444  10.026  21.619  0.00  0.00    +0.000 C 
ATOM     11  C   UNL     1      -0.424   9.825  22.585  0.00  0.00    +0.000 C 
ATOM     12  C   UNL     1      -1.323  10.871  23.125  0.00  0.00    +0.000 C 
ATOM     13  C   UNL     1      -1.185  12.307  22.508  0.00  0.00    +0.000 C 
ENDROOT
BRANCH   4  14
ATOM     14  C   UNL     1      -1.281  12.138  18.103  0.00  0.00    +0.000 A 
ATOM     15  C   UNL     1      -2.691  12.100  17.938  0.00  0.00    +0.000 A 
ATOM     16  C   UNL     1      -3.403  10.906  18.073  0.00  0.00    +0.000 A 
ATOM     17  C   UNL     1      -2.709   9.717  18.261  0.00  0.00    +0.000 A 
ATOM     18  C   UNL     1      -1.311   9.721  18.233  0.00  0.00    +0.000 A 
ATOM     19  C   UNL     1      -0.591  10.923  18.112  0.00  0.00    +0.000 A 
ENDBRANCH   4  14
BRANCH  13  20
ATOM     20  C   UNL     1      -1.789  13.478  23.308  0.00  0.00    +0.000 A 
ATOM     21  C   UNL     1      -0.921  14.585  23.506  0.00  0.00    +0.000 A 
ATOM     22  C   UNL     1      -1.177  15.544  24.476  0.00  0.00    +0.000 A 
ATOM     23  C   UNL     1      -2.343  15.472  25.222  0.00  0.00    +0.000 A 
ATOM     24  C   UNL     1      -3.285  14.479  24.939  0.00  0.00    +0.000 A 
ATOM     25  C   UNL     1      -3.015  13.505  23.956  0.00  0.00    +0.000 A 
BRANCH  25  26
ATOM     26  N   UNL     1      -4.076  12.545  23.651  0.00  0.00    +0.000 N 
ATOM     27  O   UNL     1      -4.528  12.545  22.497  0.00  0.00    +0.000 OA
ATOM     28  O   UNL     1      -4.460  11.783  24.551  0.00  0.00    +0.000 OA
ENDBRANCH  25  26
ENDBRANCH  13  20
TORSDOF 3
ENDMDL
MODEL 9
REMARK VINA RESULT:      -6.1      9.689     12.548
REMARK  Name = 
REMARK  4 active torsions:
REMARK  status: ('A' for Active; 'I' for Inactive)
REMARK    1  A    between atoms: C_1  and  C_2
REMARK    2  A    between atoms: N_4  and  C_5
REMARK    3  A    between atoms: C_19  and  C_20
REMARK    4  A    between atoms: C_25  and  N_26
REMARK                            x       y       z     vdW  Elec       q    Type
REMARK                         _______ _______ _______ _____ _____    ______ ____
ROOT
ATOM      1  C   UNL     1      -3.807  12.701  23.741  0.00  0.00    +0.000 C 
ATOM      2  C   UNL     1      -3.988  12.757  22.261  0.00  0.00    +0.000 C 
ATOM      3  N   UNL     1      -5.184  12.787  21.693  0.00  0.00    +0.000 NA
ATOM      4  N   UNL     1      -4.975  12.512  20.361  0.00  0.00    +0.000 N 
ATOM      5  C   UNL     1      -3.625  12.309  20.188  0.00  0.00    +0.000 C 
ATOM      6  O   UNL     1      -3.206  11.400  19.467  0.00  0.00    +0.000 OA
ATOM      7  C   UNL     1      -2.853  13.133  21.246  0.00  0.00    +0.000 C 
ATOM      8  C   UNL     1      -2.997  14.693  21.356  0.00  0.00    +0.000 C 
ATOM      9  O   UNL     1      -3.865  15.256  22.038  0.00  0.00    +0.000 OA
ATOM     10  C   UNL     1      -2.049  15.650  20.777  0.00  0.00    +0.000 C 
ATOM     11  C   UNL     1      -0.886  15.286  20.287  0.00  0.00    +0.000 C 
ATOM     12  C   UNL     1      -0.413  13.884  20.227  0.00  0.00    +0.000 C 
ATOM     13  C   UNL     1      -1.368  12.791  20.821  0.00  0.00    +0.000 C 
ENDROOT
BRANCH   4  14
ATOM     14  C   UNL     1      -5.454  13.243  19.224  0.00  0.00    +0.000 A 
ATOM     15  C   UNL     1      -6.224  14.381  19.584  0.00  0.00    +0.000 A 
ATOM     16  C   UNL     1      -7.471  14.624  19.004  0.00  0.00    +0.000 A 
ATOM     17  C   UNL     1      -7.917  13.800  17.978  0.00  0.00    +0.000 A 
ATOM     18  C   UNL     1      -7.080  12.792  17.488  0.00  0.00    +0.000 A 
ATOM     19  C   UNL     1      -5.831  12.535  18.079  0.00  0.00    +0.000 A 
ENDBRANCH   4  14
BRANCH  13  20
ATOM     20  C   UNL     1      -0.751  11.416  21.145  0.00  0.00    +0.000 A 
ATOM     21  C   UNL     1      -1.011  10.931  22.455  0.00  0.00    +0.000 A 
ATOM     22  C   UNL     1      -0.258   9.908  23.014  0.00  0.00    +0.000 A 
ATOM     23  C   UNL     1       0.721   9.283  22.257  0.00  0.00    +0.000 A 
ATOM     24  C   UNL     1       0.889   9.639  20.916  0.00  0.00    +0.000 A 
ATOM     25  C   UNL     1       0.125  10.685  20.358  0.00  0.00    +0.000 A 
BRANCH  25  26
ATOM     26  N   UNL     1       0.292  10.951  18.928  0.00  0.00    +0.000 N 
ATOM     27  O   UNL     1       1.306  11.574  18.581  0.00  0.00    +0.000 OA
ATOM     28  O   UNL     1      -0.576  10.537  18.145  0.00  0.00    +0.000 OA
ENDBRANCH  25  26
ENDBRANCH  13  20
TORSDOF 3
ENDMDL
