MODEL 1
REMARK VINA RESULT:      -7.7      0.000      0.000
REMARK  Name = 
REMARK  6 active torsions:
REMARK  status: ('A' for Active; 'I' for Inactive)
REMARK    1  A    between atoms: C_1  and  C_2
REMARK    2  A    between atoms: C_6  and  N_7
REMARK    3  A    between atoms: C_8  and  C_10
REMARK    4  A    between atoms: C_13  and  S_14
REMARK    5  A    between atoms: S_14  and  C_17
REMARK    6  A    between atoms: C_22  and  C_23
REMARK                            x       y       z     vdW  Elec       q    Type
REMARK                         _______ _______ _______ _____ _____    ______ ____
ROOT
ATOM      1  N   UNL     1       2.105   8.310  20.043  0.00  0.00    +0.000 N 
ATOM      2  C   UNL     1       2.202   6.932  19.928  0.00  0.00    +0.000 C 
ATOM      3  O   UNL     1       1.451   6.096  20.418  0.00  0.00    +0.000 OA
ATOM      4  H   UNL     1       2.844   8.846  19.622  0.00  0.00    +0.000 HD
ENDROOT
BRANCH   1  10
ATOM      5  C   UNL     1      -1.644  11.672  20.154  0.00  0.00    +0.000 C 
ATOM      6  C   UNL     1      -0.707  10.690  20.813  0.00  0.00    +0.000 A 
ATOM      7  C   UNL     1      -0.835  10.490  22.193  0.00  0.00    +0.000 A 
ATOM      8  C   UNL     1      -0.006   9.597  22.851  0.00  0.00    +0.000 A 
ATOM      9  C   UNL     1       0.954   8.885  22.137  0.00  0.00    +0.000 A 
ATOM     10  C   UNL     1       1.120   9.051  20.754  0.00  0.00    +0.000 A 
ATOM     11  C   UNL     1       0.284   9.978  20.075  0.00  0.00    +0.000 A 
ATOM     12  C   UNL     1       0.382  10.263  18.594  0.00  0.00    +0.000 C 
ENDBRANCH   1  10
BRANCH   2  13
ATOM     13  C   UNL     1       3.370   6.412  19.152  0.00  0.00    +0.000 A 
ATOM     14  C   UNL     1       3.632   7.011  17.908  0.00  0.00    +0.000 A 
ATOM     15  C   UNL     1       4.713   6.599  17.129  0.00  0.00    +0.000 A 
ATOM     16  C   UNL     1       5.552   5.589  17.603  0.00  0.00    +0.000 A 
ATOM     17  C   UNL     1       5.301   4.974  18.835  0.00  0.00    +0.000 A 
ATOM     18  C   UNL     1       4.217   5.394  19.616  0.00  0.00    +0.000 A 
BRANCH  16  19
ATOM     19  S   UNL     1       6.905   5.041  16.583  0.00  0.00    +0.000 S 
ATOM     20  O   UNL     1       7.387   6.210  15.865  0.00  0.00    +0.000 OA
ATOM     21  O   UNL     1       7.816   4.308  17.447  0.00  0.00    +0.000 OA
BRANCH  19  22
ATOM     22  C   UNL     1       6.127   3.901  15.428  0.00  0.00    +0.000 C 
ATOM     23  F   UNL     1       5.151   3.145  16.009  0.00  0.00    +0.000 F 
ATOM     24  F   UNL     1       5.537   4.540  14.378  0.00  0.00    +0.000 F 
ENDBRANCH  19  22
ENDBRANCH  16  19
ENDBRANCH   2  13
TORSDOF 4
ENDMDL
MODEL 2
REMARK VINA RESULT:      -7.6      0.631      1.230
REMARK  Name = 
REMARK  6 active torsions:
REMARK  status: ('A' for Active; 'I' for Inactive)
REMARK    1  A    between atoms: C_1  and  C_2
REMARK    2  A    between atoms: C_6  and  N_7
REMARK    3  A    between atoms: C_8  and  C_10
REMARK    4  A    between atoms: C_13  and  S_14
REMARK    5  A    between atoms: S_14  and  C_17
REMARK    6  A    between atoms: C_22  and  C_23
REMARK                            x       y       z     vdW  Elec       q    Type
REMARK                         _______ _______ _______ _____ _____    ______ ____
ROOT
ATOM      1  N   UNL     1       2.176   8.286  19.510  0.00  0.00    +0.000 N 
ATOM      2  C   UNL     1       2.461   6.930  19.527  0.00  0.00    +0.000 C 
ATOM      3  O   UNL     1       1.922   6.071  20.217  0.00  0.00    +0.000 OA
ATOM      4  H   UNL     1       2.758   8.857  18.922  0.00  0.00    +0.000 HD
ENDROOT
BRANCH   1  10
ATOM      5  C   UNL     1      -1.627  11.564  19.911  0.00  0.00    +0.000 C 
ATOM      6  C   UNL     1      -0.647  10.574  20.490  0.00  0.00    +0.000 A 
ATOM      7  C   UNL     1      -0.718  10.312  21.864  0.00  0.00    +0.000 A 
ATOM      8  C   UNL     1       0.153   9.408  22.451  0.00  0.00    +0.000 A 
ATOM      9  C   UNL     1       1.097   8.747  21.670  0.00  0.00    +0.000 A 
ATOM     10  C   UNL     1       1.206   8.976  20.290  0.00  0.00    +0.000 A 
ATOM     11  C   UNL     1       0.327   9.914  19.685  0.00  0.00    +0.000 A 
ATOM     12  C   UNL     1       0.363  10.264  18.215  0.00  0.00    +0.000 C 
ENDBRANCH   1  10
BRANCH   2  13
ATOM     13  C   UNL     1       3.567   6.473  18.630  0.00  0.00    +0.000 A 
ATOM     14  C   UNL     1       4.270   5.320  19.014  0.00  0.00    +0.000 A 
ATOM     15  C   UNL     1       5.304   4.816  18.225  0.00  0.00    +0.000 A 
ATOM     16  C   UNL     1       5.629   5.461  17.030  0.00  0.00    +0.000 A 
ATOM     17  C   UNL     1       4.946   6.617  16.636  0.00  0.00    +0.000 A 
ATOM     18  C   UNL     1       3.906   7.117  17.430  0.00  0.00    +0.000 A 
BRANCH  16  19
ATOM     19  S   UNL     1       6.977   4.835  16.050  0.00  0.00    +0.000 S 
ATOM     20  O   UNL     1       7.536   5.971  15.334  0.00  0.00    +0.000 OA
ATOM     21  O   UNL     1       7.828   4.065  16.942  0.00  0.00    +0.000 OA
BRANCH  19  22
ATOM     22  C   UNL     1       6.172   3.725  14.884  0.00  0.00    +0.000 C 
ATOM     23  F   UNL     1       4.893   4.103  14.593  0.00  0.00    +0.000 F 
ATOM     24  F   UNL     1       6.826   3.653  13.690  0.00  0.00    +0.000 F 
ENDBRANCH  19  22
ENDBRANCH  16  19
ENDBRANCH   2  13
TORSDOF 4
ENDMDL
MODEL 3
REMARK VINA RESULT:      -7.5      1.495      1.752
REMARK  Name = 
REMARK  6 active torsions:
REMARK  status: ('A' for Active; 'I' for Inactive)
REMARK    1  A    between atoms: C_1  and  C_2
REMARK    2  A    between atoms: C_6  and  N_7
REMARK    3  A    between atoms: C_8  and  C_10
REMARK    4  A    between atoms: C_13  and  S_14
REMARK    5  A    between atoms: S_14  and  C_17
REMARK    6  A    between atoms: C_22  and  C_23
REMARK                            x       y       z     vdW  Elec       q    Type
REMARK                         _______ _______ _______ _____ _____    ______ ____
ROOT
ATOM      1  N   UNL     1       1.715   8.388  20.051  0.00  0.00    +0.000 N 
ATOM      2  C   UNL     1       1.924   7.020  20.129  0.00  0.00    +0.000 C 
ATOM      3  O   UNL     1       1.415   6.241  20.927  0.00  0.00    +0.000 OA
ATOM      4  H   UNL     1       2.261   8.885  19.369  0.00  0.00    +0.000 HD
ENDROOT
BRANCH   1  10
ATOM      5  C   UNL     1      -1.669  12.072  20.637  0.00  0.00    +0.000 C 
ATOM      6  C   UNL     1      -0.777  10.979  21.168  0.00  0.00    +0.000 A 
ATOM      7  C   UNL     1      -0.802  10.726  22.546  0.00  0.00    +0.000 A 
ATOM      8  C   UNL     1      -0.007   9.731  23.090  0.00  0.00    +0.000 A 
ATOM      9  C   UNL     1       0.813   8.968  22.263  0.00  0.00    +0.000 A 
ATOM     10  C   UNL     1       0.872   9.182  20.878  0.00  0.00    +0.000 A 
ATOM     11  C   UNL     1       0.072  10.213  20.316  0.00  0.00    +0.000 A 
ATOM     12  C   UNL     1       0.067  10.557  18.844  0.00  0.00    +0.000 C 
ENDBRANCH   1  10
BRANCH   2  13
ATOM     13  C   UNL     1       2.903   6.443  19.157  0.00  0.00    +0.000 A 
ATOM     14  C   UNL     1       3.289   7.254  18.077  0.00  0.00    +0.000 A 
ATOM     15  C   UNL     1       4.212   6.799  17.135  0.00  0.00    +0.000 A 
ATOM     16  C   UNL     1       4.768   5.527  17.282  0.00  0.00    +0.000 A 
ATOM     17  C   UNL     1       4.388   4.701  18.346  0.00  0.00    +0.000 A 
ATOM     18  C   UNL     1       3.464   5.164  19.292  0.00  0.00    +0.000 A 
BRANCH  16  19
ATOM     19  S   UNL     1       5.914   4.939  16.052  0.00  0.00    +0.000 S 
ATOM     20  O   UNL     1       5.646   3.520  15.876  0.00  0.00    +0.000 OA
ATOM     21  O   UNL     1       5.805   5.832  14.910  0.00  0.00    +0.000 OA
BRANCH  19  22
ATOM     22  C   UNL     1       7.521   5.157  16.833  0.00  0.00    +0.000 C 
ATOM     23  F   UNL     1       7.653   6.373  17.437  0.00  0.00    +0.000 F 
ATOM     24  F   UNL     1       7.765   4.226  17.798  0.00  0.00    +0.000 F 
ENDBRANCH  19  22
ENDBRANCH  16  19
ENDBRANCH   2  13
TORSDOF 4
ENDMDL
MODEL 4
REMARK VINA RESULT:      -7.3      2.081      2.936
REMARK  Name = 
REMARK  6 active torsions:
REMARK  status: ('A' for Active; 'I' for Inactive)
REMARK    1  A    between atoms: C_1  and  C_2
REMARK    2  A    between atoms: C_6  and  N_7
REMARK    3  A    between atoms: C_8  and  C_10
REMARK    4  A    between atoms: C_13  and  S_14
REMARK    5  A    between atoms: S_14  and  C_17
REMARK    6  A    between atoms: C_22  and  C_23
REMARK                            x       y       z     vdW  Elec       q    Type
REMARK                         _______ _______ _______ _____ _____    ______ ____
ROOT
ATOM      1  N   UNL     1       0.639   9.199  19.830  0.00  0.00    +0.000 N 
ATOM      2  C   UNL     1       1.601   9.145  18.833  0.00  0.00    +0.000 C 
ATOM      3  O   UNL     1       1.866  10.020  18.016  0.00  0.00    +0.000 OA
ATOM      4  H   UNL     1       0.516   8.364  20.376  0.00  0.00    +0.000 HD
ENDROOT
BRANCH   1  10
ATOM      5  C   UNL     1      -1.723  12.191  23.121  0.00  0.00    +0.000 C 
ATOM      6  C   UNL     1      -1.402  11.734  21.720  0.00  0.00    +0.000 A 
ATOM      7  C   UNL     1      -1.995  12.423  20.655  0.00  0.00    +0.000 A 
ATOM      8  C   UNL     1      -1.733  12.052  19.347  0.00  0.00    +0.000 A 
ATOM      9  C   UNL     1      -0.866  10.994  19.087  0.00  0.00    +0.000 A 
ATOM     10  C   UNL     1      -0.246  10.274  20.119  0.00  0.00    +0.000 A 
ATOM     11  C   UNL     1      -0.525  10.639  21.464  0.00  0.00    +0.000 A 
ATOM     12  C   UNL     1       0.060   9.925  22.661  0.00  0.00    +0.000 C 
ENDBRANCH   1  10
BRANCH   2  13
ATOM     13  C   UNL     1       2.370   7.868  18.722  0.00  0.00    +0.000 A 
ATOM     14  C   UNL     1       3.218   7.722  17.612  0.00  0.00    +0.000 A 
ATOM     15  C   UNL     1       3.985   6.570  17.443  0.00  0.00    +0.000 A 
ATOM     16  C   UNL     1       3.918   5.557  18.401  0.00  0.00    +0.000 A 
ATOM     17  C   UNL     1       3.072   5.680  19.509  0.00  0.00    +0.000 A 
ATOM     18  C   UNL     1       2.306   6.840  19.677  0.00  0.00    +0.000 A 
BRANCH  16  19
ATOM     19  S   UNL     1       4.869   4.072  18.156  0.00  0.00    +0.000 S 
ATOM     20  O   UNL     1       5.736   4.315  17.013  0.00  0.00    +0.000 OA
ATOM     21  O   UNL     1       5.460   3.730  19.440  0.00  0.00    +0.000 OA
BRANCH  19  22
ATOM     22  C   UNL     1       3.628   2.843  17.721  0.00  0.00    +0.000 C 
ATOM     23  F   UNL     1       2.975   2.344  18.810  0.00  0.00    +0.000 F 
ATOM     24  F   UNL     1       2.663   3.341  16.897  0.00  0.00    +0.000 F 
ENDBRANCH  19  22
ENDBRANCH  16  19
ENDBRANCH   2  13
TORSDOF 4
ENDMDL
MODEL 5
REMARK VINA RESULT:      -7.3      2.074      2.712
REMARK  Name = 
REMARK  6 active torsions:
REMARK  status: ('A' for Active; 'I' for Inactive)
REMARK    1  A    between atoms: C_1  and  C_2
REMARK    2  A    between atoms: C_6  and  N_7
REMARK    3  A    between atoms: C_8  and  C_10
REMARK    4  A    between atoms: C_13  and  S_14
REMARK    5  A    between atoms: S_14  and  C_17
REMARK    6  A    between atoms: C_22  and  C_23
REMARK                            x       y       z     vdW  Elec       q    Type
REMARK                         _______ _______ _______ _____ _____    ______ ____
ROOT
ATOM      1  N   UNL     1       0.662   9.288  19.371  0.00  0.00    +0.000 N 
ATOM      2  C   UNL     1       1.692   9.212  18.446  0.00  0.00    +0.000 C 
ATOM      3  O   UNL     1       1.991  10.054  17.605  0.00  0.00    +0.000 OA
ATOM      4  H   UNL     1       0.523   8.478  19.949  0.00  0.00    +0.000 HD
ENDROOT
BRANCH   1  10
ATOM      5  C   UNL     1      -3.443  11.819  17.921  0.00  0.00    +0.000 C 
ATOM      6  C   UNL     1      -2.268  11.588  18.839  0.00  0.00    +0.000 A 
ATOM      7  C   UNL     1      -2.107  12.457  19.925  0.00  0.00    +0.000 A 
ATOM      8  C   UNL     1      -1.049  12.290  20.804  0.00  0.00    +0.000 A 
ATOM      9  C   UNL     1      -0.148  11.246  20.615  0.00  0.00    +0.000 A 
ATOM     10  C   UNL     1      -0.269  10.350  19.543  0.00  0.00    +0.000 A 
ATOM     11  C   UNL     1      -1.341  10.526  18.628  0.00  0.00    +0.000 A 
ATOM     12  C   UNL     1      -1.563   9.642  17.421  0.00  0.00    +0.000 C 
ENDBRANCH   1  10
BRANCH   2  13
ATOM     13  C   UNL     1       2.499   7.954  18.454  0.00  0.00    +0.000 A 
ATOM     14  C   UNL     1       3.422   7.776  17.409  0.00  0.00    +0.000 A 
ATOM     15  C   UNL     1       4.228   6.639  17.352  0.00  0.00    +0.000 A 
ATOM     16  C   UNL     1       4.124   5.677  18.358  0.00  0.00    +0.000 A 
ATOM     17  C   UNL     1       3.205   5.832  19.401  0.00  0.00    +0.000 A 
ATOM     18  C   UNL     1       2.400   6.977  19.457  0.00  0.00    +0.000 A 
BRANCH  16  19
ATOM     19  S   UNL     1       5.128   4.209  18.255  0.00  0.00    +0.000 S 
ATOM     20  O   UNL     1       6.072   4.270  19.359  0.00  0.00    +0.000 OA
ATOM     21  O   UNL     1       4.218   3.080  18.156  0.00  0.00    +0.000 OA
BRANCH  19  22
ATOM     22  C   UNL     1       6.008   4.408  16.697  0.00  0.00    +0.000 C 
ATOM     23  F   UNL     1       7.360   4.487  16.861  0.00  0.00    +0.000 F 
ATOM     24  F   UNL     1       5.790   3.373  15.836  0.00  0.00    +0.000 F 
ENDBRANCH  19  22
ENDBRANCH  16  19
ENDBRANCH   2  13
TORSDOF 4
ENDMDL
MODEL 6
REMARK VINA RESULT:      -7.3      2.209      2.902
REMARK  Name = 
REMARK  6 active torsions:
REMARK  status: ('A' for Active; 'I' for Inactive)
REMARK    1  A    between atoms: C_1  and  C_2
REMARK    2  A    between atoms: C_6  and  N_7
REMARK    3  A    between atoms: C_8  and  C_10
REMARK    4  A    between atoms: C_13  and  S_14
REMARK    5  A    between atoms: S_14  and  C_17
REMARK    6  A    between atoms: C_22  and  C_23
REMARK                            x       y       z     vdW  Elec       q    Type
REMARK                         _______ _______ _______ _____ _____    ______ ____
ROOT
ATOM      1  N   UNL     1       0.756   9.244  19.254  0.00  0.00    +0.000 N 
ATOM      2  C   UNL     1       1.798   9.274  18.340  0.00  0.00    +0.000 C 
ATOM      3  O   UNL     1       2.099  10.199  17.593  0.00  0.00    +0.000 OA
ATOM      4  H   UNL     1       0.618   8.379  19.745  0.00  0.00    +0.000 HD
ENDROOT
BRANCH   1  10
ATOM      5  C   UNL     1      -3.419  11.799  18.065  0.00  0.00    +0.000 C 
ATOM      6  C   UNL     1      -2.223  11.523  18.942  0.00  0.00    +0.000 A 
ATOM      7  C   UNL     1      -2.055  12.314  20.086  0.00  0.00    +0.000 A 
ATOM      8  C   UNL     1      -0.979  12.103  20.932  0.00  0.00    +0.000 A 
ATOM      9  C   UNL     1      -0.063  11.093  20.651  0.00  0.00    +0.000 A 
ATOM     10  C   UNL     1      -0.190  10.274  19.519  0.00  0.00    +0.000 A 
ATOM     11  C   UNL     1      -1.282  10.496  18.638  0.00  0.00    +0.000 A 
ATOM     12  C   UNL     1      -1.512   9.699  17.375  0.00  0.00    +0.000 C 
ENDBRANCH   1  10
BRANCH   2  13
ATOM     13  C   UNL     1       2.620   8.030  18.232  0.00  0.00    +0.000 A 
ATOM     14  C   UNL     1       2.375   7.015  19.173  0.00  0.00    +0.000 A 
ATOM     15  C   UNL     1       3.085   5.815  19.131  0.00  0.00    +0.000 A 
ATOM     16  C   UNL     1       4.037   5.618  18.130  0.00  0.00    +0.000 A 
ATOM     17  C   UNL     1       4.302   6.620  17.191  0.00  0.00    +0.000 A 
ATOM     18  C   UNL     1       3.584   7.822  17.233  0.00  0.00    +0.000 A 
BRANCH  16  19
ATOM     19  S   UNL     1       4.968   4.099  18.110  0.00  0.00    +0.000 S 
ATOM     20  O   UNL     1       5.919   4.206  17.015  0.00  0.00    +0.000 OA
ATOM     21  O   UNL     1       5.457   3.884  19.462  0.00  0.00    +0.000 OA
BRANCH  19  22
ATOM     22  C   UNL     1       3.731   2.852  17.714  0.00  0.00    +0.000 C 
ATOM     23  F   UNL     1       3.046   2.421  18.813  0.00  0.00    +0.000 F 
ATOM     24  F   UNL     1       2.792   3.305  16.836  0.00  0.00    +0.000 F 
ENDBRANCH  19  22
ENDBRANCH  16  19
ENDBRANCH   2  13
TORSDOF 4
ENDMDL
MODEL 7
REMARK VINA RESULT:      -7.3      2.330      3.349
REMARK  Name = 
REMARK  6 active torsions:
REMARK  status: ('A' for Active; 'I' for Inactive)
REMARK    1  A    between atoms: C_1  and  C_2
REMARK    2  A    between atoms: C_6  and  N_7
REMARK    3  A    between atoms: C_8  and  C_10
REMARK    4  A    between atoms: C_13  and  S_14
REMARK    5  A    between atoms: S_14  and  C_17
REMARK    6  A    between atoms: C_22  and  C_23
REMARK                            x       y       z     vdW  Elec       q    Type
REMARK                         _______ _______ _______ _____ _____    ______ ____
ROOT
ATOM      1  N   UNL     1       0.552   9.168  20.052  0.00  0.00    +0.000 N 
ATOM      2  C   UNL     1       1.519   9.012  19.071  0.00  0.00    +0.000 C 
ATOM      3  O   UNL     1       1.834   9.827  18.210  0.00  0.00    +0.000 OA
ATOM      4  H   UNL     1       0.384   8.373  20.643  0.00  0.00    +0.000 HD
ENDROOT
BRANCH   1  10
ATOM      5  C   UNL     1      -1.821  12.356  23.146  0.00  0.00    +0.000 C 
ATOM      6  C   UNL     1      -1.444  11.854  21.775  0.00  0.00    +0.000 A 
ATOM      7  C   UNL     1      -1.930  12.557  20.665  0.00  0.00    +0.000 A 
ATOM      8  C   UNL     1      -1.611  12.146  19.381  0.00  0.00    +0.000 A 
ATOM      9  C   UNL     1      -0.795  11.035  19.191  0.00  0.00    +0.000 A 
ATOM     10  C   UNL     1      -0.283  10.299  20.270  0.00  0.00    +0.000 A 
ATOM     11  C   UNL     1      -0.620  10.706  21.589  0.00  0.00    +0.000 A 
ATOM     12  C   UNL     1      -0.153   9.981  22.831  0.00  0.00    +0.000 C 
ENDBRANCH   1  10
BRANCH   2  13
ATOM     13  C   UNL     1       2.227   7.696  19.042  0.00  0.00    +0.000 A 
ATOM     14  C   UNL     1       1.964   6.802  20.092  0.00  0.00    +0.000 A 
ATOM     15  C   UNL     1       2.568   5.545  20.131  0.00  0.00    +0.000 A 
ATOM     16  C   UNL     1       3.431   5.170  19.101  0.00  0.00    +0.000 A 
ATOM     17  C   UNL     1       3.714   6.051  18.051  0.00  0.00    +0.000 A 
ATOM     18  C   UNL     1       3.102   7.310  18.014  0.00  0.00    +0.000 A 
BRANCH  16  19
ATOM     19  S   UNL     1       4.230   3.580  19.180  0.00  0.00    +0.000 S 
ATOM     20  O   UNL     1       5.663   3.830  19.150  0.00  0.00    +0.000 OA
ATOM     21  O   UNL     1       3.653   2.872  20.311  0.00  0.00    +0.000 OA
BRANCH  19  22
ATOM     22  C   UNL     1       3.726   2.777  17.650  0.00  0.00    +0.000 C 
ATOM     23  F   UNL     1       3.796   1.417  17.719  0.00  0.00    +0.000 F 
ATOM     24  F   UNL     1       2.441   3.073  17.302  0.00  0.00    +0.000 F 
ENDBRANCH  19  22
ENDBRANCH  16  19
ENDBRANCH   2  13
TORSDOF 4
ENDMDL
MODEL 8
REMARK VINA RESULT:      -7.3      2.500      3.088
REMARK  Name = 
REMARK  6 active torsions:
REMARK  status: ('A' for Active; 'I' for Inactive)
REMARK    1  A    between atoms: C_1  and  C_2
REMARK    2  A    between atoms: C_6  and  N_7
REMARK    3  A    between atoms: C_8  and  C_10
REMARK    4  A    between atoms: C_13  and  S_14
REMARK    5  A    between atoms: S_14  and  C_17
REMARK    6  A    between atoms: C_22  and  C_23
REMARK                            x       y       z     vdW  Elec       q    Type
REMARK                         _______ _______ _______ _____ _____    ______ ____
ROOT
ATOM      1  N   UNL     1       0.568   9.330  19.376  0.00  0.00    +0.000 N 
ATOM      2  C   UNL     1       1.612   9.233  18.470  0.00  0.00    +0.000 C 
ATOM      3  O   UNL     1       1.925  10.053  17.614  0.00  0.00    +0.000 OA
ATOM      4  H   UNL     1       0.419   8.535  19.972  0.00  0.00    +0.000 HD
ENDROOT
BRANCH   1  10
ATOM      5  C   UNL     1      -3.542  11.794  17.826  0.00  0.00    +0.000 C 
ATOM      6  C   UNL     1      -2.368  11.600  18.753  0.00  0.00    +0.000 A 
ATOM      7  C   UNL     1      -2.211  12.510  19.806  0.00  0.00    +0.000 A 
ATOM      8  C   UNL     1      -1.155  12.379  20.693  0.00  0.00    +0.000 A 
ATOM      9  C   UNL     1      -0.250  11.332  20.544  0.00  0.00    +0.000 A 
ATOM     10  C   UNL     1      -0.367  10.395  19.507  0.00  0.00    +0.000 A 
ATOM     11  C   UNL     1      -1.438  10.534  18.584  0.00  0.00    +0.000 A 
ATOM     12  C   UNL     1      -1.655   9.605  17.411  0.00  0.00    +0.000 C 
ENDBRANCH   1  10
BRANCH   2  13
ATOM     13  C   UNL     1       2.420   7.976  18.522  0.00  0.00    +0.000 A 
ATOM     14  C   UNL     1       3.356   7.771  17.495  0.00  0.00    +0.000 A 
ATOM     15  C   UNL     1       4.163   6.633  17.479  0.00  0.00    +0.000 A 
ATOM     16  C   UNL     1       4.048   5.698  18.509  0.00  0.00    +0.000 A 
ATOM     17  C   UNL     1       3.114   5.881  19.535  0.00  0.00    +0.000 A 
ATOM     18  C   UNL     1       2.309   7.026  19.550  0.00  0.00    +0.000 A 
BRANCH  16  19
ATOM     19  S   UNL     1       5.053   4.229  18.458  0.00  0.00    +0.000 S 
ATOM     20  O   UNL     1       5.222   3.887  17.054  0.00  0.00    +0.000 OA
ATOM     21  O   UNL     1       6.227   4.490  19.275  0.00  0.00    +0.000 OA
BRANCH  19  22
ATOM     22  C   UNL     1       4.027   2.988  19.262  0.00  0.00    +0.000 C 
ATOM     23  F   UNL     1       3.537   2.062  18.388  0.00  0.00    +0.000 F 
ATOM     24  F   UNL     1       4.703   2.287  20.217  0.00  0.00    +0.000 F 
ENDBRANCH  19  22
ENDBRANCH  16  19
ENDBRANCH   2  13
TORSDOF 4
ENDMDL
MODEL 9
REMARK VINA RESULT:      -7.2      2.145      2.719
REMARK  Name = 
REMARK  6 active torsions:
REMARK  status: ('A' for Active; 'I' for Inactive)
REMARK    1  A    between atoms: C_1  and  C_2
REMARK    2  A    between atoms: C_6  and  N_7
REMARK    3  A    between atoms: C_8  and  C_10
REMARK    4  A    between atoms: C_13  and  S_14
REMARK    5  A    between atoms: S_14  and  C_17
REMARK    6  A    between atoms: C_22  and  C_23
REMARK                            x       y       z     vdW  Elec       q    Type
REMARK                         _______ _______ _______ _____ _____    ______ ____
ROOT
ATOM      1  N   UNL     1       0.675   9.328  19.440  0.00  0.00    +0.000 N 
ATOM      2  C   UNL     1       1.660   9.235  18.469  0.00  0.00    +0.000 C 
ATOM      3  O   UNL     1       1.917  10.060  17.598  0.00  0.00    +0.000 OA
ATOM      4  H   UNL     1       0.565   8.530  20.041  0.00  0.00    +0.000 HD
ENDROOT
BRANCH   1  10
ATOM      5  C   UNL     1      -3.469  11.858  18.103  0.00  0.00    +0.000 C 
ATOM      6  C   UNL     1      -2.268  11.630  18.985  0.00  0.00    +0.000 A 
ATOM      7  C   UNL     1      -2.072  12.504  20.062  0.00  0.00    +0.000 A 
ATOM      8  C   UNL     1      -0.989  12.340  20.909  0.00  0.00    +0.000 A 
ATOM      9  C   UNL     1      -0.095  11.294  20.698  0.00  0.00    +0.000 A 
ATOM     10  C   UNL     1      -0.249  10.393  19.635  0.00  0.00    +0.000 A 
ATOM     11  C   UNL     1      -1.348  10.566  18.752  0.00  0.00    +0.000 A 
ATOM     12  C   UNL     1      -1.608   9.677  17.557  0.00  0.00    +0.000 C 
ENDBRANCH   1  10
BRANCH   2  13
ATOM     13  C   UNL     1       2.469   7.979  18.464  0.00  0.00    +0.000 A 
ATOM     14  C   UNL     1       3.396   7.816  17.421  0.00  0.00    +0.000 A 
ATOM     15  C   UNL     1       4.205   6.682  17.353  0.00  0.00    +0.000 A 
ATOM     16  C   UNL     1       4.099   5.706  18.345  0.00  0.00    +0.000 A 
ATOM     17  C   UNL     1       3.174   5.845  19.386  0.00  0.00    +0.000 A 
ATOM     18  C   UNL     1       2.367   6.988  19.453  0.00  0.00    +0.000 A 
BRANCH  16  19
ATOM     19  S   UNL     1       5.105   4.241  18.227  0.00  0.00    +0.000 S 
ATOM     20  O   UNL     1       6.235   4.578  17.374  0.00  0.00    +0.000 OA
ATOM     21  O   UNL     1       5.349   3.784  19.585  0.00  0.00    +0.000 OA
BRANCH  19  22
ATOM     22  C   UNL     1       4.040   3.064  17.380  0.00  0.00    +0.000 C 
ATOM     23  F   UNL     1       3.640   2.038  18.187  0.00  0.00    +0.000 F 
ATOM     24  F   UNL     1       2.898   3.638  16.904  0.00  0.00    +0.000 F 
ENDBRANCH  19  22
ENDBRANCH  16  19
ENDBRANCH   2  13
TORSDOF 4
ENDMDL
