MODEL 1
REMARK VINA RESULT:      -6.3      0.000      0.000
REMARK  Name = 
REMARK  6 active torsions:
REMARK  status: ('A' for Active; 'I' for Inactive)
REMARK    1  A    between atoms: C_2  and  C_3
REMARK    2  A    between atoms: N_9  and  C_10
REMARK    3  A    between atoms: N_9  and  C_16
REMARK    4  A    between atoms: C_10  and  C_11
REMARK    5  A    between atoms: C_16  and  C_17
REMARK    6  A    between atoms: N_19  and  C_20
REMARK                            x       y       z     vdW  Elec       q    Type
REMARK                         _______ _______ _______ _____ _____    ______ ____
ROOT
ATOM      1  O   UNL     1       2.441  13.090  21.207  0.00  0.00    +0.000 OA
ATOM      2  C   UNL     1       1.292  12.689  21.014  0.00  0.00    +0.000 C 
ATOM      3  N   UNL     1       0.217  13.593  20.926  0.00  0.00    +0.000 N 
ENDROOT
BRANCH   2   4
ATOM      4  C   UNL     1       1.124  11.198  20.927  0.00  0.00    +0.000 A 
ATOM      5  C   UNL     1       1.098  10.605  19.650  0.00  0.00    +0.000 A 
ATOM      6  C   UNL     1       1.086   9.219  19.589  0.00  0.00    +0.000 A 
ATOM      7  C   UNL     1       1.079   8.460  20.741  0.00  0.00    +0.000 A 
ATOM      8  C   UNL     1       1.028   9.120  21.958  0.00  0.00    +0.000 A 
ATOM      9  N   UNL     1       1.039  10.462  22.050  0.00  0.00    +0.000 NA
ENDBRANCH   2   4
BRANCH   3  10
ATOM     10  C   UNL     1      -1.219  13.227  20.582  0.00  0.00    +0.000 C 
ATOM     11  C   UNL     1      -1.820  12.091  21.467  0.00  0.00    +0.000 C 
ATOM     12  C   UNL     1      -1.815  12.453  22.949  0.00  0.00    +0.000 C 
ATOM     13  C   UNL     1      -2.720  13.647  23.203  0.00  0.00    +0.000 C 
ATOM     14  C   UNL     1      -2.417  14.817  22.284  0.00  0.00    +0.000 C 
ATOM     15  C   UNL     1      -2.224  14.413  20.797  0.00  0.00    +0.000 C 
BRANCH  10  16
ATOM     16  C   UNL     1      -1.300  12.840  19.043  0.00  0.00    +0.000 C 
ATOM     17  O   UNL     1      -0.613  13.405  18.186  0.00  0.00    +0.000 OA
ATOM     18  N   UNL     1      -2.152  11.787  18.713  0.00  0.00    +0.000 N 
ATOM     19  H   UNL     1      -2.644  11.303  19.451  0.00  0.00    +0.000 HD
BRANCH  18  20
ATOM     20  C   UNL     1      -2.453  11.473  17.326  0.00  0.00    +0.000 C 
ATOM     21  C   UNL     1      -2.024  10.055  16.981  0.00  0.00    +0.000 C 
ATOM     22  C   UNL     1      -2.745   9.762  15.675  0.00  0.00    +0.000 C 
ATOM     23  C   UNL     1      -4.039  10.574  15.724  0.00  0.00    +0.000 C 
ATOM     24  C   UNL     1      -3.943  11.463  16.969  0.00  0.00    +0.000 C 
ENDBRANCH  18  20
ENDBRANCH  10  16
ENDBRANCH   3  10
BRANCH   3  25
ATOM     25  C   UNL     1       0.596  15.015  21.134  0.00  0.00    +0.000 C 
BRANCH  25  26
ATOM     26  C   UNL     1       0.994  15.752  19.888  0.00  0.00    +0.000 A 
ATOM     27  C   UNL     1       2.147  15.878  19.140  0.00  0.00    +0.000 A 
ATOM     28  C   UNL     1       1.894  16.844  18.138  0.00  0.00    +0.000 A 
ATOM     29  C   UNL     1       0.577  17.210  18.295  0.00  0.00    +0.000 A 
ATOM     30  O   UNL     1       0.025  16.557  19.348  0.00  0.00    +0.000 OA
ENDBRANCH  25  26
ENDBRANCH   3  25
TORSDOF 6
ENDMDL
MODEL 2
REMARK VINA RESULT:      -6.2      6.408      9.696
REMARK  Name = 
REMARK  6 active torsions:
REMARK  status: ('A' for Active; 'I' for Inactive)
REMARK    1  A    between atoms: C_2  and  C_3
REMARK    2  A    between atoms: N_9  and  C_10
REMARK    3  A    between atoms: N_9  and  C_16
REMARK    4  A    between atoms: C_10  and  C_11
REMARK    5  A    between atoms: C_16  and  C_17
REMARK    6  A    between atoms: N_19  and  C_20
REMARK                            x       y       z     vdW  Elec       q    Type
REMARK                         _______ _______ _______ _____ _____    ______ ____
ROOT
ATOM      1  O   UNL     1       6.524   4.720  19.986  0.00  0.00    +0.000 OA
ATOM      2  C   UNL     1       5.600   4.785  19.173  0.00  0.00    +0.000 C 
ATOM      3  N   UNL     1       5.816   5.274  17.872  0.00  0.00    +0.000 N 
ENDROOT
BRANCH   2   4
ATOM      4  C   UNL     1       4.251   4.357  19.680  0.00  0.00    +0.000 A 
ATOM      5  C   UNL     1       3.881   3.007  19.528  0.00  0.00    +0.000 A 
ATOM      6  C   UNL     1       2.698   2.597  20.125  0.00  0.00    +0.000 A 
ATOM      7  C   UNL     1       1.910   3.491  20.823  0.00  0.00    +0.000 A 
ATOM      8  C   UNL     1       2.305   4.818  20.861  0.00  0.00    +0.000 A 
ATOM      9  N   UNL     1       3.447   5.246  20.293  0.00  0.00    +0.000 NA
ENDBRANCH   2   4
BRANCH   3  10
ATOM     10  C   UNL     1       4.783   5.298  16.755  0.00  0.00    +0.000 C 
ATOM     11  C   UNL     1       5.255   6.031  15.461  0.00  0.00    +0.000 C 
ATOM     12  C   UNL     1       6.511   5.399  14.869  0.00  0.00    +0.000 C 
ATOM     13  C   UNL     1       6.221   3.978  14.411  0.00  0.00    +0.000 C 
ATOM     14  C   UNL     1       5.564   3.139  15.492  0.00  0.00    +0.000 C 
ATOM     15  C   UNL     1       4.408   3.865  16.234  0.00  0.00    +0.000 C 
BRANCH  10  16
ATOM     16  C   UNL     1       3.439   5.943  17.306  0.00  0.00    +0.000 C 
ATOM     17  O   UNL     1       2.398   5.291  17.427  0.00  0.00    +0.000 OA
ATOM     18  N   UNL     1       3.511   7.277  17.701  0.00  0.00    +0.000 N 
ATOM     19  H   UNL     1       4.399   7.758  17.655  0.00  0.00    +0.000 HD
BRANCH  18  20
ATOM     20  C   UNL     1       2.310   8.025  18.038  0.00  0.00    +0.000 C 
ATOM     21  C   UNL     1       2.118   8.103  19.546  0.00  0.00    +0.000 C 
ATOM     22  C   UNL     1       1.091   9.209  19.727  0.00  0.00    +0.000 C 
ATOM     23  C   UNL     1       1.310  10.173  18.561  0.00  0.00    +0.000 C 
ATOM     24  C   UNL     1       2.326   9.501  17.632  0.00  0.00    +0.000 C 
ENDBRANCH  18  20
ENDBRANCH  10  16
ENDBRANCH   3  10
BRANCH   3  25
ATOM     25  C   UNL     1       7.207   5.729  17.614  0.00  0.00    +0.000 C 
BRANCH  25  26
ATOM     26  C   UNL     1       7.443   7.195  17.833  0.00  0.00    +0.000 A 
ATOM     27  C   UNL     1       6.889   8.367  17.359  0.00  0.00    +0.000 A 
ATOM     28  C   UNL     1       7.667   9.434  17.866  0.00  0.00    +0.000 A 
ATOM     29  C   UNL     1       8.619   8.854  18.673  0.00  0.00    +0.000 A 
ATOM     30  O   UNL     1       8.492   7.503  18.660  0.00  0.00    +0.000 OA
ENDBRANCH  25  26
ENDBRANCH   3  25
TORSDOF 6
ENDMDL
MODEL 3
REMARK VINA RESULT:      -5.9      7.103     10.159
REMARK  Name = 
REMARK  6 active torsions:
REMARK  status: ('A' for Active; 'I' for Inactive)
REMARK    1  A    between atoms: C_2  and  C_3
REMARK    2  A    between atoms: N_9  and  C_10
REMARK    3  A    between atoms: N_9  and  C_16
REMARK    4  A    between atoms: C_10  and  C_11
REMARK    5  A    between atoms: C_16  and  C_17
REMARK    6  A    between atoms: N_19  and  C_20
REMARK                            x       y       z     vdW  Elec       q    Type
REMARK                         _______ _______ _______ _____ _____    ______ ____
ROOT
ATOM      1  O   UNL     1       7.451  12.746  16.859  0.00  0.00    +0.000 OA
ATOM      2  C   UNL     1       8.030  13.301  17.794  0.00  0.00    +0.000 C 
ATOM      3  N   UNL     1       7.611  14.563  18.256  0.00  0.00    +0.000 N 
ENDROOT
BRANCH   2   4
ATOM      4  C   UNL     1       9.214  12.568  18.359  0.00  0.00    +0.000 A 
ATOM      5  C   UNL     1      10.401  12.539  17.602  0.00  0.00    +0.000 A 
ATOM      6  C   UNL     1      11.525  11.982  18.197  0.00  0.00    +0.000 A 
ATOM      7  C   UNL     1      11.466  11.461  19.473  0.00  0.00    +0.000 A 
ATOM      8  C   UNL     1      10.241  11.458  20.122  0.00  0.00    +0.000 A 
ATOM      9  N   UNL     1       9.134  11.991  19.573  0.00  0.00    +0.000 NA
ENDBRANCH   2   4
BRANCH   3  10
ATOM     10  C   UNL     1       8.175  15.292  19.466  0.00  0.00    +0.000 C 
ATOM     11  C   UNL     1       9.734  15.306  19.537  0.00  0.00    +0.000 C 
ATOM     12  C   UNL     1      10.359  15.965  18.312  0.00  0.00    +0.000 C 
ATOM     13  C   UNL     1       9.973  17.433  18.247  0.00  0.00    +0.000 C 
ATOM     14  C   UNL     1       8.475  17.649  18.363  0.00  0.00    +0.000 C 
ATOM     15  C   UNL     1       7.806  16.818  19.491  0.00  0.00    +0.000 C 
BRANCH  10  16
ATOM     16  C   UNL     1       7.560  14.657  20.786  0.00  0.00    +0.000 C 
ATOM     17  O   UNL     1       6.345  14.644  21.005  0.00  0.00    +0.000 OA
ATOM     18  N   UNL     1       8.462  14.062  21.666  0.00  0.00    +0.000 N 
ATOM     19  H   UNL     1       9.442  14.029  21.419  0.00  0.00    +0.000 HD
BRANCH  18  20
ATOM     20  C   UNL     1       8.043  13.623  22.987  0.00  0.00    +0.000 C 
ATOM     21  C   UNL     1       8.667  12.281  23.341  0.00  0.00    +0.000 C 
ATOM     22  C   UNL     1       8.460  12.166  24.843  0.00  0.00    +0.000 C 
ATOM     23  C   UNL     1       8.477  13.599  25.374  0.00  0.00    +0.000 C 
ATOM     24  C   UNL     1       8.500  14.514  24.145  0.00  0.00    +0.000 C 
ENDBRANCH  18  20
ENDBRANCH  10  16
ENDBRANCH   3  10
BRANCH   3  25
ATOM     25  C   UNL     1       6.478  15.147  17.492  0.00  0.00    +0.000 C 
BRANCH  25  26
ATOM     26  C   UNL     1       5.126  14.943  18.111  0.00  0.00    +0.000 A 
ATOM     27  C   UNL     1       4.250  13.885  18.245  0.00  0.00    +0.000 A 
ATOM     28  C   UNL     1       3.065  14.392  18.827  0.00  0.00    +0.000 A 
ATOM     29  C   UNL     1       3.308  15.725  19.071  0.00  0.00    +0.000 A 
ATOM     30  O   UNL     1       4.549  16.067  18.643  0.00  0.00    +0.000 OA
ENDBRANCH  25  26
ENDBRANCH   3  25
TORSDOF 6
ENDMDL
MODEL 4
REMARK VINA RESULT:      -5.8      2.313      4.990
REMARK  Name = 
REMARK  6 active torsions:
REMARK  status: ('A' for Active; 'I' for Inactive)
REMARK    1  A    between atoms: C_2  and  C_3
REMARK    2  A    between atoms: N_9  and  C_10
REMARK    3  A    between atoms: N_9  and  C_16
REMARK    4  A    between atoms: C_10  and  C_11
REMARK    5  A    between atoms: C_16  and  C_17
REMARK    6  A    between atoms: N_19  and  C_20
REMARK                            x       y       z     vdW  Elec       q    Type
REMARK                         _______ _______ _______ _____ _____    ______ ____
ROOT
ATOM      1  O   UNL     1      -0.476  11.853  23.318  0.00  0.00    +0.000 OA
ATOM      2  C   UNL     1      -1.164  12.488  22.517  0.00  0.00    +0.000 C 
ATOM      3  N   UNL     1      -0.680  12.794  21.232  0.00  0.00    +0.000 N 
ENDROOT
BRANCH   2   4
ATOM      4  C   UNL     1      -2.507  12.938  23.021  0.00  0.00    +0.000 A 
ATOM      5  C   UNL     1      -2.556  14.055  23.877  0.00  0.00    +0.000 A 
ATOM      6  C   UNL     1      -3.809  14.544  24.218  0.00  0.00    +0.000 A 
ATOM      7  C   UNL     1      -4.957  13.938  23.749  0.00  0.00    +0.000 A 
ATOM      8  C   UNL     1      -4.824  12.796  22.976  0.00  0.00    +0.000 A 
ATOM      9  N   UNL     1      -3.624  12.299  22.627  0.00  0.00    +0.000 NA
ENDBRANCH   2   4
BRANCH   3  10
ATOM     10  C   UNL     1      -1.475  13.472  20.127  0.00  0.00    +0.000 C 
ATOM     11  C   UNL     1      -2.172  14.799  20.561  0.00  0.00    +0.000 C 
ATOM     12  C   UNL     1      -1.172  15.835  21.064  0.00  0.00    +0.000 C 
ATOM     13  C   UNL     1      -0.234  16.252  19.943  0.00  0.00    +0.000 C 
ATOM     14  C   UNL     1       0.409  15.065  19.248  0.00  0.00    +0.000 C 
ATOM     15  C   UNL     1      -0.584  13.920  18.914  0.00  0.00    +0.000 C 
BRANCH  10  16
ATOM     16  C   UNL     1      -2.540  12.443  19.550  0.00  0.00    +0.000 C 
ATOM     17  O   UNL     1      -2.225  11.306  19.186  0.00  0.00    +0.000 OA
ATOM     18  N   UNL     1      -3.865  12.873  19.525  0.00  0.00    +0.000 N 
ATOM     19  H   UNL     1      -4.095  13.784  19.897  0.00  0.00    +0.000 HD
BRANCH  18  20
ATOM     20  C   UNL     1      -4.891  12.099  18.845  0.00  0.00    +0.000 C 
ATOM     21  C   UNL     1      -5.922  11.570  19.833  0.00  0.00    +0.000 C 
ATOM     22  C   UNL     1      -7.088  11.147  18.954  0.00  0.00    +0.000 C 
ATOM     23  C   UNL     1      -7.053  12.079  17.742  0.00  0.00    +0.000 C 
ATOM     24  C   UNL     1      -5.757  12.888  17.858  0.00  0.00    +0.000 C 
ENDBRANCH  18  20
ENDBRANCH  10  16
ENDBRANCH   3  10
BRANCH   3  25
ATOM     25  C   UNL     1       0.710  12.333  20.978  0.00  0.00    +0.000 C 
BRANCH  25  26
ATOM     26  C   UNL     1       0.824  10.938  20.436  0.00  0.00    +0.000 A 
ATOM     27  C   UNL     1       0.787   9.665  20.968  0.00  0.00    +0.000 A 
ATOM     28  C   UNL     1       1.094   8.764  19.922  0.00  0.00    +0.000 A 
ATOM     29  C   UNL     1       1.243   9.536  18.793  0.00  0.00    +0.000 A 
ATOM     30  O   UNL     1       1.081  10.849  19.092  0.00  0.00    +0.000 OA
ENDBRANCH  25  26
ENDBRANCH   3  25
TORSDOF 6
ENDMDL
MODEL 5
REMARK VINA RESULT:      -5.6      2.111      4.982
REMARK  Name = 
REMARK  6 active torsions:
REMARK  status: ('A' for Active; 'I' for Inactive)
REMARK    1  A    between atoms: C_2  and  C_3
REMARK    2  A    between atoms: N_9  and  C_10
REMARK    3  A    between atoms: N_9  and  C_16
REMARK    4  A    between atoms: C_10  and  C_11
REMARK    5  A    between atoms: C_16  and  C_17
REMARK    6  A    between atoms: N_19  and  C_20
REMARK                            x       y       z     vdW  Elec       q    Type
REMARK                         _______ _______ _______ _____ _____    ______ ____
ROOT
ATOM      1  O   UNL     1      -0.004  11.244  22.619  0.00  0.00    +0.000 OA
ATOM      2  C   UNL     1      -0.327  11.856  21.600  0.00  0.00    +0.000 C 
ATOM      3  N   UNL     1      -1.540  12.566  21.537  0.00  0.00    +0.000 N 
ENDROOT
BRANCH   2   4
ATOM      4  C   UNL     1       0.628  11.752  20.444  0.00  0.00    +0.000 A 
ATOM      5  C   UNL     1       0.633  10.563  19.689  0.00  0.00    +0.000 A 
ATOM      6  C   UNL     1       1.415  10.536  18.544  0.00  0.00    +0.000 A 
ATOM      7  C   UNL     1       2.172  11.631  18.177  0.00  0.00    +0.000 A 
ATOM      8  C   UNL     1       2.173  12.735  19.014  0.00  0.00    +0.000 A 
ATOM      9  N   UNL     1       1.425  12.791  20.131  0.00  0.00    +0.000 NA
ENDBRANCH   2   4
BRANCH   3  10
ATOM     10  C   UNL     1      -1.991  13.444  20.379  0.00  0.00    +0.000 C 
ATOM     11  C   UNL     1      -2.002  12.724  18.996  0.00  0.00    +0.000 C 
ATOM     12  C   UNL     1      -2.919  11.505  18.989  0.00  0.00    +0.000 C 
ATOM     13  C   UNL     1      -4.363  11.929  19.203  0.00  0.00    +0.000 C 
ATOM     14  C   UNL     1      -4.535  12.821  20.420  0.00  0.00    +0.000 C 
ATOM     15  C   UNL     1      -3.471  13.946  20.529  0.00  0.00    +0.000 C 
BRANCH  10  16
ATOM     16  C   UNL     1      -1.077  14.743  20.328  0.00  0.00    +0.000 C 
ATOM     17  O   UNL     1      -0.717  15.334  21.351  0.00  0.00    +0.000 OA
ATOM     18  N   UNL     1      -0.653  15.152  19.066  0.00  0.00    +0.000 N 
ATOM     19  H   UNL     1      -0.910  14.601  18.257  0.00  0.00    +0.000 HD
BRANCH  18  20
ATOM     20  C   UNL     1       0.021  16.426  18.878  0.00  0.00    +0.000 C 
ATOM     21  C   UNL     1       1.455  16.222  18.409  0.00  0.00    +0.000 C 
ATOM     22  C   UNL     1       1.870  17.592  17.895  0.00  0.00    +0.000 C 
ATOM     23  C   UNL     1       0.589  18.244  17.374  0.00  0.00    +0.000 C 
ATOM     24  C   UNL     1      -0.561  17.316  17.775  0.00  0.00    +0.000 C 
ENDBRANCH  18  20
ENDBRANCH  10  16
ENDBRANCH   3  10
BRANCH   3  25
ATOM     25  C   UNL     1      -2.375  12.457  22.762  0.00  0.00    +0.000 C 
BRANCH  25  26
ATOM     26  C   UNL     1      -2.333  13.655  23.665  0.00  0.00    +0.000 A 
ATOM     27  C   UNL     1      -3.252  14.568  24.139  0.00  0.00    +0.000 A 
ATOM     28  C   UNL     1      -2.534  15.551  24.859  0.00  0.00    +0.000 A 
ATOM     29  C   UNL     1      -1.219  15.148  24.835  0.00  0.00    +0.000 A 
ATOM     30  O   UNL     1      -1.087  14.004  24.118  0.00  0.00    +0.000 OA
ENDBRANCH  25  26
ENDBRANCH   3  25
TORSDOF 6
ENDMDL
MODEL 6
REMARK VINA RESULT:      -5.6      1.704      5.107
REMARK  Name = 
REMARK  6 active torsions:
REMARK  status: ('A' for Active; 'I' for Inactive)
REMARK    1  A    between atoms: C_2  and  C_3
REMARK    2  A    between atoms: N_9  and  C_10
REMARK    3  A    between atoms: N_9  and  C_16
REMARK    4  A    between atoms: C_10  and  C_11
REMARK    5  A    between atoms: C_16  and  C_17
REMARK    6  A    between atoms: N_19  and  C_20
REMARK                            x       y       z     vdW  Elec       q    Type
REMARK                         _______ _______ _______ _____ _____    ______ ____
ROOT
ATOM      1  O   UNL     1      -0.956  13.363  17.684  0.00  0.00    +0.000 OA
ATOM      2  C   UNL     1      -0.418  13.177  18.777  0.00  0.00    +0.000 C 
ATOM      3  N   UNL     1      -1.115  12.555  19.829  0.00  0.00    +0.000 N 
ENDROOT
BRANCH   2   4
ATOM      4  C   UNL     1       0.987  13.694  18.910  0.00  0.00    +0.000 A 
ATOM      5  C   UNL     1       2.024  12.969  18.291  0.00  0.00    +0.000 A 
ATOM      6  C   UNL     1       3.292  13.532  18.301  0.00  0.00    +0.000 A 
ATOM      7  C   UNL     1       3.523  14.746  18.916  0.00  0.00    +0.000 A 
ATOM      8  C   UNL     1       2.466  15.358  19.571  0.00  0.00    +0.000 A 
ATOM      9  N   UNL     1       1.225  14.838  19.577  0.00  0.00    +0.000 NA
ENDBRANCH   2   4
BRANCH   3  10
ATOM     10  C   UNL     1      -0.522  12.176  21.178  0.00  0.00    +0.000 C 
ATOM     11  C   UNL     1      -0.072  13.392  22.045  0.00  0.00    +0.000 C 
ATOM     12  C   UNL     1      -1.226  14.347  22.338  0.00  0.00    +0.000 C 
ATOM     13  C   UNL     1      -2.282  13.654  23.182  0.00  0.00    +0.000 C 
ATOM     14  C   UNL     1      -2.720  12.324  22.594  0.00  0.00    +0.000 C 
ATOM     15  C   UNL     1      -1.544  11.434  22.111  0.00  0.00    +0.000 C 
BRANCH  10  16
ATOM     16  C   UNL     1       0.689  11.173  20.947  0.00  0.00    +0.000 C 
ATOM     17  O   UNL     1       1.748  11.265  21.576  0.00  0.00    +0.000 OA
ATOM     18  N   UNL     1       0.475  10.144  20.033  0.00  0.00    +0.000 N 
ATOM     19  H   UNL     1      -0.430  10.059  19.590  0.00  0.00    +0.000 HD
BRANCH  18  20
ATOM     20  C   UNL     1       1.567   9.287  19.599  0.00  0.00    +0.000 C 
ATOM     21  C   UNL     1       1.534   7.950  20.325  0.00  0.00    +0.000 C 
ATOM     22  C   UNL     1       2.454   7.064  19.500  0.00  0.00    +0.000 C 
ATOM     23  C   UNL     1       2.346   7.577  18.064  0.00  0.00    +0.000 C 
ATOM     24  C   UNL     1       1.518   8.864  18.128  0.00  0.00    +0.000 C 
ENDBRANCH  18  20
ENDBRANCH  10  16
ENDBRANCH   3  10
BRANCH   3  25
ATOM     25  C   UNL     1      -2.524  12.209  19.507  0.00  0.00    +0.000 C 
BRANCH  25  26
ATOM     26  C   UNL     1      -2.695  11.253  18.363  0.00  0.00    +0.000 A 
ATOM     27  C   UNL     1      -2.124  10.056  17.981  0.00  0.00    +0.000 A 
ATOM     28  C   UNL     1      -2.644   9.730  16.707  0.00  0.00    +0.000 A 
ATOM     29  C   UNL     1      -3.553  10.720  16.409  0.00  0.00    +0.000 A 
ATOM     30  O   UNL     1      -3.591  11.643  17.401  0.00  0.00    +0.000 OA
ENDBRANCH  25  26
ENDBRANCH   3  25
TORSDOF 6
ENDMDL
MODEL 7
REMARK VINA RESULT:      -5.6      6.821     10.252
REMARK  Name = 
REMARK  6 active torsions:
REMARK  status: ('A' for Active; 'I' for Inactive)
REMARK    1  A    between atoms: C_2  and  C_3
REMARK    2  A    between atoms: N_9  and  C_10
REMARK    3  A    between atoms: N_9  and  C_16
REMARK    4  A    between atoms: C_10  and  C_11
REMARK    5  A    between atoms: C_16  and  C_17
REMARK    6  A    between atoms: N_19  and  C_20
REMARK                            x       y       z     vdW  Elec       q    Type
REMARK                         _______ _______ _______ _____ _____    ______ ____
ROOT
ATOM      1  O   UNL     1       4.261   2.241  17.345  0.00  0.00    +0.000 OA
ATOM      2  C   UNL     1       4.221   3.351  17.879  0.00  0.00    +0.000 C 
ATOM      3  N   UNL     1       5.190   4.328  17.588  0.00  0.00    +0.000 N 
ENDROOT
BRANCH   2   4
ATOM      4  C   UNL     1       3.112   3.559  18.873  0.00  0.00    +0.000 A 
ATOM      5  C   UNL     1       1.783   3.478  18.413  0.00  0.00    +0.000 A 
ATOM      6  C   UNL     1       0.774   3.531  19.364  0.00  0.00    +0.000 A 
ATOM      7  C   UNL     1       1.071   3.678  20.704  0.00  0.00    +0.000 A 
ATOM      8  C   UNL     1       2.400   3.828  21.066  0.00  0.00    +0.000 A 
ATOM      9  N   UNL     1       3.401   3.780  20.168  0.00  0.00    +0.000 NA
ENDBRANCH   2   4
BRANCH   3  10
ATOM     10  C   UNL     1       5.180   5.761  18.098  0.00  0.00    +0.000 C 
ATOM     11  C   UNL     1       5.768   5.934  19.533  0.00  0.00    +0.000 C 
ATOM     12  C   UNL     1       7.215   5.459  19.623  0.00  0.00    +0.000 C 
ATOM     13  C   UNL     1       8.108   6.319  18.744  0.00  0.00    +0.000 C 
ATOM     14  C   UNL     1       7.589   6.439  17.323  0.00  0.00    +0.000 C 
ATOM     15  C   UNL     1       6.066   6.727  17.234  0.00  0.00    +0.000 C 
BRANCH  10  16
ATOM     16  C   UNL     1       3.696   6.325  18.029  0.00  0.00    +0.000 C 
ATOM     17  O   UNL     1       3.016   6.260  17.001  0.00  0.00    +0.000 OA
ATOM     18  N   UNL     1       3.178   6.852  19.210  0.00  0.00    +0.000 N 
ATOM     19  H   UNL     1       3.740   6.823  20.050  0.00  0.00    +0.000 HD
BRANCH  18  20
ATOM     20  C   UNL     1       1.913   7.567  19.221  0.00  0.00    +0.000 C 
ATOM     21  C   UNL     1       1.554   8.022  20.628  0.00  0.00    +0.000 C 
ATOM     22  C   UNL     1       0.460   9.056  20.411  0.00  0.00    +0.000 C 
ATOM     23  C   UNL     1       0.758   9.695  19.054  0.00  0.00    +0.000 C 
ATOM     24  C   UNL     1       1.901   8.883  18.437  0.00  0.00    +0.000 C 
ENDBRANCH  18  20
ENDBRANCH  10  16
ENDBRANCH   3  10
BRANCH   3  25
ATOM     25  C   UNL     1       6.249   3.876  16.648  0.00  0.00    +0.000 C 
BRANCH  25  26
ATOM     26  C   UNL     1       5.913   4.036  15.193  0.00  0.00    +0.000 A 
ATOM     27  C   UNL     1       4.756   4.184  14.457  0.00  0.00    +0.000 A 
ATOM     28  C   UNL     1       5.120   4.150  13.091  0.00  0.00    +0.000 A 
ATOM     29  C   UNL     1       6.492   4.043  13.071  0.00  0.00    +0.000 A 
ATOM     30  O   UNL     1       6.980   3.974  14.335  0.00  0.00    +0.000 OA
ENDBRANCH  25  26
ENDBRANCH   3  25
TORSDOF 6
ENDMDL
MODEL 8
REMARK VINA RESULT:      -5.5      7.251     10.288
REMARK  Name = 
REMARK  6 active torsions:
REMARK  status: ('A' for Active; 'I' for Inactive)
REMARK    1  A    between atoms: C_2  and  C_3
REMARK    2  A    between atoms: N_9  and  C_10
REMARK    3  A    between atoms: N_9  and  C_16
REMARK    4  A    between atoms: C_10  and  C_11
REMARK    5  A    between atoms: C_16  and  C_17
REMARK    6  A    between atoms: N_19  and  C_20
REMARK                            x       y       z     vdW  Elec       q    Type
REMARK                         _______ _______ _______ _____ _____    ______ ____
ROOT
ATOM      1  O   UNL     1       7.584  13.154  17.254  0.00  0.00    +0.000 OA
ATOM      2  C   UNL     1       8.398  13.738  17.971  0.00  0.00    +0.000 C 
ATOM      3  N   UNL     1       8.167  15.058  18.401  0.00  0.00    +0.000 N 
ENDROOT
BRANCH   2   4
ATOM      4  C   UNL     1       9.645  12.968  18.305  0.00  0.00    +0.000 A 
ATOM      5  C   UNL     1       9.591  12.043  19.366  0.00  0.00    +0.000 A 
ATOM      6  C   UNL     1      10.704  11.240  19.571  0.00  0.00    +0.000 A 
ATOM      7  C   UNL     1      11.824  11.365  18.774  0.00  0.00    +0.000 A 
ATOM      8  C   UNL     1      11.826  12.352  17.801  0.00  0.00    +0.000 A 
ATOM      9  N   UNL     1      10.763  13.145  17.577  0.00  0.00    +0.000 NA
ENDBRANCH   2   4
BRANCH   3  10
ATOM     10  C   UNL     1       9.042  15.836  19.372  0.00  0.00    +0.000 C 
ATOM     11  C   UNL     1      10.512  16.036  18.891  0.00  0.00    +0.000 C 
ATOM     12  C   UNL     1      10.586  16.779  17.560  0.00  0.00    +0.000 C 
ATOM     13  C   UNL     1      10.045  18.191  17.714  0.00  0.00    +0.000 C 
ATOM     14  C   UNL     1       8.672  18.224  18.361  0.00  0.00    +0.000 C 
ATOM     15  C   UNL     1       8.543  17.306  19.606  0.00  0.00    +0.000 C 
BRANCH  10  16
ATOM     16  C   UNL     1       9.009  15.117  20.789  0.00  0.00    +0.000 C 
ATOM     17  O   UNL     1      10.031  14.935  21.458  0.00  0.00    +0.000 OA
ATOM     18  N   UNL     1       7.753  14.748  21.266  0.00  0.00    +0.000 N 
ATOM     19  H   UNL     1       6.932  14.978  20.722  0.00  0.00    +0.000 HD
BRANCH  18  20
ATOM     20  C   UNL     1       7.615  13.917  22.451  0.00  0.00    +0.000 C 
ATOM     21  C   UNL     1       6.153  13.597  22.728  0.00  0.00    +0.000 C 
ATOM     22  C   UNL     1       6.212  12.442  23.715  0.00  0.00    +0.000 C 
ATOM     23  C   UNL     1       7.497  11.681  23.386  0.00  0.00    +0.000 C 
ATOM     24  C   UNL     1       8.243  12.524  22.346  0.00  0.00    +0.000 C 
ENDBRANCH  18  20
ENDBRANCH  10  16
ENDBRANCH   3  10
BRANCH   3  25
ATOM     25  C   UNL     1       6.914  15.660  17.875  0.00  0.00    +0.000 C 
BRANCH  25  26
ATOM     26  C   UNL     1       5.662  15.238  18.587  0.00  0.00    +0.000 A 
ATOM     27  C   UNL     1       4.569  14.453  18.281  0.00  0.00    +0.000 A 
ATOM     28  C   UNL     1       3.658  14.565  19.357  0.00  0.00    +0.000 A 
ATOM     29  C   UNL     1       4.275  15.369  20.288  0.00  0.00    +0.000 A 
ATOM     30  O   UNL     1       5.485  15.779  19.834  0.00  0.00    +0.000 OA
ENDBRANCH  25  26
ENDBRANCH   3  25
TORSDOF 6
ENDMDL
MODEL 9
REMARK VINA RESULT:      -5.5      1.012      1.231
REMARK  Name = 
REMARK  6 active torsions:
REMARK  status: ('A' for Active; 'I' for Inactive)
REMARK    1  A    between atoms: C_2  and  C_3
REMARK    2  A    between atoms: N_9  and  C_10
REMARK    3  A    between atoms: N_9  and  C_16
REMARK    4  A    between atoms: C_10  and  C_11
REMARK    5  A    between atoms: C_16  and  C_17
REMARK    6  A    between atoms: N_19  and  C_20
REMARK                            x       y       z     vdW  Elec       q    Type
REMARK                         _______ _______ _______ _____ _____    ______ ____
ROOT
ATOM      1  O   UNL     1       2.712  13.276  20.666  0.00  0.00    +0.000 OA
ATOM      2  C   UNL     1       1.566  12.860  20.490  0.00  0.00    +0.000 C 
ATOM      3  N   UNL     1       0.453  13.597  20.935  0.00  0.00    +0.000 N 
ENDROOT
BRANCH   2   4
ATOM      4  C   UNL     1       1.452  11.519  19.820  0.00  0.00    +0.000 A 
ATOM      5  C   UNL     1       1.904  11.398  18.492  0.00  0.00    +0.000 A 
ATOM      6  C   UNL     1       1.924  10.127  17.937  0.00  0.00    +0.000 A 
ATOM      7  C   UNL     1       1.497   9.031  18.660  0.00  0.00    +0.000 A 
ATOM      8  C   UNL     1       0.994   9.245  19.933  0.00  0.00    +0.000 A 
ATOM      9  N   UNL     1       0.962  10.465  20.499  0.00  0.00    +0.000 NA
ENDBRANCH   2   4
BRANCH   3  10
ATOM     10  C   UNL     1      -1.003  13.240  20.677  0.00  0.00    +0.000 C 
ATOM     11  C   UNL     1      -1.531  12.046  21.533  0.00  0.00    +0.000 C 
ATOM     12  C   UNL     1      -1.416  12.317  23.030  0.00  0.00    +0.000 C 
ATOM     13  C   UNL     1      -2.304  13.484  23.425  0.00  0.00    +0.000 C 
ATOM     14  C   UNL     1      -2.076  14.711  22.561  0.00  0.00    +0.000 C 
ATOM     15  C   UNL     1      -1.995  14.402  21.041  0.00  0.00    +0.000 C 
BRANCH  10  16
ATOM     16  C   UNL     1      -1.199  12.948  19.127  0.00  0.00    +0.000 C 
ATOM     17  O   UNL     1      -0.770  13.711  18.256  0.00  0.00    +0.000 OA
ATOM     18  N   UNL     1      -1.835  11.753  18.798  0.00  0.00    +0.000 N 
ATOM     19  H   UNL     1      -2.109  11.121  19.538  0.00  0.00    +0.000 HD
BRANCH  18  20
ATOM     20  C   UNL     1      -2.239  11.471  17.430  0.00  0.00    +0.000 C 
ATOM     21  C   UNL     1      -1.890  10.042  17.040  0.00  0.00    +0.000 C 
ATOM     22  C   UNL     1      -2.707   9.797  15.781  0.00  0.00    +0.000 C 
ATOM     23  C   UNL     1      -3.961  10.658  15.927  0.00  0.00    +0.000 C 
ATOM     24  C   UNL     1      -3.748  11.524  17.173  0.00  0.00    +0.000 C 
ENDBRANCH  18  20
ENDBRANCH  10  16
ENDBRANCH   3  10
BRANCH   3  25
ATOM     25  C   UNL     1       0.799  14.850  21.655  0.00  0.00    +0.000 C 
BRANCH  25  26
ATOM     26  C   UNL     1       1.168  16.006  20.771  0.00  0.00    +0.000 A 
ATOM     27  C   UNL     1       0.634  16.599  19.645  0.00  0.00    +0.000 A 
ATOM     28  C   UNL     1       1.552  17.585  19.214  0.00  0.00    +0.000 A 
ATOM     29  C   UNL     1       2.571  17.578  20.139  0.00  0.00    +0.000 A 
ATOM     30  O   UNL     1       2.349  16.629  21.083  0.00  0.00    +0.000 OA
ENDBRANCH  25  26
ENDBRANCH   3  25
TORSDOF 6
ENDMDL
