MODEL 1
REMARK VINA RESULT:      -8.2      0.000      0.000
REMARK  Name = 
REMARK  3 active torsions:
REMARK  status: ('A' for Active; 'I' for Inactive)
REMARK    1  A    between atoms: C_7  and  C_8
REMARK    2  A    between atoms: N_12  and  C_13
REMARK    3  A    between atoms: C_13  and  C_14
REMARK                            x       y       z     vdW  Elec       q    Type
REMARK                         _______ _______ _______ _____ _____    ______ ____
ROOT
ATOM      1  C   UNL     1       2.280   8.078  18.609  0.00  0.00    +0.000 C 
ATOM      2  N   UNL     1       2.093   9.113  17.855  0.00  0.00    +0.000 NA
ATOM      3  N   UNL     1       1.336  10.199  18.243  0.00  0.00    +0.000 NA
ATOM      4  C   UNL     1       0.687  10.291  19.356  0.00  0.00    +0.000 C 
ATOM      5  N   UNL     1      -0.091  11.369  19.677  0.00  0.00    +0.000 N 
ATOM      6  S   UNL     1       0.650   9.108  20.619  0.00  0.00    +0.000 S 
ATOM      7  C   UNL     1       1.781   7.882  20.009  0.00  0.00    +0.000 C 
ATOM      8  H   UNL     1      -0.609  11.277  20.541  0.00  0.00    +0.000 HD
ENDROOT
BRANCH   1  15
ATOM      9  O   UNL     1       7.740   4.435  15.653  0.00  0.00    +0.000 OA
ATOM     10  C   UNL     1       6.699   4.827  16.149  0.00  0.00    +0.000 A 
ATOM     11  N   UNL     1       5.657   4.035  16.653  0.00  0.00    +0.000 N 
ATOM     12  C   UNL     1       4.663   4.868  17.155  0.00  0.00    +0.000 A 
ATOM     13  C   UNL     1       3.479   4.554  17.774  0.00  0.00    +0.000 A 
ATOM     14  C   UNL     1       2.701   5.632  18.220  0.00  0.00    +0.000 A 
ATOM     15  C   UNL     1       3.119   6.977  18.029  0.00  0.00    +0.000 A 
ATOM     16  C   UNL     1       4.327   7.264  17.378  0.00  0.00    +0.000 A 
ATOM     17  C   UNL     1       5.073   6.187  16.959  0.00  0.00    +0.000 A 
ATOM     18  N   UNL     1       6.315   6.163  16.335  0.00  0.00    +0.000 N 
ATOM     19  H   UNL     1       5.679   3.029  16.668  0.00  0.00    +0.000 HD
ATOM     20  H   UNL     1       6.890   6.948  16.078  0.00  0.00    +0.000 HD
ENDBRANCH   1  15
BRANCH   5  21
ATOM     21  C   UNL     1      -0.685  12.229  18.680  0.00  0.00    +0.000 C 
BRANCH  21  22
ATOM     22  C   UNL     1      -2.127  11.828  18.456  0.00  0.00    +0.000 A 
ATOM     23  C   UNL     1      -3.138  12.294  19.312  0.00  0.00    +0.000 A 
ATOM     24  C   UNL     1      -4.469  11.916  19.107  0.00  0.00    +0.000 A 
ATOM     25  C   UNL     1      -4.786  11.070  18.050  0.00  0.00    +0.000 A 
ATOM     26  F   UNL     1      -6.062  10.713  17.854  0.00  0.00    +0.000 F 
ATOM     27  C   UNL     1      -3.799  10.584  17.200  0.00  0.00    +0.000 A 
ATOM     28  C   UNL     1      -2.469  10.959  17.405  0.00  0.00    +0.000 A 
ENDBRANCH  21  22
ENDBRANCH   5  21
TORSDOF 3
ENDMDL
MODEL 2
REMARK VINA RESULT:      -8.1      1.032      1.457
REMARK  Name = 
REMARK  3 active torsions:
REMARK  status: ('A' for Active; 'I' for Inactive)
REMARK    1  A    between atoms: C_7  and  C_8
REMARK    2  A    between atoms: N_12  and  C_13
REMARK    3  A    between atoms: C_13  and  C_14
REMARK                            x       y       z     vdW  Elec       q    Type
REMARK                         _______ _______ _______ _____ _____    ______ ____
ROOT
ATOM      1  C   UNL     1       2.112   7.902  18.977  0.00  0.00    +0.000 C 
ATOM      2  N   UNL     1       1.732   8.571  17.937  0.00  0.00    +0.000 NA
ATOM      3  N   UNL     1       0.795   9.582  17.992  0.00  0.00    +0.000 NA
ATOM      4  C   UNL     1       0.151   9.938  19.055  0.00  0.00    +0.000 C 
ATOM      5  N   UNL     1      -0.806  10.915  19.053  0.00  0.00    +0.000 N 
ATOM      6  S   UNL     1       0.342   9.267  20.639  0.00  0.00    +0.000 S 
ATOM      7  C   UNL     1       1.670   8.114  20.394  0.00  0.00    +0.000 C 
ATOM      8  H   UNL     1      -1.290  11.037  19.932  0.00  0.00    +0.000 HD
ENDROOT
BRANCH   1  15
ATOM      9  O   UNL     1       7.897   4.323  16.626  0.00  0.00    +0.000 OA
ATOM     10  C   UNL     1       6.867   4.712  17.145  0.00  0.00    +0.000 A 
ATOM     11  N   UNL     1       6.159   4.085  18.181  0.00  0.00    +0.000 N 
ATOM     12  C   UNL     1       5.054   4.866  18.505  0.00  0.00    +0.000 A 
ATOM     13  C   UNL     1       4.095   4.681  19.468  0.00  0.00    +0.000 A 
ATOM     14  C   UNL     1       3.123   5.684  19.585  0.00  0.00    +0.000 A 
ATOM     15  C   UNL     1       3.130   6.826  18.739  0.00  0.00    +0.000 A 
ATOM     16  C   UNL     1       4.114   6.977  17.752  0.00  0.00    +0.000 A 
ATOM     17  C   UNL     1       5.060   5.981  17.667  0.00  0.00    +0.000 A 
ATOM     18  N   UNL     1       6.165   5.883  16.828  0.00  0.00    +0.000 N 
ATOM     19  H   UNL     1       6.454   3.229  18.620  0.00  0.00    +0.000 HD
ATOM     20  H   UNL     1       6.464   6.539  16.126  0.00  0.00    +0.000 HD
ENDBRANCH   1  15
BRANCH   5  21
ATOM     21  C   UNL     1      -1.556  11.271  17.871  0.00  0.00    +0.000 C 
BRANCH  21  22
ATOM     22  C   UNL     1      -3.010  11.481  18.235  0.00  0.00    +0.000 A 
ATOM     23  C   UNL     1      -4.031  10.962  17.421  0.00  0.00    +0.000 A 
ATOM     24  C   UNL     1      -5.374  11.164  17.756  0.00  0.00    +0.000 A 
ATOM     25  C   UNL     1      -5.694  11.886  18.900  0.00  0.00    +0.000 A 
ATOM     26  F   UNL     1      -6.981  12.073  19.220  0.00  0.00    +0.000 F 
ATOM     27  C   UNL     1      -4.699  12.421  19.711  0.00  0.00    +0.000 A 
ATOM     28  C   UNL     1      -3.358  12.222  19.377  0.00  0.00    +0.000 A 
ENDBRANCH  21  22
ENDBRANCH   5  21
TORSDOF 3
ENDMDL
MODEL 3
REMARK VINA RESULT:      -8.1      5.123      9.685
REMARK  Name = 
REMARK  3 active torsions:
REMARK  status: ('A' for Active; 'I' for Inactive)
REMARK    1  A    between atoms: C_7  and  C_8
REMARK    2  A    between atoms: N_12  and  C_13
REMARK    3  A    between atoms: C_13  and  C_14
REMARK                            x       y       z     vdW  Elec       q    Type
REMARK                         _______ _______ _______ _____ _____    ______ ____
ROOT
ATOM      1  C   UNL     1       2.891   6.669  18.511  0.00  0.00    +0.000 C 
ATOM      2  N   UNL     1       3.880   7.026  17.756  0.00  0.00    +0.000 NA
ATOM      3  N   UNL     1       4.728   6.123  17.149  0.00  0.00    +0.000 NA
ATOM      4  C   UNL     1       4.680   4.841  17.304  0.00  0.00    +0.000 C 
ATOM      5  N   UNL     1       5.574   3.987  16.721  0.00  0.00    +0.000 N 
ATOM      6  S   UNL     1       3.531   3.970  18.262  0.00  0.00    +0.000 S 
ATOM      7  C   UNL     1       2.458   5.268  18.823  0.00  0.00    +0.000 C 
ATOM      8  H   UNL     1       5.474   3.018  16.991  0.00  0.00    +0.000 HD
ENDROOT
BRANCH   1  15
ATOM      9  O   UNL     1      -0.485  10.962  23.200  0.00  0.00    +0.000 OA
ATOM     10  C   UNL     1      -0.006  10.396  22.234  0.00  0.00    +0.000 A 
ATOM     11  N   UNL     1       0.083  10.895  20.926  0.00  0.00    +0.000 N 
ATOM     12  C   UNL     1       0.721   9.951  20.129  0.00  0.00    +0.000 A 
ATOM     13  C   UNL     1       1.062  10.003  18.801  0.00  0.00    +0.000 A 
ATOM     14  C   UNL     1       1.753   8.897  18.288  0.00  0.00    +0.000 A 
ATOM     15  C   UNL     1       2.074   7.779  19.104  0.00  0.00    +0.000 A 
ATOM     16  C   UNL     1       1.696   7.748  20.453  0.00  0.00    +0.000 A 
ATOM     17  C   UNL     1       1.026   8.851  20.931  0.00  0.00    +0.000 A 
ATOM     18  N   UNL     1       0.574   9.119  22.218  0.00  0.00    +0.000 N 
ATOM     19  H   UNL     1      -0.238  11.809  20.655  0.00  0.00    +0.000 HD
ATOM     20  H   UNL     1       0.661   8.538  23.035  0.00  0.00    +0.000 HD
ENDBRANCH   1  15
BRANCH   5  21
ATOM     21  C   UNL     1       6.906   4.394  16.334  0.00  0.00    +0.000 C 
BRANCH  21  22
ATOM     22  C   UNL     1       6.999   4.461  14.825  0.00  0.00    +0.000 A 
ATOM     23  C   UNL     1       7.891   5.351  14.205  0.00  0.00    +0.000 A 
ATOM     24  C   UNL     1       7.970   5.417  12.810  0.00  0.00    +0.000 A 
ATOM     25  C   UNL     1       7.156   4.595  12.038  0.00  0.00    +0.000 A 
ATOM     26  F   UNL     1       7.238   4.657  10.703  0.00  0.00    +0.000 F 
ATOM     27  C   UNL     1       6.255   3.718  12.632  0.00  0.00    +0.000 A 
ATOM     28  C   UNL     1       6.174   3.653  14.024  0.00  0.00    +0.000 A 
ENDBRANCH  21  22
ENDBRANCH   5  21
TORSDOF 3
ENDMDL
MODEL 4
REMARK VINA RESULT:      -8.0      1.642      2.195
REMARK  Name = 
REMARK  3 active torsions:
REMARK  status: ('A' for Active; 'I' for Inactive)
REMARK    1  A    between atoms: C_7  and  C_8
REMARK    2  A    between atoms: N_12  and  C_13
REMARK    3  A    between atoms: C_13  and  C_14
REMARK                            x       y       z     vdW  Elec       q    Type
REMARK                         _______ _______ _______ _____ _____    ______ ____
ROOT
ATOM      1  C   UNL     1       2.044   7.948  19.178  0.00  0.00    +0.000 C 
ATOM      2  N   UNL     1       1.949   8.867  18.271  0.00  0.00    +0.000 NA
ATOM      3  N   UNL     1       1.325  10.078  18.489  0.00  0.00    +0.000 NA
ATOM      4  C   UNL     1       0.721  10.415  19.580  0.00  0.00    +0.000 C 
ATOM      5  N   UNL     1       0.073  11.609  19.734  0.00  0.00    +0.000 N 
ATOM      6  S   UNL     1       0.590   9.455  21.015  0.00  0.00    +0.000 S 
ATOM      7  C   UNL     1       1.565   8.031  20.596  0.00  0.00    +0.000 C 
ATOM      8  H   UNL     1      -0.428  11.712  20.606  0.00  0.00    +0.000 HD
ENDROOT
BRANCH   1  15
ATOM      9  O   UNL     1       3.781   1.005  18.413  0.00  0.00    +0.000 OA
ATOM     10  C   UNL     1       3.690   2.219  18.396  0.00  0.00    +0.000 A 
ATOM     11  N   UNL     1       4.372   3.102  17.545  0.00  0.00    +0.000 N 
ATOM     12  C   UNL     1       3.966   4.401  17.829  0.00  0.00    +0.000 A 
ATOM     13  C   UNL     1       4.328   5.586  17.240  0.00  0.00    +0.000 A 
ATOM     14  C   UNL     1       3.698   6.742  17.722  0.00  0.00    +0.000 A 
ATOM     15  C   UNL     1       2.742   6.684  18.772  0.00  0.00    +0.000 A 
ATOM     16  C   UNL     1       2.407   5.458  19.365  0.00  0.00    +0.000 A 
ATOM     17  C   UNL     1       3.035   4.340  18.865  0.00  0.00    +0.000 A 
ATOM     18  N   UNL     1       2.872   3.005  19.219  0.00  0.00    +0.000 N 
ATOM     19  H   UNL     1       5.014   2.803  16.830  0.00  0.00    +0.000 HD
ATOM     20  H   UNL     1       2.254   2.624  19.917  0.00  0.00    +0.000 HD
ENDBRANCH   1  15
BRANCH   5  21
ATOM     21  C   UNL     1      -0.452  12.363  18.618  0.00  0.00    +0.000 C 
BRANCH  21  22
ATOM     22  C   UNL     1      -1.884  11.951  18.355  0.00  0.00    +0.000 A 
ATOM     23  C   UNL     1      -2.899  12.272  19.272  0.00  0.00    +0.000 A 
ATOM     24  C   UNL     1      -4.220  11.885  19.031  0.00  0.00    +0.000 A 
ATOM     25  C   UNL     1      -4.525  11.174  17.875  0.00  0.00    +0.000 A 
ATOM     26  F   UNL     1      -5.793  10.808  17.645  0.00  0.00    +0.000 F 
ATOM     27  C   UNL     1      -3.535  10.832  16.962  0.00  0.00    +0.000 A 
ATOM     28  C   UNL     1      -2.214  11.217  17.203  0.00  0.00    +0.000 A 
ENDBRANCH  21  22
ENDBRANCH   5  21
TORSDOF 3
ENDMDL
MODEL 5
REMARK VINA RESULT:      -8.0      3.031      3.457
REMARK  Name = 
REMARK  3 active torsions:
REMARK  status: ('A' for Active; 'I' for Inactive)
REMARK    1  A    between atoms: C_7  and  C_8
REMARK    2  A    between atoms: N_12  and  C_13
REMARK    3  A    between atoms: C_13  and  C_14
REMARK                            x       y       z     vdW  Elec       q    Type
REMARK                         _______ _______ _______ _____ _____    ______ ____
ROOT
ATOM      1  C   UNL     1       2.189   7.915  18.722  0.00  0.00    +0.000 C 
ATOM      2  N   UNL     1       1.852   7.776  19.963  0.00  0.00    +0.000 NA
ATOM      3  N   UNL     1       1.033   8.667  20.625  0.00  0.00    +0.000 NA
ATOM      4  C   UNL     1       0.561   9.757  20.117  0.00  0.00    +0.000 C 
ATOM      5  N   UNL     1      -0.208  10.637  20.828  0.00  0.00    +0.000 N 
ATOM      6  S   UNL     1       0.809  10.324  18.500  0.00  0.00    +0.000 S 
ATOM      7  C   UNL     1       1.739   8.992  17.782  0.00  0.00    +0.000 C 
ATOM      8  H   UNL     1      -0.443  11.489  20.337  0.00  0.00    +0.000 HD
ENDROOT
BRANCH   1  15
ATOM      9  O   UNL     1       7.819   4.609  15.690  0.00  0.00    +0.000 OA
ATOM     10  C   UNL     1       6.770   4.934  16.216  0.00  0.00    +0.000 A 
ATOM     11  N   UNL     1       5.828   4.083  16.812  0.00  0.00    +0.000 N 
ATOM     12  C   UNL     1       4.786   4.851  17.319  0.00  0.00    +0.000 A 
ATOM     13  C   UNL     1       3.664   4.470  18.011  0.00  0.00    +0.000 A 
ATOM     14  C   UNL     1       2.813   5.498  18.438  0.00  0.00    +0.000 A 
ATOM     15  C   UNL     1       3.098   6.862  18.159  0.00  0.00    +0.000 A 
ATOM     16  C   UNL     1       4.244   7.217  17.434  0.00  0.00    +0.000 A 
ATOM     17  C   UNL     1       5.065   6.188  17.035  0.00  0.00    +0.000 A 
ATOM     18  N   UNL     1       6.276   6.239  16.352  0.00  0.00    +0.000 N 
ATOM     19  H   UNL     1       5.942   3.085  16.877  0.00  0.00    +0.000 HD
ATOM     20  H   UNL     1       6.765   7.056  16.026  0.00  0.00    +0.000 HD
ENDBRANCH   1  15
BRANCH   5  21
ATOM     21  C   UNL     1      -0.149  10.741  22.268  0.00  0.00    +0.000 C 
BRANCH  21  22
ATOM     22  C   UNL     1      -1.044  11.868  22.734  0.00  0.00    +0.000 A 
ATOM     23  C   UNL     1      -2.316  11.597  23.265  0.00  0.00    +0.000 A 
ATOM     24  C   UNL     1      -3.144  12.642  23.688  0.00  0.00    +0.000 A 
ATOM     25  C   UNL     1      -2.701  13.955  23.577  0.00  0.00    +0.000 A 
ATOM     26  F   UNL     1      -3.494  14.953  23.988  0.00  0.00    +0.000 F 
ATOM     27  C   UNL     1      -1.452  14.247  23.041  0.00  0.00    +0.000 A 
ATOM     28  C   UNL     1      -0.625  13.205  22.616  0.00  0.00    +0.000 A 
ENDBRANCH  21  22
ENDBRANCH   5  21
TORSDOF 3
ENDMDL
MODEL 6
REMARK VINA RESULT:      -8.0      3.084      3.505
REMARK  Name = 
REMARK  3 active torsions:
REMARK  status: ('A' for Active; 'I' for Inactive)
REMARK    1  A    between atoms: C_7  and  C_8
REMARK    2  A    between atoms: N_12  and  C_13
REMARK    3  A    between atoms: C_13  and  C_14
REMARK                            x       y       z     vdW  Elec       q    Type
REMARK                         _______ _______ _______ _____ _____    ______ ____
ROOT
ATOM      1  C   UNL     1       2.216   7.850  18.968  0.00  0.00    +0.000 C 
ATOM      2  N   UNL     1       1.847   7.733  20.203  0.00  0.00    +0.000 NA
ATOM      3  N   UNL     1       0.963   8.600  20.810  0.00  0.00    +0.000 NA
ATOM      4  C   UNL     1       0.452   9.648  20.253  0.00  0.00    +0.000 C 
ATOM      5  N   UNL     1      -0.383  10.508  20.910  0.00  0.00    +0.000 N 
ATOM      6  S   UNL     1       0.722  10.175  18.626  0.00  0.00    +0.000 S 
ATOM      7  C   UNL     1       1.741   8.872  17.980  0.00  0.00    +0.000 C 
ATOM      8  H   UNL     1      -0.645  11.331  20.385  0.00  0.00    +0.000 HD
ENDROOT
BRANCH   1  15
ATOM      9  O   UNL     1       7.646   4.684  15.460  0.00  0.00    +0.000 OA
ATOM     10  C   UNL     1       6.693   4.989  16.153  0.00  0.00    +0.000 A 
ATOM     11  N   UNL     1       6.123   4.227  17.183  0.00  0.00    +0.000 N 
ATOM     12  C   UNL     1       5.071   4.944  17.742  0.00  0.00    +0.000 A 
ATOM     13  C   UNL     1       4.244   4.624  18.790  0.00  0.00    +0.000 A 
ATOM     14  C   UNL     1       3.296   5.589  19.156  0.00  0.00    +0.000 A 
ATOM     15  C   UNL     1       3.195   6.829  18.467  0.00  0.00    +0.000 A 
ATOM     16  C   UNL     1       4.042   7.117  17.389  0.00  0.00    +0.000 A 
ATOM     17  C   UNL     1       4.969   6.155  17.058  0.00  0.00    +0.000 A 
ATOM     18  N   UNL     1       5.956   6.180  16.079  0.00  0.00    +0.000 N 
ATOM     19  H   UNL     1       6.472   3.328  17.470  0.00  0.00    +0.000 HD
ATOM     20  H   UNL     1       6.162   6.923  15.432  0.00  0.00    +0.000 HD
ENDBRANCH   1  15
BRANCH   5  21
ATOM     21  C   UNL     1      -0.375  10.660  22.347  0.00  0.00    +0.000 C 
BRANCH  21  22
ATOM     22  C   UNL     1      -1.178  11.883  22.735  0.00  0.00    +0.000 A 
ATOM     23  C   UNL     1      -0.656  13.172  22.535  0.00  0.00    +0.000 A 
ATOM     24  C   UNL     1      -1.397  14.300  22.901  0.00  0.00    +0.000 A 
ATOM     25  C   UNL     1      -2.656  14.138  23.468  0.00  0.00    +0.000 A 
ATOM     26  F   UNL     1      -3.365  15.221  23.812  0.00  0.00    +0.000 F 
ATOM     27  C   UNL     1      -3.185  12.872  23.688  0.00  0.00    +0.000 A 
ATOM     28  C   UNL     1      -2.446  11.744  23.326  0.00  0.00    +0.000 A 
ENDBRANCH  21  22
ENDBRANCH   5  21
TORSDOF 3
ENDMDL
MODEL 7
REMARK VINA RESULT:      -7.9      0.908      1.054
REMARK  Name = 
REMARK  3 active torsions:
REMARK  status: ('A' for Active; 'I' for Inactive)
REMARK    1  A    between atoms: C_7  and  C_8
REMARK    2  A    between atoms: N_12  and  C_13
REMARK    3  A    between atoms: C_13  and  C_14
REMARK                            x       y       z     vdW  Elec       q    Type
REMARK                         _______ _______ _______ _____ _____    ______ ____
ROOT
ATOM      1  C   UNL     1       2.238   7.942  18.791  0.00  0.00    +0.000 C 
ATOM      2  N   UNL     1       1.865   8.760  17.860  0.00  0.00    +0.000 NA
ATOM      3  N   UNL     1       0.949   9.770  18.067  0.00  0.00    +0.000 NA
ATOM      4  C   UNL     1       0.319   9.983  19.176  0.00  0.00    +0.000 C 
ATOM      5  N   UNL     1      -0.619  10.967  19.322  0.00  0.00    +0.000 N 
ATOM      6  S   UNL     1       0.507   9.089  20.647  0.00  0.00    +0.000 S 
ATOM      7  C   UNL     1       1.810   7.958  20.227  0.00  0.00    +0.000 C 
ATOM      8  H   UNL     1      -1.094  10.972  20.214  0.00  0.00    +0.000 HD
ENDROOT
BRANCH   1  15
ATOM      9  O   UNL     1       7.822   4.582  15.735  0.00  0.00    +0.000 OA
ATOM     10  C   UNL     1       6.836   4.925  16.360  0.00  0.00    +0.000 A 
ATOM     11  N   UNL     1       6.206   4.216  17.394  0.00  0.00    +0.000 N 
ATOM     12  C   UNL     1       5.131   4.964  17.860  0.00  0.00    +0.000 A 
ATOM     13  C   UNL     1       4.247   4.700  18.877  0.00  0.00    +0.000 A 
ATOM     14  C   UNL     1       3.288   5.687  19.144  0.00  0.00    +0.000 A 
ATOM     15  C   UNL     1       3.234   6.892  18.393  0.00  0.00    +0.000 A 
ATOM     16  C   UNL     1       4.140   7.124  17.349  0.00  0.00    +0.000 A 
ATOM     17  C   UNL     1       5.075   6.142  17.115  0.00  0.00    +0.000 A 
ATOM     18  N   UNL     1       6.113   6.114  16.190  0.00  0.00    +0.000 N 
ATOM     19  H   UNL     1       6.532   3.330  17.741  0.00  0.00    +0.000 HD
ATOM     20  H   UNL     1       6.360   6.825  15.520  0.00  0.00    +0.000 HD
ENDBRANCH   1  15
BRANCH   5  21
ATOM     21  C   UNL     1      -1.370  11.502  18.209  0.00  0.00    +0.000 C 
BRANCH  21  22
ATOM     22  C   UNL     1      -2.796  11.767  18.639  0.00  0.00    +0.000 A 
ATOM     23  C   UNL     1      -3.066  12.448  19.837  0.00  0.00    +0.000 A 
ATOM     24  C   UNL     1      -4.385  12.685  20.236  0.00  0.00    +0.000 A 
ATOM     25  C   UNL     1      -5.432  12.239  19.438  0.00  0.00    +0.000 A 
ATOM     26  F   UNL     1      -6.695  12.473  19.821  0.00  0.00    +0.000 F 
ATOM     27  C   UNL     1      -5.189  11.550  18.256  0.00  0.00    +0.000 A 
ATOM     28  C   UNL     1      -3.872  11.310  17.858  0.00  0.00    +0.000 A 
ENDBRANCH  21  22
ENDBRANCH   5  21
TORSDOF 3
ENDMDL
MODEL 8
REMARK VINA RESULT:      -7.9      2.478      2.962
REMARK  Name = 
REMARK  3 active torsions:
REMARK  status: ('A' for Active; 'I' for Inactive)
REMARK    1  A    between atoms: C_7  and  C_8
REMARK    2  A    between atoms: N_12  and  C_13
REMARK    3  A    between atoms: C_13  and  C_14
REMARK                            x       y       z     vdW  Elec       q    Type
REMARK                         _______ _______ _______ _____ _____    ______ ____
ROOT
ATOM      1  C   UNL     1       2.215   7.834  19.046  0.00  0.00    +0.000 C 
ATOM      2  N   UNL     1       1.831   7.955  20.276  0.00  0.00    +0.000 NA
ATOM      3  N   UNL     1       0.914   8.899  20.689  0.00  0.00    +0.000 NA
ATOM      4  C   UNL     1       0.382   9.798  19.928  0.00  0.00    +0.000 C 
ATOM      5  N   UNL     1      -0.487  10.746  20.393  0.00  0.00    +0.000 N 
ATOM      6  S   UNL     1       0.660   9.997  18.231  0.00  0.00    +0.000 S 
ATOM      7  C   UNL     1       1.726   8.623  17.869  0.00  0.00    +0.000 C 
ATOM      8  H   UNL     1      -0.765  11.439  19.710  0.00  0.00    +0.000 HD
ENDROOT
BRANCH   1  15
ATOM      9  O   UNL     1       7.966   4.309  16.534  0.00  0.00    +0.000 OA
ATOM     10  C   UNL     1       6.944   4.686  17.076  0.00  0.00    +0.000 A 
ATOM     11  N   UNL     1       6.248   4.035  18.105  0.00  0.00    +0.000 N 
ATOM     12  C   UNL     1       5.148   4.809  18.462  0.00  0.00    +0.000 A 
ATOM     13  C   UNL     1       4.202   4.601  19.434  0.00  0.00    +0.000 A 
ATOM     14  C   UNL     1       3.232   5.601  19.587  0.00  0.00    +0.000 A 
ATOM     15  C   UNL     1       3.229   6.764  18.769  0.00  0.00    +0.000 A 
ATOM     16  C   UNL     1       4.200   6.937  17.773  0.00  0.00    +0.000 A 
ATOM     17  C   UNL     1       5.144   5.944  17.652  0.00  0.00    +0.000 A 
ATOM     18  N   UNL     1       6.238   5.865  16.797  0.00  0.00    +0.000 N 
ATOM     19  H   UNL     1       6.548   3.169  18.520  0.00  0.00    +0.000 HD
ATOM     20  H   UNL     1       6.529   6.538  16.106  0.00  0.00    +0.000 HD
ENDBRANCH   1  15
BRANCH   5  21
ATOM     21  C   UNL     1      -0.505  11.182  21.770  0.00  0.00    +0.000 C 
BRANCH  21  22
ATOM     22  C   UNL     1      -1.811  11.888  22.064  0.00  0.00    +0.000 A 
ATOM     23  C   UNL     1      -2.470  12.615  21.059  0.00  0.00    +0.000 A 
ATOM     24  C   UNL     1      -3.673  13.273  21.335  0.00  0.00    +0.000 A 
ATOM     25  C   UNL     1      -4.213  13.205  22.615  0.00  0.00    +0.000 A 
ATOM     26  F   UNL     1      -5.368  13.832  22.874  0.00  0.00    +0.000 F 
ATOM     27  C   UNL     1      -3.569  12.504  23.628  0.00  0.00    +0.000 A 
ATOM     28  C   UNL     1      -2.367  11.848  23.354  0.00  0.00    +0.000 A 
ENDBRANCH  21  22
ENDBRANCH   5  21
TORSDOF 3
ENDMDL
MODEL 9
REMARK VINA RESULT:      -7.9      5.076      9.322
REMARK  Name = 
REMARK  3 active torsions:
REMARK  status: ('A' for Active; 'I' for Inactive)
REMARK    1  A    between atoms: C_7  and  C_8
REMARK    2  A    between atoms: N_12  and  C_13
REMARK    3  A    between atoms: C_13  and  C_14
REMARK                            x       y       z     vdW  Elec       q    Type
REMARK                         _______ _______ _______ _____ _____    ______ ____
ROOT
ATOM      1  C   UNL     1       2.428   6.690  19.316  0.00  0.00    +0.000 C 
ATOM      2  N   UNL     1       3.114   6.849  18.230  0.00  0.00    +0.000 NA
ATOM      3  N   UNL     1       3.896   5.855  17.681  0.00  0.00    +0.000 NA
ATOM      4  C   UNL     1       4.084   4.687  18.201  0.00  0.00    +0.000 C 
ATOM      5  N   UNL     1       4.908   3.748  17.646  0.00  0.00    +0.000 N 
ATOM      6  S   UNL     1       3.375   4.094  19.665  0.00  0.00    +0.000 S 
ATOM      7  C   UNL     1       2.308   5.436  20.128  0.00  0.00    +0.000 C 
ATOM      8  H   UNL     1       5.029   2.909  18.197  0.00  0.00    +0.000 HD
ENDROOT
BRANCH   1  15
ATOM      9  O   UNL     1      -1.105  11.376  23.484  0.00  0.00    +0.000 OA
ATOM     10  C   UNL     1      -0.566  10.745  22.593  0.00  0.00    +0.000 A 
ATOM     11  N   UNL     1      -0.286  11.195  21.294  0.00  0.00    +0.000 N 
ATOM     12  C   UNL     1       0.360  10.180  20.597  0.00  0.00    +0.000 A 
ATOM     13  C   UNL     1       0.854  10.164  19.317  0.00  0.00    +0.000 A 
ATOM     14  C   UNL     1       1.507   8.992  18.912  0.00  0.00    +0.000 A 
ATOM     15  C   UNL     1       1.640   7.878  19.784  0.00  0.00    +0.000 A 
ATOM     16  C   UNL     1       1.108   7.919  21.081  0.00  0.00    +0.000 A 
ATOM     17  C   UNL     1       0.480   9.085  21.453  0.00  0.00    +0.000 A 
ATOM     18  N   UNL     1      -0.094   9.427  22.672  0.00  0.00    +0.000 N 
ATOM     19  H   UNL     1      -0.499  12.123  20.967  0.00  0.00    +0.000 HD
ATOM     20  H   UNL     1      -0.148   8.866  23.506  0.00  0.00    +0.000 HD
ENDBRANCH   1  15
BRANCH   5  21
ATOM     21  C   UNL     1       6.012   4.092  16.779  0.00  0.00    +0.000 C 
BRANCH  21  22
ATOM     22  C   UNL     1       6.774   5.261  17.364  0.00  0.00    +0.000 A 
ATOM     23  C   UNL     1       6.867   6.475  16.662  0.00  0.00    +0.000 A 
ATOM     24  C   UNL     1       7.577   7.552  17.202  0.00  0.00    +0.000 A 
ATOM     25  C   UNL     1       8.196   7.413  18.439  0.00  0.00    +0.000 A 
ATOM     26  F   UNL     1       8.872   8.448  18.955  0.00  0.00    +0.000 F 
ATOM     27  C   UNL     1       8.130   6.216  19.143  0.00  0.00    +0.000 A 
ATOM     28  C   UNL     1       7.423   5.140  18.605  0.00  0.00    +0.000 A 
ENDBRANCH  21  22
ENDBRANCH   5  21
TORSDOF 3
ENDMDL
