MODEL 1
REMARK VINA RESULT:      -9.1      0.000      0.000
REMARK  Name = 
REMARK  9 active torsions:
REMARK  status: ('A' for Active; 'I' for Inactive)
REMARK    1  A    between atoms: C_1  and  O_2
REMARK    2  A    between atoms: O_2  and  C_3
REMARK    3  A    between atoms: C_5  and  C_6
REMARK    4  A    between atoms: C_6  and  O_7
REMARK    5  A    between atoms: C_12  and  O_13
REMARK    6  A    between atoms: C_16  and  N_17
REMARK    7  A    between atoms: C_24  and  C_25
REMARK    8  A    between atoms: C_30  and  O_31
REMARK    9  A    between atoms: O_31  and  C_32
REMARK                            x       y       z     vdW  Elec       q    Type
REMARK                         _______ _______ _______ _____ _____    ______ ____
ROOT
ATOM      1  C   UNL     1       2.549   6.212  19.537  0.00  0.00    +0.000 A 
ATOM      2  C   UNL     1       3.575   5.355  19.113  0.00  0.00    +0.000 A 
ATOM      3  C   UNL     1       4.449   5.680  18.061  0.00  0.00    +0.000 A 
ATOM      4  C   UNL     1       4.175   6.848  17.345  0.00  0.00    +0.000 A 
ATOM      5  C   UNL     1       3.119   7.686  17.725  0.00  0.00    +0.000 A 
ATOM      6  C   UNL     1       2.299   7.400  18.827  0.00  0.00    +0.000 A 
ENDROOT
BRANCH   6   7
ATOM      7  N   UNL     1       1.272   8.285  19.210  0.00  0.00    +0.000 N 
ATOM      8  C   UNL     1       1.173   9.620  18.863  0.00  0.00    +0.000 A 
ATOM      9  N   UNL     1       2.329  10.281  18.527  0.00  0.00    +0.000 NA
ATOM     10  C   UNL     1       2.301  11.562  18.362  0.00  0.00    +0.000 A 
ATOM     11  C   UNL     1       1.079  12.259  18.462  0.00  0.00    +0.000 A 
ATOM     12  C   UNL     1       0.763  13.593  18.433  0.00  0.00    +0.000 A 
ATOM     13  C   UNL     1      -0.637  13.665  18.592  0.00  0.00    +0.000 A 
ATOM     14  C   UNL     1      -1.157  12.371  18.619  0.00  0.00    +0.000 A 
ATOM     15  N   UNL     1      -0.048  11.520  18.662  0.00  0.00    +0.000 N 
ATOM     16  N   UNL     1      -0.009  10.183  18.914  0.00  0.00    +0.000 NA
ATOM     17  H   UNL     1       0.791   8.028  20.061  0.00  0.00    +0.000 HD
BRANCH  14  18
ATOM     18  C   UNL     1      -2.579  11.956  18.672  0.00  0.00    +0.000 A 
ATOM     19  C   UNL     1      -3.412  12.503  19.665  0.00  0.00    +0.000 A 
ATOM     20  C   UNL     1      -4.782  12.234  19.721  0.00  0.00    +0.000 A 
ATOM     21  C   UNL     1      -5.367  11.418  18.765  0.00  0.00    +0.000 A 
ATOM     22  C   UNL     1      -4.574  10.859  17.765  0.00  0.00    +0.000 A 
ATOM     23  C   UNL     1      -3.188  11.100  17.723  0.00  0.00    +0.000 A 
BRANCH  23  24
ATOM     24  O   UNL     1      -2.557  10.546  16.633  0.00  0.00    +0.000 OA
ATOM     25  C   UNL     1      -3.121  10.920  15.378  0.00  0.00    +0.000 C 
ENDBRANCH  23  24
ENDBRANCH  14  18
ENDBRANCH   6   7
BRANCH   3  26
ATOM     26  C   UNL     1       5.621   4.731  17.776  0.00  0.00    +0.000 C 
ATOM     27  C   UNL     1       5.686   4.146  16.352  0.00  0.00    +0.000 C 
ATOM     28  C   UNL     1       6.198   5.153  15.320  0.00  0.00    +0.000 C 
ATOM     29  N   UNL     1       7.485   5.728  15.708  0.00  0.00    +0.000 NA
ATOM     30  C   UNL     1       7.393   6.409  17.012  0.00  0.00    +0.000 C 
ATOM     31  C   UNL     1       6.996   5.409  18.108  0.00  0.00    +0.000 C 
ATOM     32  H   UNL     1       7.773   6.409  15.003  0.00  0.00    +0.000 HD
BRANCH  26  33
ATOM     33  O   UNL     1       5.427   3.623  18.680  0.00  0.00    +0.000 OA
ATOM     34  H   UNL     1       6.276   3.157  18.758  0.00  0.00    +0.000 HD
ENDBRANCH  26  33
BRANCH  31  35
ATOM     35  O   UNL     1       8.052   4.432  18.209  0.00  0.00    +0.000 OA
ATOM     36  H   UNL     1       7.970   3.884  17.403  0.00  0.00    +0.000 HD
ENDBRANCH  31  35
ENDBRANCH   3  26
BRANCH   1  38
ATOM     37  C   UNL     1       1.420   4.561  20.792  0.00  0.00    +0.000 C 
ATOM     38  O   UNL     1       1.768   5.943  20.640  0.00  0.00    +0.000 OA
ENDBRANCH   1  38
TORSDOF 7
ENDMDL
MODEL 2
REMARK VINA RESULT:      -9.1      2.784      9.920
REMARK  Name = 
REMARK  9 active torsions:
REMARK  status: ('A' for Active; 'I' for Inactive)
REMARK    1  A    between atoms: C_1  and  O_2
REMARK    2  A    between atoms: O_2  and  C_3
REMARK    3  A    between atoms: C_5  and  C_6
REMARK    4  A    between atoms: C_6  and  O_7
REMARK    5  A    between atoms: C_12  and  O_13
REMARK    6  A    between atoms: C_16  and  N_17
REMARK    7  A    between atoms: C_24  and  C_25
REMARK    8  A    between atoms: C_30  and  O_31
REMARK    9  A    between atoms: O_31  and  C_32
REMARK                            x       y       z     vdW  Elec       q    Type
REMARK                         _______ _______ _______ _____ _____    ______ ____
ROOT
ATOM      1  C   UNL     1       0.821   9.428  19.946  0.00  0.00    +0.000 A 
ATOM      2  C   UNL     1      -0.149  10.335  20.396  0.00  0.00    +0.000 A 
ATOM      3  C   UNL     1      -0.386  10.578  21.760  0.00  0.00    +0.000 A 
ATOM      4  C   UNL     1       0.296   9.774  22.676  0.00  0.00    +0.000 A 
ATOM      5  C   UNL     1       1.230   8.826  22.238  0.00  0.00    +0.000 A 
ATOM      6  C   UNL     1       1.523   8.643  20.878  0.00  0.00    +0.000 A 
ENDROOT
BRANCH   6   7
ATOM      7  N   UNL     1       2.499   7.712  20.471  0.00  0.00    +0.000 N 
ATOM      8  C   UNL     1       2.272   6.397  20.107  0.00  0.00    +0.000 A 
ATOM      9  N   UNL     1       1.142   5.785  20.593  0.00  0.00    +0.000 NA
ATOM     10  C   UNL     1       0.983   4.516  20.415  0.00  0.00    +0.000 A 
ATOM     11  C   UNL     1       1.933   3.784  19.671  0.00  0.00    +0.000 A 
ATOM     12  C   UNL     1       2.077   2.446  19.406  0.00  0.00    +0.000 A 
ATOM     13  C   UNL     1       3.233   2.331  18.607  0.00  0.00    +0.000 A 
ATOM     14  C   UNL     1       3.716   3.608  18.322  0.00  0.00    +0.000 A 
ATOM     15  N   UNL     1       2.955   4.482  19.104  0.00  0.00    +0.000 N 
ATOM     16  N   UNL     1       3.165   5.803  19.356  0.00  0.00    +0.000 NA
ATOM     17  H   UNL     1       3.433   7.908  20.805  0.00  0.00    +0.000 HD
BRANCH  14  18
ATOM     18  C   UNL     1       4.848   3.984  17.442  0.00  0.00    +0.000 A 
ATOM     19  C   UNL     1       4.661   3.971  16.047  0.00  0.00    +0.000 A 
ATOM     20  C   UNL     1       5.648   4.402  15.157  0.00  0.00    +0.000 A 
ATOM     21  C   UNL     1       6.855   4.881  15.641  0.00  0.00    +0.000 A 
ATOM     22  C   UNL     1       7.076   4.911  17.017  0.00  0.00    +0.000 A 
ATOM     23  C   UNL     1       6.098   4.447  17.916  0.00  0.00    +0.000 A 
BRANCH  23  24
ATOM     24  O   UNL     1       6.432   4.615  19.240  0.00  0.00    +0.000 OA
ATOM     25  C   UNL     1       7.406   5.631  19.473  0.00  0.00    +0.000 C 
ENDBRANCH  23  24
ENDBRANCH  14  18
ENDBRANCH   6   7
BRANCH   3  26
ATOM     26  C   UNL     1      -1.373  11.692  22.134  0.00  0.00    +0.000 C 
ATOM     27  C   UNL     1      -0.748  13.016  22.612  0.00  0.00    +0.000 C 
ATOM     28  C   UNL     1      -0.178  13.852  21.464  0.00  0.00    +0.000 C 
ATOM     29  N   UNL     1      -1.170  14.091  20.417  0.00  0.00    +0.000 NA
ATOM     30  C   UNL     1      -1.672  12.822  19.860  0.00  0.00    +0.000 C 
ATOM     31  C   UNL     1      -2.363  11.996  20.956  0.00  0.00    +0.000 C 
ATOM     32  H   UNL     1      -0.738  14.629  19.663  0.00  0.00    +0.000 HD
BRANCH  26  33
ATOM     33  O   UNL     1      -2.130  11.158  23.241  0.00  0.00    +0.000 OA
ATOM     34  H   UNL     1      -1.909  10.217  23.321  0.00  0.00    +0.000 HD
ENDBRANCH  26  33
BRANCH  31  35
ATOM     35  O   UNL     1      -3.506  12.747  21.411  0.00  0.00    +0.000 OA
ATOM     36  H   UNL     1      -3.439  12.747  22.387  0.00  0.00    +0.000 HD
ENDBRANCH  31  35
ENDBRANCH   3  26
BRANCH   1  38
ATOM     37  C   UNL     1       1.913  10.342  18.062  0.00  0.00    +0.000 C 
ATOM     38  O   UNL     1       1.130   9.275  18.612  0.00  0.00    +0.000 OA
ENDBRANCH   1  38
TORSDOF 7
ENDMDL
MODEL 3
REMARK VINA RESULT:      -8.7      2.757     10.037
REMARK  Name = 
REMARK  9 active torsions:
REMARK  status: ('A' for Active; 'I' for Inactive)
REMARK    1  A    between atoms: C_1  and  O_2
REMARK    2  A    between atoms: O_2  and  C_3
REMARK    3  A    between atoms: C_5  and  C_6
REMARK    4  A    between atoms: C_6  and  O_7
REMARK    5  A    between atoms: C_12  and  O_13
REMARK    6  A    between atoms: C_16  and  N_17
REMARK    7  A    between atoms: C_24  and  C_25
REMARK    8  A    between atoms: C_30  and  O_31
REMARK    9  A    between atoms: O_31  and  C_32
REMARK                            x       y       z     vdW  Elec       q    Type
REMARK                         _______ _______ _______ _____ _____    ______ ____
ROOT
ATOM      1  C   UNL     1       1.052  10.000  19.156  0.00  0.00    +0.000 A 
ATOM      2  C   UNL     1      -0.001  10.895  19.402  0.00  0.00    +0.000 A 
ATOM      3  C   UNL     1      -0.686  10.942  20.627  0.00  0.00    +0.000 A 
ATOM      4  C   UNL     1      -0.371   9.959  21.569  0.00  0.00    +0.000 A 
ATOM      5  C   UNL     1       0.642   9.025  21.315  0.00  0.00    +0.000 A 
ATOM      6  C   UNL     1       1.380   9.033  20.122  0.00  0.00    +0.000 A 
ENDROOT
BRANCH   6   7
ATOM      7  N   UNL     1       2.422   8.108  19.914  0.00  0.00    +0.000 N 
ATOM      8  C   UNL     1       2.293   6.733  19.852  0.00  0.00    +0.000 A 
ATOM      9  N   UNL     1       1.211   6.163  20.479  0.00  0.00    +0.000 NA
ATOM     10  C   UNL     1       1.147   4.877  20.588  0.00  0.00    +0.000 A 
ATOM     11  C   UNL     1       2.148   4.070  20.008  0.00  0.00    +0.000 A 
ATOM     12  C   UNL     1       2.391   2.721  20.041  0.00  0.00    +0.000 A 
ATOM     13  C   UNL     1       3.553   2.516  19.269  0.00  0.00    +0.000 A 
ATOM     14  C   UNL     1       3.940   3.730  18.701  0.00  0.00    +0.000 A 
ATOM     15  N   UNL     1       3.116   4.698  19.284  0.00  0.00    +0.000 N 
ATOM     16  N   UNL     1       3.228   6.053  19.236  0.00  0.00    +0.000 NA
ATOM     17  H   UNL     1       3.339   8.440  20.182  0.00  0.00    +0.000 HD
BRANCH  14  18
ATOM     18  C   UNL     1       5.041   3.983  17.742  0.00  0.00    +0.000 A 
ATOM     19  C   UNL     1       4.815   3.763  16.370  0.00  0.00    +0.000 A 
ATOM     20  C   UNL     1       5.770   4.068  15.398  0.00  0.00    +0.000 A 
ATOM     21  C   UNL     1       6.983   4.625  15.770  0.00  0.00    +0.000 A 
ATOM     22  C   UNL     1       7.243   4.859  17.119  0.00  0.00    +0.000 A 
ATOM     23  C   UNL     1       6.298   4.524  18.105  0.00  0.00    +0.000 A 
BRANCH  23  24
ATOM     24  O   UNL     1       6.667   4.888  19.379  0.00  0.00    +0.000 OA
ATOM     25  C   UNL     1       7.808   5.741  19.436  0.00  0.00    +0.000 C 
ENDBRANCH  23  24
ENDBRANCH  14  18
ENDBRANCH   6   7
BRANCH   3  26
ATOM     26  C   UNL     1      -1.724  12.052  20.833  0.00  0.00    +0.000 C 
ATOM     27  C   UNL     1      -2.332  12.158  22.245  0.00  0.00    +0.000 C 
ATOM     28  C   UNL     1      -1.380  12.806  23.253  0.00  0.00    +0.000 C 
ATOM     29  N   UNL     1      -0.899  14.108  22.793  0.00  0.00    +0.000 NA
ATOM     30  C   UNL     1      -0.195  13.989  21.503  0.00  0.00    +0.000 C 
ATOM     31  C   UNL     1      -1.148  13.454  20.424  0.00  0.00    +0.000 C 
ATOM     32  H   UNL     1      -0.250  14.488  23.485  0.00  0.00    +0.000 HD
BRANCH  26  33
ATOM     33  O   UNL     1      -2.803  11.722  19.932  0.00  0.00    +0.000 OA
ATOM     34  H   UNL     1      -3.637  11.883  20.402  0.00  0.00    +0.000 HD
ENDBRANCH  26  33
BRANCH  31  35
ATOM     35  O   UNL     1      -2.200  14.424  20.251  0.00  0.00    +0.000 OA
ATOM     36  H   UNL     1      -3.029  13.905  20.261  0.00  0.00    +0.000 HD
ENDBRANCH  31  35
ENDBRANCH   3  26
BRANCH   1  38
ATOM     37  C   UNL     1       2.479  11.272  17.769  0.00  0.00    +0.000 C 
ATOM     38  O   UNL     1       1.796  10.033  17.997  0.00  0.00    +0.000 OA
ENDBRANCH   1  38
TORSDOF 7
ENDMDL
MODEL 4
REMARK VINA RESULT:      -8.7      2.494      4.059
REMARK  Name = 
REMARK  9 active torsions:
REMARK  status: ('A' for Active; 'I' for Inactive)
REMARK    1  A    between atoms: C_1  and  O_2
REMARK    2  A    between atoms: O_2  and  C_3
REMARK    3  A    between atoms: C_5  and  C_6
REMARK    4  A    between atoms: C_6  and  O_7
REMARK    5  A    between atoms: C_12  and  O_13
REMARK    6  A    between atoms: C_16  and  N_17
REMARK    7  A    between atoms: C_24  and  C_25
REMARK    8  A    between atoms: C_30  and  O_31
REMARK    9  A    between atoms: O_31  and  C_32
REMARK                            x       y       z     vdW  Elec       q    Type
REMARK                         _______ _______ _______ _____ _____    ______ ____
ROOT
ATOM      1  C   UNL     1       1.361   8.250  19.930  0.00  0.00    +0.000 A 
ATOM      2  C   UNL     1       2.227   7.180  19.662  0.00  0.00    +0.000 A 
ATOM      3  C   UNL     1       3.012   7.112  18.498  0.00  0.00    +0.000 A 
ATOM      4  C   UNL     1       2.800   8.098  17.531  0.00  0.00    +0.000 A 
ATOM      5  C   UNL     1       1.897   9.143  17.763  0.00  0.00    +0.000 A 
ATOM      6  C   UNL     1       1.175   9.252  18.961  0.00  0.00    +0.000 A 
ENDROOT
BRANCH   6   7
ATOM      7  N   UNL     1       0.307  10.339  19.183  0.00  0.00    +0.000 N 
ATOM      8  C   UNL     1      -0.982  10.467  18.699  0.00  0.00    +0.000 A 
ATOM      9  N   UNL     1      -1.314   9.760  17.569  0.00  0.00    +0.000 NA
ATOM     10  C   UNL     1      -2.448   9.983  16.993  0.00  0.00    +0.000 A 
ATOM     11  C   UNL     1      -3.361  10.895  17.563  0.00  0.00    +0.000 A 
ATOM     12  C   UNL     1      -4.566  11.393  17.139  0.00  0.00    +0.000 A 
ATOM     13  C   UNL     1      -4.996  12.280  18.148  0.00  0.00    +0.000 A 
ATOM     14  C   UNL     1      -4.092  12.233  19.209  0.00  0.00    +0.000 A 
ATOM     15  N   UNL     1      -3.022  11.455  18.757  0.00  0.00    +0.000 N 
ATOM     16  N   UNL     1      -1.796  11.282  19.323  0.00  0.00    +0.000 NA
ATOM     17  H   UNL     1       0.771  11.211  19.398  0.00  0.00    +0.000 HD
BRANCH  14  18
ATOM     18  C   UNL     1      -4.183  12.917  20.521  0.00  0.00    +0.000 A 
ATOM     19  C   UNL     1      -3.300  13.978  20.799  0.00  0.00    +0.000 A 
ATOM     20  C   UNL     1      -3.386  14.731  21.972  0.00  0.00    +0.000 A 
ATOM     21  C   UNL     1      -4.378  14.457  22.901  0.00  0.00    +0.000 A 
ATOM     22  C   UNL     1      -5.271  13.414  22.660  0.00  0.00    +0.000 A 
ATOM     23  C   UNL     1      -5.169  12.631  21.495  0.00  0.00    +0.000 A 
BRANCH  23  24
ATOM     24  O   UNL     1      -6.169  11.696  21.362  0.00  0.00    +0.000 OA
ATOM     25  C   UNL     1      -7.484  12.214  21.548  0.00  0.00    +0.000 C 
ENDBRANCH  23  24
ENDBRANCH  14  18
ENDBRANCH   6   7
BRANCH   3  26
ATOM     26  C   UNL     1       4.027   5.968  18.377  0.00  0.00    +0.000 C 
ATOM     27  C   UNL     1       4.309   5.175  19.667  0.00  0.00    +0.000 C 
ATOM     28  C   UNL     1       3.187   4.196  20.020  0.00  0.00    +0.000 C 
ATOM     29  N   UNL     1       2.878   3.295  18.911  0.00  0.00    +0.000 NA
ATOM     30  C   UNL     1       2.473   4.049  17.710  0.00  0.00    +0.000 C 
ATOM     31  C   UNL     1       3.617   4.962  17.244  0.00  0.00    +0.000 C 
ATOM     32  H   UNL     1       2.109   2.680  19.184  0.00  0.00    +0.000 HD
BRANCH  26  33
ATOM     33  O   UNL     1       5.262   6.607  17.994  0.00  0.00    +0.000 OA
ATOM     34  H   UNL     1       5.117   7.036  17.135  0.00  0.00    +0.000 HD
ENDBRANCH  26  33
BRANCH  31  35
ATOM     35  O   UNL     1       4.723   4.117  16.868  0.00  0.00    +0.000 OA
ATOM     36  H   UNL     1       4.801   4.215  15.898  0.00  0.00    +0.000 HD
ENDBRANCH  31  35
ENDBRANCH   3  26
BRANCH   1  38
ATOM     37  C   UNL     1       1.407   9.053  22.150  0.00  0.00    +0.000 C 
ATOM     38  O   UNL     1       0.679   8.371  21.122  0.00  0.00    +0.000 OA
ENDBRANCH   1  38
TORSDOF 7
ENDMDL
MODEL 5
REMARK VINA RESULT:      -8.6      0.914      1.630
REMARK  Name = 
REMARK  9 active torsions:
REMARK  status: ('A' for Active; 'I' for Inactive)
REMARK    1  A    between atoms: C_1  and  O_2
REMARK    2  A    between atoms: O_2  and  C_3
REMARK    3  A    between atoms: C_5  and  C_6
REMARK    4  A    between atoms: C_6  and  O_7
REMARK    5  A    between atoms: C_12  and  O_13
REMARK    6  A    between atoms: C_16  and  N_17
REMARK    7  A    between atoms: C_24  and  C_25
REMARK    8  A    between atoms: C_30  and  O_31
REMARK    9  A    between atoms: O_31  and  C_32
REMARK                            x       y       z     vdW  Elec       q    Type
REMARK                         _______ _______ _______ _____ _____    ______ ____
ROOT
ATOM      1  C   UNL     1       2.543   6.250  19.454  0.00  0.00    +0.000 A 
ATOM      2  C   UNL     1       3.580   5.390  19.065  0.00  0.00    +0.000 A 
ATOM      3  C   UNL     1       4.486   5.708  18.038  0.00  0.00    +0.000 A 
ATOM      4  C   UNL     1       4.235   6.873  17.309  0.00  0.00    +0.000 A 
ATOM      5  C   UNL     1       3.170   7.715  17.653  0.00  0.00    +0.000 A 
ATOM      6  C   UNL     1       2.317   7.435  18.731  0.00  0.00    +0.000 A 
ENDROOT
BRANCH   6   7
ATOM      7  N   UNL     1       1.280   8.324  19.079  0.00  0.00    +0.000 N 
ATOM      8  C   UNL     1       1.218   9.669  18.764  0.00  0.00    +0.000 A 
ATOM      9  N   UNL     1       2.400  10.323  18.513  0.00  0.00    +0.000 NA
ATOM     10  C   UNL     1       2.397  11.608  18.383  0.00  0.00    +0.000 A 
ATOM     11  C   UNL     1       1.179  12.319  18.432  0.00  0.00    +0.000 A 
ATOM     12  C   UNL     1       0.882  13.658  18.421  0.00  0.00    +0.000 A 
ATOM     13  C   UNL     1      -0.523  13.744  18.501  0.00  0.00    +0.000 A 
ATOM     14  C   UNL     1      -1.060  12.457  18.462  0.00  0.00    +0.000 A 
ATOM     15  N   UNL     1       0.034  11.590  18.545  0.00  0.00    +0.000 N 
ATOM     16  N   UNL     1       0.042  10.247  18.762  0.00  0.00    +0.000 NA
ATOM     17  H   UNL     1       0.748   8.050  19.893  0.00  0.00    +0.000 HD
BRANCH  14  18
ATOM     18  C   UNL     1      -2.487  12.061  18.422  0.00  0.00    +0.000 A 
ATOM     19  C   UNL     1      -2.968  11.353  17.304  0.00  0.00    +0.000 A 
ATOM     20  C   UNL     1      -4.274  10.864  17.235  0.00  0.00    +0.000 A 
ATOM     21  C   UNL     1      -5.141  11.052  18.300  0.00  0.00    +0.000 A 
ATOM     22  C   UNL     1      -4.701  11.748  19.425  0.00  0.00    +0.000 A 
ATOM     23  C   UNL     1      -3.397  12.271  19.486  0.00  0.00    +0.000 A 
BRANCH  23  24
ATOM     24  O   UNL     1      -3.087  12.860  20.690  0.00  0.00    +0.000 OA
ATOM     25  C   UNL     1      -4.174  12.917  21.610  0.00  0.00    +0.000 C 
ENDBRANCH  23  24
ENDBRANCH  14  18
ENDBRANCH   6   7
BRANCH   3  26
ATOM     26  C   UNL     1       5.663   4.756  17.793  0.00  0.00    +0.000 C 
ATOM     27  C   UNL     1       5.741   4.122  16.391  0.00  0.00    +0.000 C 
ATOM     28  C   UNL     1       6.254   5.096  15.328  0.00  0.00    +0.000 C 
ATOM     29  N   UNL     1       7.536   5.690  15.704  0.00  0.00    +0.000 NA
ATOM     30  C   UNL     1       7.432   6.415  16.982  0.00  0.00    +0.000 C 
ATOM     31  C   UNL     1       7.034   5.451  18.110  0.00  0.00    +0.000 C 
ATOM     32  H   UNL     1       7.825   6.348  14.977  0.00  0.00    +0.000 HD
BRANCH  26  33
ATOM     33  O   UNL     1       5.470   3.678  18.734  0.00  0.00    +0.000 OA
ATOM     34  H   UNL     1       6.299   3.568  19.227  0.00  0.00    +0.000 HD
ENDBRANCH  26  33
BRANCH  31  35
ATOM     35  O   UNL     1       8.093   4.484  18.251  0.00  0.00    +0.000 OA
ATOM     36  H   UNL     1       7.643   3.616  18.288  0.00  0.00    +0.000 HD
ENDBRANCH  31  35
ENDBRANCH   3  26
BRANCH   1  38
ATOM     37  C   UNL     1       1.248   4.639  20.595  0.00  0.00    +0.000 C 
ATOM     38  O   UNL     1       1.728   5.988  20.534  0.00  0.00    +0.000 OA
ENDBRANCH   1  38
TORSDOF 7
ENDMDL
MODEL 6
REMARK VINA RESULT:      -8.4      2.090      3.367
REMARK  Name = 
REMARK  9 active torsions:
REMARK  status: ('A' for Active; 'I' for Inactive)
REMARK    1  A    between atoms: C_1  and  O_2
REMARK    2  A    between atoms: O_2  and  C_3
REMARK    3  A    between atoms: C_5  and  C_6
REMARK    4  A    between atoms: C_6  and  O_7
REMARK    5  A    between atoms: C_12  and  O_13
REMARK    6  A    between atoms: C_16  and  N_17
REMARK    7  A    between atoms: C_24  and  C_25
REMARK    8  A    between atoms: C_30  and  O_31
REMARK    9  A    between atoms: O_31  and  C_32
REMARK                            x       y       z     vdW  Elec       q    Type
REMARK                         _______ _______ _______ _____ _____    ______ ____
ROOT
ATOM      1  C   UNL     1       1.629   7.892  19.871  0.00  0.00    +0.000 A 
ATOM      2  C   UNL     1       2.438   6.786  19.568  0.00  0.00    +0.000 A 
ATOM      3  C   UNL     1       3.243   6.727  18.417  0.00  0.00    +0.000 A 
ATOM      4  C   UNL     1       3.109   7.768  17.495  0.00  0.00    +0.000 A 
ATOM      5  C   UNL     1       2.263   8.853  17.760  0.00  0.00    +0.000 A 
ATOM      6  C   UNL     1       1.523   8.947  18.948  0.00  0.00    +0.000 A 
ENDROOT
BRANCH   6   7
ATOM      7  N   UNL     1       0.715  10.072  19.205  0.00  0.00    +0.000 N 
ATOM      8  C   UNL     1      -0.579  10.267  18.759  0.00  0.00    +0.000 A 
ATOM      9  N   UNL     1      -0.976   9.590  17.631  0.00  0.00    +0.000 NA
ATOM     10  C   UNL     1      -2.113   9.874  17.089  0.00  0.00    +0.000 A 
ATOM     11  C   UNL     1      -2.966  10.822  17.694  0.00  0.00    +0.000 A 
ATOM     12  C   UNL     1      -4.156  11.382  17.309  0.00  0.00    +0.000 A 
ATOM     13  C   UNL     1      -4.516  12.277  18.339  0.00  0.00    +0.000 A 
ATOM     14  C   UNL     1      -3.586  12.173  19.374  0.00  0.00    +0.000 A 
ATOM     15  N   UNL     1      -2.567  11.351  18.884  0.00  0.00    +0.000 N 
ATOM     16  N   UNL     1      -1.336  11.113  19.413  0.00  0.00    +0.000 NA
ATOM     17  H   UNL     1       1.226  10.918  19.416  0.00  0.00    +0.000 HD
BRANCH  14  18
ATOM     18  C   UNL     1      -3.608  12.845  20.695  0.00  0.00    +0.000 A 
ATOM     19  C   UNL     1      -2.586  13.760  21.012  0.00  0.00    +0.000 A 
ATOM     20  C   UNL     1      -2.590  14.502  22.195  0.00  0.00    +0.000 A 
ATOM     21  C   UNL     1      -3.634  14.364  23.096  0.00  0.00    +0.000 A 
ATOM     22  C   UNL     1      -4.664  13.468  22.817  0.00  0.00    +0.000 A 
ATOM     23  C   UNL     1      -4.649  12.695  21.642  0.00  0.00    +0.000 A 
BRANCH  23  24
ATOM     24  O   UNL     1      -5.772  11.919  21.469  0.00  0.00    +0.000 OA
ATOM     25  C   UNL     1      -6.961  12.660  21.204  0.00  0.00    +0.000 C 
ENDBRANCH  23  24
ENDBRANCH  14  18
ENDBRANCH   6   7
BRANCH   3  26
ATOM     26  C   UNL     1       4.192   5.532  18.260  0.00  0.00    +0.000 C 
ATOM     27  C   UNL     1       4.322   4.955  16.837  0.00  0.00    +0.000 C 
ATOM     28  C   UNL     1       5.195   5.819  15.925  0.00  0.00    +0.000 C 
ATOM     29  N   UNL     1       6.511   6.074  16.507  0.00  0.00    +0.000 NA
ATOM     30  C   UNL     1       6.394   6.752  17.811  0.00  0.00    +0.000 C 
ATOM     31  C   UNL     1       5.625   5.867  18.804  0.00  0.00    +0.000 C 
ATOM     32  H   UNL     1       7.046   6.674  15.875  0.00  0.00    +0.000 HD
BRANCH  26  33
ATOM     33  O   UNL     1       3.621   4.495  19.086  0.00  0.00    +0.000 OA
ATOM     34  H   UNL     1       3.786   4.734  20.012  0.00  0.00    +0.000 HD
ENDBRANCH  26  33
BRANCH  31  35
ATOM     35  O   UNL     1       6.400   4.669  19.010  0.00  0.00    +0.000 OA
ATOM     36  H   UNL     1       6.461   4.569  19.981  0.00  0.00    +0.000 HD
ENDBRANCH  31  35
ENDBRANCH   3  26
BRANCH   1  38
ATOM     37  C   UNL     1       1.497   8.916  21.994  0.00  0.00    +0.000 C 
ATOM     38  O   UNL     1       0.930   7.996  21.054  0.00  0.00    +0.000 OA
ENDBRANCH   1  38
TORSDOF 7
ENDMDL
MODEL 7
REMARK VINA RESULT:      -8.4      3.449      5.011
REMARK  Name = 
REMARK  9 active torsions:
REMARK  status: ('A' for Active; 'I' for Inactive)
REMARK    1  A    between atoms: C_1  and  O_2
REMARK    2  A    between atoms: O_2  and  C_3
REMARK    3  A    between atoms: C_5  and  C_6
REMARK    4  A    between atoms: C_6  and  O_7
REMARK    5  A    between atoms: C_12  and  O_13
REMARK    6  A    between atoms: C_16  and  N_17
REMARK    7  A    between atoms: C_24  and  C_25
REMARK    8  A    between atoms: C_30  and  O_31
REMARK    9  A    between atoms: O_31  and  C_32
REMARK                            x       y       z     vdW  Elec       q    Type
REMARK                         _______ _______ _______ _____ _____    ______ ____
ROOT
ATOM      1  C   UNL     1       2.876   6.774  18.936  0.00  0.00    +0.000 A 
ATOM      2  C   UNL     1       3.277   5.449  19.162  0.00  0.00    +0.000 A 
ATOM      3  C   UNL     1       2.663   4.622  20.117  0.00  0.00    +0.000 A 
ATOM      4  C   UNL     1       1.709   5.213  20.950  0.00  0.00    +0.000 A 
ATOM      5  C   UNL     1       1.338   6.552  20.771  0.00  0.00    +0.000 A 
ATOM      6  C   UNL     1       1.895   7.351  19.762  0.00  0.00    +0.000 A 
ENDROOT
BRANCH   6   7
ATOM      7  N   UNL     1       1.469   8.682  19.579  0.00  0.00    +0.000 N 
ATOM      8  C   UNL     1       0.899   9.496  20.541  0.00  0.00    +0.000 A 
ATOM      9  N   UNL     1       0.267   8.889  21.600  0.00  0.00    +0.000 NA
ATOM     10  C   UNL     1      -0.420   9.609  22.424  0.00  0.00    +0.000 A 
ATOM     11  C   UNL     1      -0.461  11.011  22.270  0.00  0.00    +0.000 A 
ATOM     12  C   UNL     1      -1.163  11.997  22.914  0.00  0.00    +0.000 A 
ATOM     13  C   UNL     1      -0.781  13.209  22.301  0.00  0.00    +0.000 A 
ATOM     14  C   UNL     1       0.216  12.947  21.361  0.00  0.00    +0.000 A 
ATOM     15  N   UNL     1       0.301  11.554  21.280  0.00  0.00    +0.000 N 
ATOM     16  N   UNL     1       0.959  10.793  20.365  0.00  0.00    +0.000 NA
ATOM     17  H   UNL     1       1.240   8.923  18.625  0.00  0.00    +0.000 HD
BRANCH  14  18
ATOM     18  C   UNL     1       0.984  13.918  20.547  0.00  0.00    +0.000 A 
ATOM     19  C   UNL     1       0.306  14.688  19.584  0.00  0.00    +0.000 A 
ATOM     20  C   UNL     1       0.943  15.689  18.845  0.00  0.00    +0.000 A 
ATOM     21  C   UNL     1       2.283  15.964  19.064  0.00  0.00    +0.000 A 
ATOM     22  C   UNL     1       2.988  15.223  20.011  0.00  0.00    +0.000 A 
ATOM     23  C   UNL     1       2.360  14.193  20.734  0.00  0.00    +0.000 A 
BRANCH  23  24
ATOM     24  O   UNL     1       3.164  13.609  21.686  0.00  0.00    +0.000 OA
ATOM     25  C   UNL     1       4.431  14.242  21.849  0.00  0.00    +0.000 C 
ENDBRANCH  23  24
ENDBRANCH  14  18
ENDBRANCH   6   7
BRANCH   3  26
ATOM     26  C   UNL     1       3.089   3.149  20.180  0.00  0.00    +0.000 C 
ATOM     27  C   UNL     1       2.189   2.152  19.425  0.00  0.00    +0.000 C 
ATOM     28  C   UNL     1       2.401   2.191  17.910  0.00  0.00    +0.000 C 
ATOM     29  N   UNL     1       3.805   2.003  17.549  0.00  0.00    +0.000 NA
ATOM     30  C   UNL     1       4.655   3.040  18.160  0.00  0.00    +0.000 C 
ATOM     31  C   UNL     1       4.569   2.963  19.692  0.00  0.00    +0.000 C 
ATOM     32  H   UNL     1       3.899   2.062  16.533  0.00  0.00    +0.000 HD
BRANCH  26  33
ATOM     33  O   UNL     1       3.023   2.804  21.579  0.00  0.00    +0.000 OA
ATOM     34  H   UNL     1       3.250   3.598  22.089  0.00  0.00    +0.000 HD
ENDBRANCH  26  33
BRANCH  31  35
ATOM     35  O   UNL     1       5.097   1.684  20.094  0.00  0.00    +0.000 OA
ATOM     36  H   UNL     1       4.598   1.026  19.570  0.00  0.00    +0.000 HD
ENDBRANCH  31  35
ENDBRANCH   3  26
BRANCH   1  38
ATOM     37  C   UNL     1       4.429   6.897  17.162  0.00  0.00    +0.000 C 
ATOM     38  O   UNL     1       3.402   7.545  17.923  0.00  0.00    +0.000 OA
ENDBRANCH   1  38
TORSDOF 7
ENDMDL
MODEL 8
REMARK VINA RESULT:      -8.3      2.696      4.511
REMARK  Name = 
REMARK  9 active torsions:
REMARK  status: ('A' for Active; 'I' for Inactive)
REMARK    1  A    between atoms: C_1  and  O_2
REMARK    2  A    between atoms: O_2  and  C_3
REMARK    3  A    between atoms: C_5  and  C_6
REMARK    4  A    between atoms: C_6  and  O_7
REMARK    5  A    between atoms: C_12  and  O_13
REMARK    6  A    between atoms: C_16  and  N_17
REMARK    7  A    between atoms: C_24  and  C_25
REMARK    8  A    between atoms: C_30  and  O_31
REMARK    9  A    between atoms: O_31  and  C_32
REMARK                            x       y       z     vdW  Elec       q    Type
REMARK                         _______ _______ _______ _____ _____    ______ ____
ROOT
ATOM      1  C   UNL     1       1.328   8.672  20.153  0.00  0.00    +0.000 A 
ATOM      2  C   UNL     1       2.059   7.506  19.884  0.00  0.00    +0.000 A 
ATOM      3  C   UNL     1       2.618   7.234  18.623  0.00  0.00    +0.000 A 
ATOM      4  C   UNL     1       2.303   8.116  17.586  0.00  0.00    +0.000 A 
ATOM      5  C   UNL     1       1.529   9.258  17.829  0.00  0.00    +0.000 A 
ATOM      6  C   UNL     1       1.041   9.568  19.108  0.00  0.00    +0.000 A 
ENDROOT
BRANCH   6   7
ATOM      7  N   UNL     1       0.301  10.746  19.330  0.00  0.00    +0.000 N 
ATOM      8  C   UNL     1      -1.062  10.900  19.154  0.00  0.00    +0.000 A 
ATOM      9  N   UNL     1      -1.695  10.046  18.284  0.00  0.00    +0.000 NA
ATOM     10  C   UNL     1      -2.928  10.265  17.966  0.00  0.00    +0.000 A 
ATOM     11  C   UNL     1      -3.631  11.333  18.563  0.00  0.00    +0.000 A 
ATOM     12  C   UNL     1      -4.882  11.854  18.357  0.00  0.00    +0.000 A 
ATOM     13  C   UNL     1      -5.009  12.929  19.261  0.00  0.00    +0.000 A 
ATOM     14  C   UNL     1      -3.871  12.982  20.065  0.00  0.00    +0.000 A 
ATOM     15  N   UNL     1      -2.980  12.053  19.519  0.00  0.00    +0.000 N 
ATOM     16  N   UNL     1      -1.660  11.873  19.795  0.00  0.00    +0.000 NA
ATOM     17  H   UNL     1       0.839  11.599  19.265  0.00  0.00    +0.000 HD
BRANCH  14  18
ATOM     18  C   UNL     1      -3.601  13.880  21.213  0.00  0.00    +0.000 A 
ATOM     19  C   UNL     1      -3.648  15.273  21.016  0.00  0.00    +0.000 A 
ATOM     20  C   UNL     1      -3.499  16.180  22.067  0.00  0.00    +0.000 A 
ATOM     21  C   UNL     1      -3.317  15.718  23.361  0.00  0.00    +0.000 A 
ATOM     22  C   UNL     1      -3.267  14.345  23.596  0.00  0.00    +0.000 A 
ATOM     23  C   UNL     1      -3.383  13.427  22.537  0.00  0.00    +0.000 A 
BRANCH  23  24
ATOM     24  O   UNL     1      -3.395  12.111  22.937  0.00  0.00    +0.000 OA
ATOM     25  C   UNL     1      -2.113  11.596  23.291  0.00  0.00    +0.000 C 
ENDBRANCH  23  24
ENDBRANCH  14  18
ENDBRANCH   6   7
BRANCH   3  26
ATOM     26  C   UNL     1       3.515   5.998  18.482  0.00  0.00    +0.000 C 
ATOM     27  C   UNL     1       3.877   5.272  19.791  0.00  0.00    +0.000 C 
ATOM     28  C   UNL     1       2.727   4.424  20.338  0.00  0.00    +0.000 C 
ATOM     29  N   UNL     1       2.220   3.482  19.341  0.00  0.00    +0.000 NA
ATOM     30  C   UNL     1       1.744   4.185  18.137  0.00  0.00    +0.000 C 
ATOM     31  C   UNL     1       2.899   4.958  17.481  0.00  0.00    +0.000 C 
ATOM     32  H   UNL     1       1.440   2.958  19.743  0.00  0.00    +0.000 HD
BRANCH  26  33
ATOM     33  O   UNL     1       4.747   6.497  17.920  0.00  0.00    +0.000 OA
ATOM     34  H   UNL     1       5.350   6.686  18.657  0.00  0.00    +0.000 HD
ENDBRANCH  26  33
BRANCH  31  35
ATOM     35  O   UNL     1       3.882   3.994  17.054  0.00  0.00    +0.000 OA
ATOM     36  H   UNL     1       3.370   3.283  16.621  0.00  0.00    +0.000 HD
ENDBRANCH  31  35
ENDBRANCH   3  26
BRANCH   1  38
ATOM     37  C   UNL     1      -0.388   8.410  21.754  0.00  0.00    +0.000 C 
ATOM     38  O   UNL     1       0.878   8.990  21.416  0.00  0.00    +0.000 OA
ENDBRANCH   1  38
TORSDOF 7
ENDMDL
MODEL 9
REMARK VINA RESULT:      -8.3      3.267      5.246
REMARK  Name = 
REMARK  9 active torsions:
REMARK  status: ('A' for Active; 'I' for Inactive)
REMARK    1  A    between atoms: C_1  and  O_2
REMARK    2  A    between atoms: O_2  and  C_3
REMARK    3  A    between atoms: C_5  and  C_6
REMARK    4  A    between atoms: C_6  and  O_7
REMARK    5  A    between atoms: C_12  and  O_13
REMARK    6  A    between atoms: C_16  and  N_17
REMARK    7  A    between atoms: C_24  and  C_25
REMARK    8  A    between atoms: C_30  and  O_31
REMARK    9  A    between atoms: O_31  and  C_32
REMARK                            x       y       z     vdW  Elec       q    Type
REMARK                         _______ _______ _______ _____ _____    ______ ____
ROOT
ATOM      1  C   UNL     1       1.938   7.199  20.084  0.00  0.00    +0.000 A 
ATOM      2  C   UNL     1       1.742   5.842  20.382  0.00  0.00    +0.000 A 
ATOM      3  C   UNL     1       1.933   4.822  19.434  0.00  0.00    +0.000 A 
ATOM      4  C   UNL     1       2.198   5.217  18.120  0.00  0.00    +0.000 A 
ATOM      5  C   UNL     1       2.342   6.573  17.798  0.00  0.00    +0.000 A 
ATOM      6  C   UNL     1       2.232   7.584  18.764  0.00  0.00    +0.000 A 
ENDROOT
BRANCH   6   7
ATOM      7  N   UNL     1       2.426   8.936  18.417  0.00  0.00    +0.000 N 
ATOM      8  C   UNL     1       1.503   9.955  18.558  0.00  0.00    +0.000 A 
ATOM      9  N   UNL     1       0.172   9.613  18.591  0.00  0.00    +0.000 NA
ATOM     10  C   UNL     1      -0.722  10.545  18.551  0.00  0.00    +0.000 A 
ATOM     11  C   UNL     1      -0.329  11.900  18.541  0.00  0.00    +0.000 A 
ATOM     12  C   UNL     1      -1.029  13.071  18.408  0.00  0.00    +0.000 A 
ATOM     13  C   UNL     1      -0.073  14.105  18.471  0.00  0.00    +0.000 A 
ATOM     14  C   UNL     1       1.179  13.549  18.737  0.00  0.00    +0.000 A 
ATOM     15  N   UNL     1       1.002  12.165  18.650  0.00  0.00    +0.000 N 
ATOM     16  N   UNL     1       1.947  11.186  18.612  0.00  0.00    +0.000 NA
ATOM     17  H   UNL     1       3.130   9.091  17.709  0.00  0.00    +0.000 HD
BRANCH  14  18
ATOM     18  C   UNL     1       2.460  14.253  18.984  0.00  0.00    +0.000 A 
ATOM     19  C   UNL     1       3.165  14.791  17.891  0.00  0.00    +0.000 A 
ATOM     20  C   UNL     1       4.328  15.547  18.053  0.00  0.00    +0.000 A 
ATOM     21  C   UNL     1       4.814  15.807  19.324  0.00  0.00    +0.000 A 
ATOM     22  C   UNL     1       4.142  15.292  20.431  0.00  0.00    +0.000 A 
ATOM     23  C   UNL     1       2.989  14.502  20.273  0.00  0.00    +0.000 A 
BRANCH  23  24
ATOM     24  O   UNL     1       2.396  14.136  21.459  0.00  0.00    +0.000 OA
ATOM     25  C   UNL     1       1.547  15.134  22.021  0.00  0.00    +0.000 C 
ENDBRANCH  23  24
ENDBRANCH  14  18
ENDBRANCH   6   7
BRANCH   3  26
ATOM     26  C   UNL     1       1.827   3.367  19.908  0.00  0.00    +0.000 C 
ATOM     27  C   UNL     1       1.642   2.308  18.804  0.00  0.00    +0.000 C 
ATOM     28  C   UNL     1       2.936   2.009  18.045  0.00  0.00    +0.000 C 
ATOM     29  N   UNL     1       4.026   1.638  18.947  0.00  0.00    +0.000 NA
ATOM     30  C   UNL     1       4.299   2.709  19.921  0.00  0.00    +0.000 C 
ATOM     31  C   UNL     1       3.059   2.965  20.793  0.00  0.00    +0.000 C 
ATOM     32  H   UNL     1       4.872   1.473  18.398  0.00  0.00    +0.000 HD
BRANCH  26  33
ATOM     33  O   UNL     1       0.643   3.331  20.732  0.00  0.00    +0.000 OA
ATOM     34  H   UNL     1       0.073   4.068  20.459  0.00  0.00    +0.000 HD
ENDBRANCH  26  33
BRANCH  31  35
ATOM     35  O   UNL     1       2.798   1.761  21.541  0.00  0.00    +0.000 OA
ATOM     36  H   UNL     1       2.242   1.211  20.953  0.00  0.00    +0.000 HD
ENDBRANCH  31  35
ENDBRANCH   3  26
BRANCH   1  38
ATOM     37  C   UNL     1       0.591   8.272  21.700  0.00  0.00    +0.000 C 
ATOM     38  O   UNL     1       1.861   8.186  21.042  0.00  0.00    +0.000 OA
ENDBRANCH   1  38
TORSDOF 7
ENDMDL
