MODEL 1
REMARK VINA RESULT:      -7.1      0.000      0.000
REMARK  Name = 
REMARK  5 active torsions:
REMARK  status: ('A' for Active; 'I' for Inactive)
REMARK    1  A    between atoms: C_1  and  C_2
REMARK    2  A    between atoms: N_5  and  S_6
REMARK    3  A    between atoms: S_6  and  N_9
REMARK    4  A    between atoms: N_9  and  C_10
REMARK    5  A    between atoms: N_14  and  C_15
REMARK                            x       y       z     vdW  Elec       q    Type
REMARK                         _______ _______ _______ _____ _____    ______ ____
ROOT
ATOM      1  S   UNL     1       3.862   5.354  18.133  0.00  0.00    +0.000 S 
ATOM      2  O   UNL     1       2.854   6.253  17.618  0.00  0.00    +0.000 OA
ATOM      3  O   UNL     1       4.343   5.519  19.489  0.00  0.00    +0.000 OA
ENDROOT
BRANCH   1   4
ATOM      4  N   UNL     1       5.202   5.391  17.093  0.00  0.00    +0.000 N 
ATOM      5  C   UNL     1       5.429   4.209  16.242  0.00  0.00    +0.000 C 
ATOM      6  C   UNL     1       6.320   6.086  17.547  0.00  0.00    +0.000 A 
ATOM      7  C   UNL     1       7.385   5.597  18.343  0.00  0.00    +0.000 A 
ATOM      8  C   UNL     1       8.217   6.679  18.527  0.00  0.00    +0.000 A 
ATOM      9  N   UNL     1       7.620   7.714  17.860  0.00  0.00    +0.000 N 
ATOM     10  C   UNL     1       8.009   9.096  17.867  0.00  0.00    +0.000 C 
ATOM     11  N   UNL     1       6.519   7.352  17.185  0.00  0.00    +0.000 NA
ENDBRANCH   1   4
BRANCH   1  16
ATOM     12  C   UNL     1       1.412   2.937  21.704  0.00  0.00    +0.000 C 
ATOM     13  C   UNL     1       1.911   2.647  20.288  0.00  0.00    +0.000 C 
ATOM     14  C   UNL     1       3.445   2.732  20.223  0.00  0.00    +0.000 C 
ATOM     15  C   UNL     1       3.982   2.726  18.791  0.00  0.00    +0.000 C 
ATOM     16  N   UNL     1       3.308   3.756  17.965  0.00  0.00    +0.000 NA
ATOM     17  C   UNL     1       1.848   3.521  17.909  0.00  0.00    +0.000 C 
ATOM     18  C   UNL     1       1.230   3.604  19.297  0.00  0.00    +0.000 C 
ENDBRANCH   1  16
TORSDOF 2
ENDMDL
MODEL 2
REMARK VINA RESULT:      -7.0      1.330      1.781
REMARK  Name = 
REMARK  5 active torsions:
REMARK  status: ('A' for Active; 'I' for Inactive)
REMARK    1  A    between atoms: C_1  and  C_2
REMARK    2  A    between atoms: N_5  and  S_6
REMARK    3  A    between atoms: S_6  and  N_9
REMARK    4  A    between atoms: N_9  and  C_10
REMARK    5  A    between atoms: N_14  and  C_15
REMARK                            x       y       z     vdW  Elec       q    Type
REMARK                         _______ _______ _______ _____ _____    ______ ____
ROOT
ATOM      1  S   UNL     1       4.386   5.195  17.159  0.00  0.00    +0.000 S 
ATOM      2  O   UNL     1       3.737   4.080  16.507  0.00  0.00    +0.000 OA
ATOM      3  O   UNL     1       3.805   6.518  17.060  0.00  0.00    +0.000 OA
ENDROOT
BRANCH   1   4
ATOM      4  N   UNL     1       5.989   5.282  16.611  0.00  0.00    +0.000 N 
ATOM      5  C   UNL     1       6.561   4.068  16.002  0.00  0.00    +0.000 C 
ATOM      6  C   UNL     1       6.846   6.110  17.332  0.00  0.00    +0.000 A 
ATOM      7  C   UNL     1       7.615   5.783  18.475  0.00  0.00    +0.000 A 
ATOM      8  C   UNL     1       8.268   6.948  18.810  0.00  0.00    +0.000 A 
ATOM      9  N   UNL     1       7.860   7.872  17.885  0.00  0.00    +0.000 N 
ATOM     10  C   UNL     1       8.134   9.281  17.881  0.00  0.00    +0.000 C 
ATOM     11  N   UNL     1       7.071   7.360  16.930  0.00  0.00    +0.000 NA
ENDBRANCH   1   4
BRANCH   1  16
ATOM     12  C   UNL     1       0.865   3.009  19.884  0.00  0.00    +0.000 C 
ATOM     13  C   UNL     1       2.280   3.550  20.097  0.00  0.00    +0.000 C 
ATOM     14  C   UNL     1       2.330   5.065  19.837  0.00  0.00    +0.000 C 
ATOM     15  C   UNL     1       3.757   5.609  19.764  0.00  0.00    +0.000 C 
ATOM     16  N   UNL     1       4.577   4.829  18.807  0.00  0.00    +0.000 NA
ATOM     17  C   UNL     1       4.650   3.406  19.207  0.00  0.00    +0.000 C 
ATOM     18  C   UNL     1       3.266   2.771  19.213  0.00  0.00    +0.000 C 
ENDBRANCH   1  16
TORSDOF 2
ENDMDL
MODEL 3
REMARK VINA RESULT:      -7.0      1.827      2.843
REMARK  Name = 
REMARK  5 active torsions:
REMARK  status: ('A' for Active; 'I' for Inactive)
REMARK    1  A    between atoms: C_1  and  C_2
REMARK    2  A    between atoms: N_5  and  S_6
REMARK    3  A    between atoms: S_6  and  N_9
REMARK    4  A    between atoms: N_9  and  C_10
REMARK    5  A    between atoms: N_14  and  C_15
REMARK                            x       y       z     vdW  Elec       q    Type
REMARK                         _______ _______ _______ _____ _____    ______ ____
ROOT
ATOM      1  S   UNL     1       4.134   5.249  18.050  0.00  0.00    +0.000 S 
ATOM      2  O   UNL     1       3.944   6.351  17.134  0.00  0.00    +0.000 OA
ATOM      3  O   UNL     1       4.071   5.485  19.477  0.00  0.00    +0.000 OA
ENDROOT
BRANCH   1   4
ATOM      4  N   UNL     1       5.623   4.511  17.705  0.00  0.00    +0.000 N 
ATOM      5  C   UNL     1       6.628   4.485  18.783  0.00  0.00    +0.000 C 
ATOM      6  C   UNL     1       6.081   4.622  16.395  0.00  0.00    +0.000 A 
ATOM      7  C   UNL     1       6.856   5.664  15.829  0.00  0.00    +0.000 A 
ATOM      8  C   UNL     1       7.022   5.307  14.509  0.00  0.00    +0.000 A 
ATOM      9  N   UNL     1       6.356   4.119  14.367  0.00  0.00    +0.000 N 
ATOM     10  C   UNL     1       6.098   3.403  13.150  0.00  0.00    +0.000 C 
ATOM     11  N   UNL     1       5.858   3.644  15.519  0.00  0.00    +0.000 NA
ENDBRANCH   1   4
BRANCH   1  16
ATOM     12  C   UNL     1       1.589   2.736  21.485  0.00  0.00    +0.000 C 
ATOM     13  C   UNL     1       1.711   2.748  19.961  0.00  0.00    +0.000 C 
ATOM     14  C   UNL     1       3.139   2.377  19.526  0.00  0.00    +0.000 C 
ATOM     15  C   UNL     1       3.396   2.640  18.042  0.00  0.00    +0.000 C 
ATOM     16  N   UNL     1       3.018   4.024  17.672  0.00  0.00    +0.000 NA
ATOM     17  C   UNL     1       1.585   4.273  17.939  0.00  0.00    +0.000 C 
ATOM     18  C   UNL     1       1.273   4.118  19.421  0.00  0.00    +0.000 C 
ENDBRANCH   1  16
TORSDOF 2
ENDMDL
MODEL 4
REMARK VINA RESULT:      -6.9      1.913      3.024
REMARK  Name = 
REMARK  5 active torsions:
REMARK  status: ('A' for Active; 'I' for Inactive)
REMARK    1  A    between atoms: C_1  and  C_2
REMARK    2  A    between atoms: N_5  and  S_6
REMARK    3  A    between atoms: S_6  and  N_9
REMARK    4  A    between atoms: N_9  and  C_10
REMARK    5  A    between atoms: N_14  and  C_15
REMARK                            x       y       z     vdW  Elec       q    Type
REMARK                         _______ _______ _______ _____ _____    ______ ____
ROOT
ATOM      1  S   UNL     1       4.961   4.257  19.052  0.00  0.00    +0.000 S 
ATOM      2  O   UNL     1       4.400   5.427  19.689  0.00  0.00    +0.000 OA
ATOM      3  O   UNL     1       5.318   3.106  19.856  0.00  0.00    +0.000 OA
ENDROOT
BRANCH   1   4
ATOM      4  N   UNL     1       6.333   4.728  18.170  0.00  0.00    +0.000 N 
ATOM      5  C   UNL     1       7.341   5.540  18.875  0.00  0.00    +0.000 C 
ATOM      6  C   UNL     1       6.145   4.965  16.812  0.00  0.00    +0.000 A 
ATOM      7  C   UNL     1       5.750   6.172  16.185  0.00  0.00    +0.000 A 
ATOM      8  C   UNL     1       5.693   5.874  14.842  0.00  0.00    +0.000 A 
ATOM      9  N   UNL     1       6.038   4.552  14.748  0.00  0.00    +0.000 N 
ATOM     10  C   UNL     1       5.985   3.718  13.581  0.00  0.00    +0.000 C 
ATOM     11  N   UNL     1       6.402   4.010  15.920  0.00  0.00    +0.000 NA
ENDBRANCH   1   4
BRANCH   1  16
ATOM     12  C   UNL     1       0.341   2.700  19.957  0.00  0.00    +0.000 C 
ATOM     13  C   UNL     1       1.251   2.873  18.740  0.00  0.00    +0.000 C 
ATOM     14  C   UNL     1       2.488   1.965  18.852  0.00  0.00    +0.000 C 
ATOM     15  C   UNL     1       3.562   2.293  17.814  0.00  0.00    +0.000 C 
ATOM     16  N   UNL     1       3.899   3.735  17.832  0.00  0.00    +0.000 NA
ATOM     17  C   UNL     1       2.709   4.563  17.537  0.00  0.00    +0.000 C 
ATOM     18  C   UNL     1       1.626   4.355  18.587  0.00  0.00    +0.000 C 
ENDBRANCH   1  16
TORSDOF 2
ENDMDL
MODEL 5
REMARK VINA RESULT:      -6.7      1.382      6.165
REMARK  Name = 
REMARK  5 active torsions:
REMARK  status: ('A' for Active; 'I' for Inactive)
REMARK    1  A    between atoms: C_1  and  C_2
REMARK    2  A    between atoms: N_5  and  S_6
REMARK    3  A    between atoms: S_6  and  N_9
REMARK    4  A    between atoms: N_9  and  C_10
REMARK    5  A    between atoms: N_14  and  C_15
REMARK                            x       y       z     vdW  Elec       q    Type
REMARK                         _______ _______ _______ _____ _____    ______ ____
ROOT
ATOM      1  S   UNL     1       4.617   5.175  18.409  0.00  0.00    +0.000 S 
ATOM      2  O   UNL     1       5.020   5.390  19.780  0.00  0.00    +0.000 OA
ATOM      3  O   UNL     1       3.721   6.117  17.770  0.00  0.00    +0.000 OA
ENDROOT
BRANCH   1   4
ATOM      4  N   UNL     1       3.928   3.629  18.284  0.00  0.00    +0.000 N 
ATOM      5  C   UNL     1       4.033   2.948  16.981  0.00  0.00    +0.000 C 
ATOM      6  C   UNL     1       2.788   3.395  19.047  0.00  0.00    +0.000 A 
ATOM      7  C   UNL     1       1.439   3.649  18.698  0.00  0.00    +0.000 A 
ATOM      8  C   UNL     1       0.708   3.261  19.798  0.00  0.00    +0.000 A 
ATOM      9  N   UNL     1       1.629   2.820  20.710  0.00  0.00    +0.000 N 
ATOM     10  C   UNL     1       1.395   2.449  22.077  0.00  0.00    +0.000 C 
ATOM     11  N   UNL     1       2.885   2.809  20.239  0.00  0.00    +0.000 NA
ENDBRANCH   1   4
BRANCH   1  16
ATOM     12  C   UNL     1       8.081   8.712  18.122  0.00  0.00    +0.000 C 
ATOM     13  C   UNL     1       7.829   7.332  17.513  0.00  0.00    +0.000 C 
ATOM     14  C   UNL     1       6.544   7.336  16.668  0.00  0.00    +0.000 C 
ATOM     15  C   UNL     1       6.093   5.931  16.264  0.00  0.00    +0.000 C 
ATOM     16  N   UNL     1       6.009   5.039  17.444  0.00  0.00    +0.000 NA
ATOM     17  C   UNL     1       7.321   4.922  18.117  0.00  0.00    +0.000 C 
ATOM     18  C   UNL     1       7.793   6.277  18.629  0.00  0.00    +0.000 C 
ENDBRANCH   1  16
TORSDOF 2
ENDMDL
MODEL 6
REMARK VINA RESULT:      -6.7      2.382      3.232
REMARK  Name = 
REMARK  5 active torsions:
REMARK  status: ('A' for Active; 'I' for Inactive)
REMARK    1  A    between atoms: C_1  and  C_2
REMARK    2  A    between atoms: N_5  and  S_6
REMARK    3  A    between atoms: S_6  and  N_9
REMARK    4  A    between atoms: N_9  and  C_10
REMARK    5  A    between atoms: N_14  and  C_15
REMARK                            x       y       z     vdW  Elec       q    Type
REMARK                         _______ _______ _______ _____ _____    ______ ____
ROOT
ATOM      1  S   UNL     1       4.514   3.289  18.621  0.00  0.00    +0.000 S 
ATOM      2  O   UNL     1       4.841   2.711  19.905  0.00  0.00    +0.000 OA
ATOM      3  O   UNL     1       4.280   2.422  17.484  0.00  0.00    +0.000 OA
ENDROOT
BRANCH   1   4
ATOM      4  N   UNL     1       5.732   4.392  18.198  0.00  0.00    +0.000 N 
ATOM      5  C   UNL     1       6.180   5.334  19.240  0.00  0.00    +0.000 C 
ATOM      6  C   UNL     1       5.736   4.836  16.879  0.00  0.00    +0.000 A 
ATOM      7  C   UNL     1       5.029   5.932  16.327  0.00  0.00    +0.000 A 
ATOM      8  C   UNL     1       5.359   5.931  14.990  0.00  0.00    +0.000 A 
ATOM      9  N   UNL     1       6.208   4.869  14.825  0.00  0.00    +0.000 N 
ATOM     10  C   UNL     1       6.718   4.344  13.591  0.00  0.00    +0.000 C 
ATOM     11  N   UNL     1       6.519   4.251  15.974  0.00  0.00    +0.000 NA
ENDBRANCH   1   4
BRANCH   1  16
ATOM     12  C   UNL     1       1.002   2.515  22.036  0.00  0.00    +0.000 C 
ATOM     13  C   UNL     1       1.282   3.520  20.918  0.00  0.00    +0.000 C 
ATOM     14  C   UNL     1       1.299   2.820  19.548  0.00  0.00    +0.000 C 
ATOM     15  C   UNL     1       1.842   3.712  18.431  0.00  0.00    +0.000 C 
ATOM     16  N   UNL     1       3.154   4.293  18.803  0.00  0.00    +0.000 NA
ATOM     17  C   UNL     1       3.045   5.111  20.030  0.00  0.00    +0.000 C 
ATOM     18  C   UNL     1       2.594   4.264  21.212  0.00  0.00    +0.000 C 
ENDBRANCH   1  16
TORSDOF 2
ENDMDL
MODEL 7
REMARK VINA RESULT:      -6.4      1.968      5.913
REMARK  Name = 
REMARK  5 active torsions:
REMARK  status: ('A' for Active; 'I' for Inactive)
REMARK    1  A    between atoms: C_1  and  C_2
REMARK    2  A    between atoms: N_5  and  S_6
REMARK    3  A    between atoms: S_6  and  N_9
REMARK    4  A    between atoms: N_9  and  C_10
REMARK    5  A    between atoms: N_14  and  C_15
REMARK                            x       y       z     vdW  Elec       q    Type
REMARK                         _______ _______ _______ _____ _____    ______ ____
ROOT
ATOM      1  S   UNL     1       5.088   5.233  18.452  0.00  0.00    +0.000 S 
ATOM      2  O   UNL     1       5.149   3.874  17.963  0.00  0.00    +0.000 OA
ATOM      3  O   UNL     1       5.645   5.553  19.750  0.00  0.00    +0.000 OA
ENDROOT
BRANCH   1   4
ATOM      4  N   UNL     1       3.469   5.741  18.435  0.00  0.00    +0.000 N 
ATOM      5  C   UNL     1       3.217   7.193  18.493  0.00  0.00    +0.000 C 
ATOM      6  C   UNL     1       2.549   4.900  19.054  0.00  0.00    +0.000 A 
ATOM      7  C   UNL     1       2.169   4.876  20.418  0.00  0.00    +0.000 A 
ATOM      8  C   UNL     1       1.252   3.855  20.515  0.00  0.00    +0.000 A 
ATOM      9  N   UNL     1       1.144   3.341  19.250  0.00  0.00    +0.000 N 
ATOM     10  C   UNL     1       0.431   2.164  18.845  0.00  0.00    +0.000 C 
ATOM     11  N   UNL     1       1.853   4.019  18.336  0.00  0.00    +0.000 NA
ENDBRANCH   1   4
BRANCH   1  16
ATOM     12  C   UNL     1       6.375   3.744  13.900  0.00  0.00    +0.000 C 
ATOM     13  C   UNL     1       6.445   5.030  14.725  0.00  0.00    +0.000 C 
ATOM     14  C   UNL     1       7.337   4.836  15.962  0.00  0.00    +0.000 C 
ATOM     15  C   UNL     1       7.225   5.987  16.963  0.00  0.00    +0.000 C 
ATOM     16  N   UNL     1       5.809   6.260  17.305  0.00  0.00    +0.000 NA
ATOM     17  C   UNL     1       5.031   6.623  16.100  0.00  0.00    +0.000 C 
ATOM     18  C   UNL     1       5.023   5.482  15.093  0.00  0.00    +0.000 C 
ENDBRANCH   1  16
TORSDOF 2
ENDMDL
MODEL 8
REMARK VINA RESULT:      -6.4      2.650      5.372
REMARK  Name = 
REMARK  5 active torsions:
REMARK  status: ('A' for Active; 'I' for Inactive)
REMARK    1  A    between atoms: C_1  and  C_2
REMARK    2  A    between atoms: N_5  and  S_6
REMARK    3  A    between atoms: S_6  and  N_9
REMARK    4  A    between atoms: N_9  and  C_10
REMARK    5  A    between atoms: N_14  and  C_15
REMARK                            x       y       z     vdW  Elec       q    Type
REMARK                         _______ _______ _______ _____ _____    ______ ____
ROOT
ATOM      1  S   UNL     1       4.716   4.486  19.043  0.00  0.00    +0.000 S 
ATOM      2  O   UNL     1       4.896   3.132  19.515  0.00  0.00    +0.000 OA
ATOM      3  O   UNL     1       5.213   5.592  19.836  0.00  0.00    +0.000 OA
ENDROOT
BRANCH   1   4
ATOM      4  N   UNL     1       3.063   4.745  18.760  0.00  0.00    +0.000 N 
ATOM      5  C   UNL     1       2.450   4.018  17.633  0.00  0.00    +0.000 C 
ATOM      6  C   UNL     1       2.575   6.016  19.052  0.00  0.00    +0.000 A 
ATOM      7  C   UNL     1       2.547   7.153  18.208  0.00  0.00    +0.000 A 
ATOM      8  C   UNL     1       1.988   8.151  18.975  0.00  0.00    +0.000 A 
ATOM      9  N   UNL     1       1.730   7.575  20.190  0.00  0.00    +0.000 N 
ATOM     10  C   UNL     1       1.285   8.228  21.388  0.00  0.00    +0.000 C 
ATOM     11  N   UNL     1       1.995   6.260  20.225  0.00  0.00    +0.000 NA
ENDBRANCH   1   4
BRANCH   1  16
ATOM     12  C   UNL     1       7.980   7.996  17.770  0.00  0.00    +0.000 C 
ATOM     13  C   UNL     1       7.269   6.823  17.094  0.00  0.00    +0.000 C 
ATOM     14  C   UNL     1       5.747   7.040  17.086  0.00  0.00    +0.000 C 
ATOM     15  C   UNL     1       4.969   5.788  16.678  0.00  0.00    +0.000 C 
ATOM     16  N   UNL     1       5.383   4.617  17.486  0.00  0.00    +0.000 NA
ATOM     17  C   UNL     1       6.826   4.336  17.314  0.00  0.00    +0.000 C 
ATOM     18  C   UNL     1       7.669   5.511  17.788  0.00  0.00    +0.000 C 
ENDBRANCH   1  16
TORSDOF 2
ENDMDL
MODEL 9
REMARK VINA RESULT:      -6.4      2.097      3.469
REMARK  Name = 
REMARK  5 active torsions:
REMARK  status: ('A' for Active; 'I' for Inactive)
REMARK    1  A    between atoms: C_1  and  C_2
REMARK    2  A    between atoms: N_5  and  S_6
REMARK    3  A    between atoms: S_6  and  N_9
REMARK    4  A    between atoms: N_9  and  C_10
REMARK    5  A    between atoms: N_14  and  C_15
REMARK                            x       y       z     vdW  Elec       q    Type
REMARK                         _______ _______ _______ _____ _____    ______ ____
ROOT
ATOM      1  S   UNL     1       4.588   5.120  17.673  0.00  0.00    +0.000 S 
ATOM      2  O   UNL     1       3.560   4.606  16.796  0.00  0.00    +0.000 OA
ATOM      3  O   UNL     1       4.750   6.551  17.824  0.00  0.00    +0.000 OA
ENDROOT
BRANCH   1   4
ATOM      4  N   UNL     1       6.081   4.470  17.194  0.00  0.00    +0.000 N 
ATOM      5  C   UNL     1       7.201   4.582  18.146  0.00  0.00    +0.000 C 
ATOM      6  C   UNL     1       6.377   4.532  15.835  0.00  0.00    +0.000 A 
ATOM      7  C   UNL     1       6.999   5.589  15.127  0.00  0.00    +0.000 A 
ATOM      8  C   UNL     1       7.040   5.164  13.818  0.00  0.00    +0.000 A 
ATOM      9  N   UNL     1       6.457   3.926  13.819  0.00  0.00    +0.000 N 
ATOM     10  C   UNL     1       6.119   3.120  12.680  0.00  0.00    +0.000 C 
ATOM     11  N   UNL     1       6.132   3.489  15.045  0.00  0.00    +0.000 NA
ENDBRANCH   1   4
BRANCH   1  16
ATOM     12  C   UNL     1       0.649   2.379  18.923  0.00  0.00    +0.000 C 
ATOM     13  C   UNL     1       1.918   2.899  19.600  0.00  0.00    +0.000 C 
ATOM     14  C   UNL     1       1.925   4.437  19.636  0.00  0.00    +0.000 C 
ATOM     15  C   UNL     1       3.280   5.016  20.045  0.00  0.00    +0.000 C 
ATOM     16  N   UNL     1       4.373   4.451  19.220  0.00  0.00    +0.000 NA
ATOM     17  C   UNL     1       4.441   2.980  19.364  0.00  0.00    +0.000 C 
ATOM     18  C   UNL     1       3.152   2.325  18.888  0.00  0.00    +0.000 C 
ENDBRANCH   1  16
TORSDOF 2
ENDMDL
