MODEL 1
REMARK VINA RESULT:      -8.1      0.000      0.000
REMARK  Name = 
REMARK  2 active torsions:
REMARK  status: ('A' for Active; 'I' for Inactive)
REMARK    1  A    between atoms: C_1  and  O_2
REMARK    2  A    between atoms: O_2  and  C_3
REMARK                            x       y       z     vdW  Elec       q    Type
REMARK                         _______ _______ _______ _____ _____    ______ ____
ROOT
ATOM      1  C   UNL     1       0.388  10.922  20.555  0.00  0.00    +0.000 A 
ATOM      2  C   UNL     1       0.061  10.232  21.741  0.00  0.00    +0.000 A 
ATOM      3  C   UNL     1       0.458   8.883  21.954  0.00  0.00    +0.000 A 
ATOM      4  C   UNL     1       1.189   8.250  20.972  0.00  0.00    +0.000 A 
ATOM      5  C   UNL     1       1.429   8.957  19.795  0.00  0.00    +0.000 A 
ATOM      6  C   UNL     1       1.081  10.267  19.553  0.00  0.00    +0.000 A 
ATOM      7  C   UNL     1       2.029   8.040  18.855  0.00  0.00    +0.000 C 
ATOM      8  O   UNL     1       2.078   8.250  17.660  0.00  0.00    +0.000 OA
ATOM      9  C   UNL     1       2.342   6.800  19.655  0.00  0.00    +0.000 C 
ATOM     10  C   UNL     1       3.169   5.870  19.155  0.00  0.00    +0.000 C 
ATOM     11  C   UNL     1       3.320   4.504  19.759  0.00  0.00    +0.000 C 
ATOM     12  O   UNL     1       2.893   4.115  20.829  0.00  0.00    +0.000 OA
ATOM     13  N   UNL     1       4.038   3.775  18.814  0.00  0.00    +0.000 N 
ATOM     14  C   UNL     1       4.418   4.575  17.736  0.00  0.00    +0.000 A 
ATOM     15  C   UNL     1       5.165   4.199  16.632  0.00  0.00    +0.000 A 
ATOM     16  C   UNL     1       5.489   5.189  15.696  0.00  0.00    +0.000 A 
ATOM     17  C   UNL     1       5.125   6.522  15.917  0.00  0.00    +0.000 A 
ATOM     18  C   UNL     1       4.403   6.874  17.056  0.00  0.00    +0.000 A 
ATOM     19  C   UNL     1       3.976   5.882  17.924  0.00  0.00    +0.000 A 
ATOM     20  N   UNL     1       1.632   6.926  20.850  0.00  0.00    +0.000 N 
ATOM     21  H   UNL     1       4.283   2.803  18.932  0.00  0.00    +0.000 HD
ATOM     22  H   UNL     1       1.851   6.322  21.635  0.00  0.00    +0.000 HD
ENDROOT
BRANCH   1  24
ATOM     23  C   UNL     1       0.240  12.584  18.867  0.00  0.00    +0.000 C 
ATOM     24  O   UNL     1       0.053  12.201  20.217  0.00  0.00    +0.000 OA
ENDBRANCH   1  24
TORSDOF 1
ENDMDL
MODEL 2
REMARK VINA RESULT:      -7.8      1.863      7.148
REMARK  Name = 
REMARK  2 active torsions:
REMARK  status: ('A' for Active; 'I' for Inactive)
REMARK    1  A    between atoms: C_1  and  O_2
REMARK    2  A    between atoms: O_2  and  C_3
REMARK                            x       y       z     vdW  Elec       q    Type
REMARK                         _______ _______ _______ _____ _____    ______ ____
ROOT
ATOM      1  C   UNL     1       4.581   3.900  19.103  0.00  0.00    +0.000 A 
ATOM      2  C   UNL     1       4.977   4.379  17.837  0.00  0.00    +0.000 A 
ATOM      3  C   UNL     1       4.509   5.623  17.329  0.00  0.00    +0.000 A 
ATOM      4  C   UNL     1       3.656   6.373  18.109  0.00  0.00    +0.000 A 
ATOM      5  C   UNL     1       3.248   5.823  19.323  0.00  0.00    +0.000 A 
ATOM      6  C   UNL     1       3.688   4.635  19.862  0.00  0.00    +0.000 A 
ATOM      7  C   UNL     1       2.223   6.684  19.863  0.00  0.00    +0.000 C 
ATOM      8  O   UNL     1       1.456   6.337  20.739  0.00  0.00    +0.000 OA
ATOM      9  C   UNL     1       2.232   7.911  18.987  0.00  0.00    +0.000 C 
ATOM     10  C   UNL     1       1.607   9.028  19.388  0.00  0.00    +0.000 C 
ATOM     11  C   UNL     1       1.343  10.189  18.473  0.00  0.00    +0.000 C 
ATOM     12  O   UNL     1       1.788  10.368  17.356  0.00  0.00    +0.000 OA
ATOM     13  N   UNL     1       0.460  11.003  19.178  0.00  0.00    +0.000 N 
ATOM     14  C   UNL     1       0.225  10.507  20.461  0.00  0.00    +0.000 A 
ATOM     15  C   UNL     1      -0.570  11.069  21.447  0.00  0.00    +0.000 A 
ATOM     16  C   UNL     1      -0.608  10.433  22.694  0.00  0.00    +0.000 A 
ATOM     17  C   UNL     1       0.188   9.310  22.943  0.00  0.00    +0.000 A 
ATOM     18  C   UNL     1       1.003   8.789  21.941  0.00  0.00    +0.000 A 
ATOM     19  C   UNL     1       0.956   9.341  20.671  0.00  0.00    +0.000 A 
ATOM     20  N   UNL     1       2.966   7.565  17.851  0.00  0.00    +0.000 N 
ATOM     21  H   UNL     1       0.082  11.862  18.808  0.00  0.00    +0.000 HD
ATOM     22  H   UNL     1       3.291   8.288  17.219  0.00  0.00    +0.000 HD
ENDROOT
BRANCH   1  24
ATOM     23  C   UNL     1       4.044   2.190  20.659  0.00  0.00    +0.000 C 
ATOM     24  O   UNL     1       4.935   2.723  19.695  0.00  0.00    +0.000 OA
ENDBRANCH   1  24
TORSDOF 1
ENDMDL
MODEL 3
REMARK VINA RESULT:      -7.6      1.876      3.435
REMARK  Name = 
REMARK  2 active torsions:
REMARK  status: ('A' for Active; 'I' for Inactive)
REMARK    1  A    between atoms: C_1  and  O_2
REMARK    2  A    between atoms: O_2  and  C_3
REMARK                            x       y       z     vdW  Elec       q    Type
REMARK                         _______ _______ _______ _____ _____    ______ ____
ROOT
ATOM      1  C   UNL     1       0.433  11.175  19.809  0.00  0.00    +0.000 A 
ATOM      2  C   UNL     1       1.176  11.604  18.690  0.00  0.00    +0.000 A 
ATOM      3  C   UNL     1       2.013  10.713  17.964  0.00  0.00    +0.000 A 
ATOM      4  C   UNL     1       2.083   9.398  18.369  0.00  0.00    +0.000 A 
ATOM      5  C   UNL     1       1.377   9.044  19.517  0.00  0.00    +0.000 A 
ATOM      6  C   UNL     1       0.542   9.865  20.240  0.00  0.00    +0.000 A 
ATOM      7  C   UNL     1       1.752   7.690  19.852  0.00  0.00    +0.000 C 
ATOM      8  O   UNL     1       1.559   7.198  20.946  0.00  0.00    +0.000 OA
ATOM      9  C   UNL     1       2.550   7.195  18.673  0.00  0.00    +0.000 C 
ATOM     10  C   UNL     1       2.797   5.884  18.532  0.00  0.00    +0.000 C 
ATOM     11  C   UNL     1       3.794   5.343  17.549  0.00  0.00    +0.000 C 
ATOM     12  O   UNL     1       4.359   5.947  16.657  0.00  0.00    +0.000 OA
ATOM     13  N   UNL     1       3.948   4.004  17.899  0.00  0.00    +0.000 N 
ATOM     14  C   UNL     1       3.084   3.647  18.935  0.00  0.00    +0.000 A 
ATOM     15  C   UNL     1       2.938   2.398  19.516  0.00  0.00    +0.000 A 
ATOM     16  C   UNL     1       1.956   2.248  20.502  0.00  0.00    +0.000 A 
ATOM     17  C   UNL     1       1.110   3.313  20.830  0.00  0.00    +0.000 A 
ATOM     18  C   UNL     1       1.260   4.549  20.202  0.00  0.00    +0.000 A 
ATOM     19  C   UNL     1       2.306   4.737  19.314  0.00  0.00    +0.000 A 
ATOM     20  N   UNL     1       2.873   8.329  17.926  0.00  0.00    +0.000 N 
ATOM     21  H   UNL     1       4.576   3.374  17.422  0.00  0.00    +0.000 HD
ATOM     22  H   UNL     1       3.221   8.229  16.979  0.00  0.00    +0.000 HD
ENDROOT
BRANCH   1  24
ATOM     23  C   UNL     1      -0.487  11.553  21.964  0.00  0.00    +0.000 C 
ATOM     24  O   UNL     1      -0.385  11.926  20.602  0.00  0.00    +0.000 OA
ENDBRANCH   1  24
TORSDOF 1
ENDMDL
MODEL 4
REMARK VINA RESULT:      -7.5      1.950      6.756
REMARK  Name = 
REMARK  2 active torsions:
REMARK  status: ('A' for Active; 'I' for Inactive)
REMARK    1  A    between atoms: C_1  and  O_2
REMARK    2  A    between atoms: O_2  and  C_3
REMARK                            x       y       z     vdW  Elec       q    Type
REMARK                         _______ _______ _______ _____ _____    ______ ____
ROOT
ATOM      1  C   UNL     1       6.060   4.666  14.809  0.00  0.00    +0.000 A 
ATOM      2  C   UNL     1       5.984   3.442  15.505  0.00  0.00    +0.000 A 
ATOM      3  C   UNL     1       5.272   3.322  16.730  0.00  0.00    +0.000 A 
ATOM      4  C   UNL     1       4.635   4.437  17.233  0.00  0.00    +0.000 A 
ATOM      5  C   UNL     1       4.795   5.634  16.537  0.00  0.00    +0.000 A 
ATOM      6  C   UNL     1       5.458   5.793  15.342  0.00  0.00    +0.000 A 
ATOM      7  C   UNL     1       4.214   6.681  17.343  0.00  0.00    +0.000 C 
ATOM      8  O   UNL     1       4.453   7.860  17.175  0.00  0.00    +0.000 OA
ATOM      9  C   UNL     1       3.487   5.970  18.456  0.00  0.00    +0.000 C 
ATOM     10  C   UNL     1       2.598   6.633  19.209  0.00  0.00    +0.000 C 
ATOM     11  C   UNL     1       2.037   6.079  20.487  0.00  0.00    +0.000 C 
ATOM     12  O   UNL     1       2.146   4.947  20.916  0.00  0.00    +0.000 OA
ATOM     13  N   UNL     1       1.385   7.155  21.085  0.00  0.00    +0.000 N 
ATOM     14  C   UNL     1       1.412   8.285  20.266  0.00  0.00    +0.000 A 
ATOM     15  C   UNL     1       0.840   9.521  20.518  0.00  0.00    +0.000 A 
ATOM     16  C   UNL     1       0.932  10.498  19.520  0.00  0.00    +0.000 A 
ATOM     17  C   UNL     1       1.522  10.200  18.287  0.00  0.00    +0.000 A 
ATOM     18  C   UNL     1       2.058   8.936  18.051  0.00  0.00    +0.000 A 
ATOM     19  C   UNL     1       2.077   8.004  19.075  0.00  0.00    +0.000 A 
ATOM     20  N   UNL     1       3.952   4.654  18.437  0.00  0.00    +0.000 N 
ATOM     21  H   UNL     1       0.919   7.095  21.977  0.00  0.00    +0.000 HD
ATOM     22  H   UNL     1       3.454   3.933  18.949  0.00  0.00    +0.000 HD
ENDROOT
BRANCH   1  24
ATOM     23  C   UNL     1       6.660   3.933  12.633  0.00  0.00    +0.000 C 
ATOM     24  O   UNL     1       6.723   4.922  13.645  0.00  0.00    +0.000 OA
ENDBRANCH   1  24
TORSDOF 1
ENDMDL
MODEL 5
REMARK VINA RESULT:      -7.2      4.158      5.978
REMARK  Name = 
REMARK  2 active torsions:
REMARK  status: ('A' for Active; 'I' for Inactive)
REMARK    1  A    between atoms: C_1  and  O_2
REMARK    2  A    between atoms: O_2  and  C_3
REMARK                            x       y       z     vdW  Elec       q    Type
REMARK                         _______ _______ _______ _____ _____    ______ ____
ROOT
ATOM      1  C   UNL     1       1.793   4.029  19.465  0.00  0.00    +0.000 A 
ATOM      2  C   UNL     1       2.414   5.034  20.236  0.00  0.00    +0.000 A 
ATOM      3  C   UNL     1       3.600   5.685  19.797  0.00  0.00    +0.000 A 
ATOM      4  C   UNL     1       4.139   5.321  18.582  0.00  0.00    +0.000 A 
ATOM      5  C   UNL     1       3.520   4.280  17.892  0.00  0.00    +0.000 A 
ATOM      6  C   UNL     1       2.364   3.635  18.268  0.00  0.00    +0.000 A 
ATOM      7  C   UNL     1       4.361   3.950  16.765  0.00  0.00    +0.000 C 
ATOM      8  O   UNL     1       4.270   2.907  16.152  0.00  0.00    +0.000 OA
ATOM      9  C   UNL     1       5.400   5.041  16.712  0.00  0.00    +0.000 C 
ATOM     10  C   UNL     1       6.153   5.199  15.613  0.00  0.00    +0.000 C 
ATOM     11  C   UNL     1       7.373   6.073  15.579  0.00  0.00    +0.000 C 
ATOM     12  O   UNL     1       7.740   6.868  16.422  0.00  0.00    +0.000 OA
ATOM     13  N   UNL     1       8.004   5.755  14.378  0.00  0.00    +0.000 N 
ATOM     14  C   UNL     1       7.253   4.844  13.634  0.00  0.00    +0.000 A 
ATOM     15  C   UNL     1       7.552   4.330  12.383  0.00  0.00    +0.000 A 
ATOM     16  C   UNL     1       6.616   3.476  11.789  0.00  0.00    +0.000 A 
ATOM     17  C   UNL     1       5.393   3.214  12.416  0.00  0.00    +0.000 A 
ATOM     18  C   UNL     1       5.107   3.775  13.660  0.00  0.00    +0.000 A 
ATOM     19  C   UNL     1       6.076   4.523  14.307  0.00  0.00    +0.000 A 
ATOM     20  N   UNL     1       5.324   5.703  17.939  0.00  0.00    +0.000 N 
ATOM     21  H   UNL     1       8.872   6.174  14.079  0.00  0.00    +0.000 HD
ATOM     22  H   UNL     1       5.773   6.604  18.057  0.00  0.00    +0.000 HD
ENDROOT
BRANCH   1  24
ATOM     23  C   UNL     1       0.417   2.148  19.016  0.00  0.00    +0.000 C 
ATOM     24  O   UNL     1       0.673   3.314  19.777  0.00  0.00    +0.000 OA
ENDBRANCH   1  24
TORSDOF 1
ENDMDL
MODEL 6
REMARK VINA RESULT:      -7.1      2.839      8.042
REMARK  Name = 
REMARK  2 active torsions:
REMARK  status: ('A' for Active; 'I' for Inactive)
REMARK    1  A    between atoms: C_1  and  O_2
REMARK    2  A    between atoms: O_2  and  C_3
REMARK                            x       y       z     vdW  Elec       q    Type
REMARK                         _______ _______ _______ _____ _____    ______ ____
ROOT
ATOM      1  C   UNL     1       2.855   6.842  19.316  0.00  0.00    +0.000 A 
ATOM      2  C   UNL     1       3.116   7.362  18.032  0.00  0.00    +0.000 A 
ATOM      3  C   UNL     1       2.482   8.545  17.562  0.00  0.00    +0.000 A 
ATOM      4  C   UNL     1       1.598   9.194  18.397  0.00  0.00    +0.000 A 
ATOM      5  C   UNL     1       1.330   8.602  19.630  0.00  0.00    +0.000 A 
ATOM      6  C   UNL     1       1.932   7.471  20.133  0.00  0.00    +0.000 A 
ATOM      7  C   UNL     1       0.248   9.341  20.237  0.00  0.00    +0.000 C 
ATOM      8  O   UNL     1      -0.420   8.909  21.154  0.00  0.00    +0.000 OA
ATOM      9  C   UNL     1       0.065  10.561  19.370  0.00  0.00    +0.000 C 
ATOM     10  C   UNL     1      -0.655  11.600  19.816  0.00  0.00    +0.000 C 
ATOM     11  C   UNL     1      -1.104  12.724  18.926  0.00  0.00    +0.000 C 
ATOM     12  O   UNL     1      -0.751  12.952  17.785  0.00  0.00    +0.000 OA
ATOM     13  N   UNL     1      -2.029  13.433  19.688  0.00  0.00    +0.000 N 
ATOM     14  C   UNL     1      -2.129  12.914  20.980  0.00  0.00    +0.000 A 
ATOM     15  C   UNL     1      -2.920  13.382  22.016  0.00  0.00    +0.000 A 
ATOM     16  C   UNL     1      -2.811  12.745  23.258  0.00  0.00    +0.000 A 
ATOM     17  C   UNL     1      -1.879  11.720  23.452  0.00  0.00    +0.000 A 
ATOM     18  C   UNL     1      -1.072  11.294  22.398  0.00  0.00    +0.000 A 
ATOM     19  C   UNL     1      -1.259  11.837  21.137  0.00  0.00    +0.000 A 
ATOM     20  N   UNL     1       0.764  10.300  18.190  0.00  0.00    +0.000 N 
ATOM     21  H   UNL     1      -2.523  14.244  19.349  0.00  0.00    +0.000 HD
ATOM     22  H   UNL     1       0.966  11.055  17.543  0.00  0.00    +0.000 HD
ENDROOT
BRANCH   1  24
ATOM     23  C   UNL     1       4.582   5.214  19.331  0.00  0.00    +0.000 C 
ATOM     24  O   UNL     1       3.374   5.712  19.878  0.00  0.00    +0.000 OA
ENDBRANCH   1  24
TORSDOF 1
ENDMDL
MODEL 7
REMARK VINA RESULT:      -7.0      1.784      3.244
REMARK  Name = 
REMARK  2 active torsions:
REMARK  status: ('A' for Active; 'I' for Inactive)
REMARK    1  A    between atoms: C_1  and  O_2
REMARK    2  A    between atoms: O_2  and  C_3
REMARK                            x       y       z     vdW  Elec       q    Type
REMARK                         _______ _______ _______ _____ _____    ______ ____
ROOT
ATOM      1  C   UNL     1      -0.257   9.910  21.750  0.00  0.00    +0.000 A 
ATOM      2  C   UNL     1       0.282  10.862  20.860  0.00  0.00    +0.000 A 
ATOM      3  C   UNL     1       1.172  10.488  19.816  0.00  0.00    +0.000 A 
ATOM      4  C   UNL     1       1.501   9.157  19.677  0.00  0.00    +0.000 A 
ATOM      5  C   UNL     1       0.990   8.269  20.621  0.00  0.00    +0.000 A 
ATOM      6  C   UNL     1       0.113   8.582  21.635  0.00  0.00    +0.000 A 
ATOM      7  C   UNL     1       1.617   6.989  20.392  0.00  0.00    +0.000 C 
ATOM      8  O   UNL     1       1.626   6.096  21.216  0.00  0.00    +0.000 OA
ATOM      9  C   UNL     1       2.356   7.136  19.087  0.00  0.00    +0.000 C 
ATOM     10  C   UNL     1       2.800   6.048  18.440  0.00  0.00    +0.000 C 
ATOM     11  C   UNL     1       3.763   6.119  17.290  0.00  0.00    +0.000 C 
ATOM     12  O   UNL     1       4.121   7.110  16.683  0.00  0.00    +0.000 OA
ATOM     13  N   UNL     1       4.172   4.803  17.087  0.00  0.00    +0.000 N 
ATOM     14  C   UNL     1       3.495   3.924  17.933  0.00  0.00    +0.000 A 
ATOM     15  C   UNL     1       3.620   2.546  17.989  0.00  0.00    +0.000 A 
ATOM     16  C   UNL     1       2.787   1.850  18.873  0.00  0.00    +0.000 A 
ATOM     17  C   UNL     1       1.817   2.530  19.618  0.00  0.00    +0.000 A 
ATOM     18  C   UNL     1       1.692   3.914  19.514  0.00  0.00    +0.000 A 
ATOM     19  C   UNL     1       2.591   4.620  18.732  0.00  0.00    +0.000 A 
ATOM     20  N   UNL     1       2.406   8.507  18.827  0.00  0.00    +0.000 N 
ATOM     21  H   UNL     1       4.841   4.532  16.383  0.00  0.00    +0.000 HD
ATOM     22  H   UNL     1       2.662   8.838  17.904  0.00  0.00    +0.000 HD
ENDROOT
BRANCH   1  24
ATOM     23  C   UNL     1      -1.488  11.475  23.042  0.00  0.00    +0.000 C 
ATOM     24  O   UNL     1      -1.099  10.135  22.799  0.00  0.00    +0.000 OA
ENDBRANCH   1  24
TORSDOF 1
ENDMDL
MODEL 8
REMARK VINA RESULT:      -7.0      1.961      6.798
REMARK  Name = 
REMARK  2 active torsions:
REMARK  status: ('A' for Active; 'I' for Inactive)
REMARK    1  A    between atoms: C_1  and  O_2
REMARK    2  A    between atoms: O_2  and  C_3
REMARK                            x       y       z     vdW  Elec       q    Type
REMARK                         _______ _______ _______ _____ _____    ______ ____
ROOT
ATOM      1  C   UNL     1       3.534   5.428  17.873  0.00  0.00    +0.000 A 
ATOM      2  C   UNL     1       3.495   4.740  19.104  0.00  0.00    +0.000 A 
ATOM      3  C   UNL     1       2.850   5.289  20.246  0.00  0.00    +0.000 A 
ATOM      4  C   UNL     1       2.244   6.521  20.131  0.00  0.00    +0.000 A 
ATOM      5  C   UNL     1       2.367   7.184  18.911  0.00  0.00    +0.000 A 
ATOM      6  C   UNL     1       2.964   6.685  17.776  0.00  0.00    +0.000 A 
ATOM      7  C   UNL     1       1.832   8.513  19.087  0.00  0.00    +0.000 C 
ATOM      8  O   UNL     1       2.064   9.429  18.324  0.00  0.00    +0.000 OA
ATOM      9  C   UNL     1       1.166   8.498  20.439  0.00  0.00    +0.000 C 
ATOM     10  C   UNL     1       0.320   9.480  20.782  0.00  0.00    +0.000 C 
ATOM     11  C   UNL     1      -0.170   9.681  22.187  0.00  0.00    +0.000 C 
ATOM     12  O   UNL     1      -0.040   8.928  23.133  0.00  0.00    +0.000 OA
ATOM     13  N   UNL     1      -0.787  10.930  22.173  0.00  0.00    +0.000 N 
ATOM     14  C   UNL     1      -0.804  11.475  20.889  0.00  0.00    +0.000 A 
ATOM     15  C   UNL     1      -1.360  12.680  20.493  0.00  0.00    +0.000 A 
ATOM     16  C   UNL     1      -1.321  13.000  19.131  0.00  0.00    +0.000 A 
ATOM     17  C   UNL     1      -0.799  12.093  18.203  0.00  0.00    +0.000 A 
ATOM     18  C   UNL     1      -0.279  10.873  18.628  0.00  0.00    +0.000 A 
ATOM     19  C   UNL     1      -0.205  10.601  19.985  0.00  0.00    +0.000 A 
ATOM     20  N   UNL     1       1.627   7.347  21.080  0.00  0.00    +0.000 N 
ATOM     21  H   UNL     1      -1.204  11.351  22.989  0.00  0.00    +0.000 HD
ATOM     22  H   UNL     1       1.158   7.008  21.913  0.00  0.00    +0.000 HD
ENDROOT
BRANCH   1  24
ATOM     23  C   UNL     1       5.107   4.004  16.810  0.00  0.00    +0.000 C 
ATOM     24  O   UNL     1       4.133   5.027  16.715  0.00  0.00    +0.000 OA
ENDBRANCH   1  24
TORSDOF 1
ENDMDL
MODEL 9
REMARK VINA RESULT:      -7.0      2.355      4.028
REMARK  Name = 
REMARK  2 active torsions:
REMARK  status: ('A' for Active; 'I' for Inactive)
REMARK    1  A    between atoms: C_1  and  O_2
REMARK    2  A    between atoms: O_2  and  C_3
REMARK                            x       y       z     vdW  Elec       q    Type
REMARK                         _______ _______ _______ _____ _____    ______ ____
ROOT
ATOM      1  C   UNL     1      -1.638  11.621  22.596  0.00  0.00    +0.000 A 
ATOM      2  C   UNL     1      -1.568  12.516  21.509  0.00  0.00    +0.000 A 
ATOM      3  C   UNL     1      -0.790  12.229  20.353  0.00  0.00    +0.000 A 
ATOM      4  C   UNL     1      -0.100  11.037  20.305  0.00  0.00    +0.000 A 
ATOM      5  C   UNL     1      -0.154  10.219  21.432  0.00  0.00    +0.000 A 
ATOM      6  C   UNL     1      -0.906  10.447  22.562  0.00  0.00    +0.000 A 
ATOM      7  C   UNL     1       0.786   9.142  21.228  0.00  0.00    +0.000 C 
ATOM      8  O   UNL     1       1.201   8.442  22.130  0.00  0.00    +0.000 OA
ATOM      9  C   UNL     1       1.220   9.260  19.790  0.00  0.00    +0.000 C 
ATOM     10  C   UNL     1       1.861   8.242  19.196  0.00  0.00    +0.000 C 
ATOM     11  C   UNL     1       2.554   8.377  17.870  0.00  0.00    +0.000 C 
ATOM     12  O   UNL     1       2.489   9.308  17.091  0.00  0.00    +0.000 OA
ATOM     13  N   UNL     1       3.305   7.211  17.742  0.00  0.00    +0.000 N 
ATOM     14  C   UNL     1       3.075   6.338  18.807  0.00  0.00    +0.000 A 
ATOM     15  C   UNL     1       3.621   5.079  18.995  0.00  0.00    +0.000 A 
ATOM     16  C   UNL     1       3.196   4.344  20.108  0.00  0.00    +0.000 A 
ATOM     17  C   UNL     1       2.201   4.848  20.954  0.00  0.00    +0.000 A 
ATOM     18  C   UNL     1       1.646   6.104  20.718  0.00  0.00    +0.000 A 
ATOM     19  C   UNL     1       2.147   6.885  19.689  0.00  0.00    +0.000 A 
ATOM     20  N   UNL     1       0.808  10.525  19.368  0.00  0.00    +0.000 N 
ATOM     21  H   UNL     1       3.899   7.018  16.950  0.00  0.00    +0.000 HD
ATOM     22  H   UNL     1       0.795  10.750  18.379  0.00  0.00    +0.000 HD
ENDROOT
BRANCH   1  24
ATOM     23  C   UNL     1      -3.471  12.611  23.732  0.00  0.00    +0.000 C 
ATOM     24  O   UNL     1      -2.323  11.782  23.764  0.00  0.00    +0.000 OA
ENDBRANCH   1  24
TORSDOF 1
ENDMDL
