MODEL 1
REMARK VINA RESULT:      -7.7      0.000      0.000
REMARK  Name = 
REMARK  9 active torsions:
REMARK  status: ('A' for Active; 'I' for Inactive)
REMARK    1  A    between atoms: N_15  and  C_16
REMARK    2  A    between atoms: C_16  and  C_17
REMARK    3  A    between atoms: C_17  and  N_18
REMARK    4  A    between atoms: N_18  and  C_19
REMARK    5  A    between atoms: C_19  and  C_20
REMARK    6  A    between atoms: C_20  and  O_21
REMARK    7  A    between atoms: O_21  and  C_22
REMARK    8  A    between atoms: C_25  and  O_26
REMARK    9  A    between atoms: O_26  and  C_27
REMARK                            x       y       z     vdW  Elec       q    Type
REMARK                         _______ _______ _______ _____ _____    ______ ____
ROOT
ATOM      1  C   UNL     1       2.116   6.268  18.009  0.00  0.00    +0.000 C 
ENDROOT
BRANCH   1   2
ATOM      2  N   UNL     1       1.725   5.123  18.850  0.00  0.00    +0.000 NA
ATOM      3  H   UNL     1       0.937   5.397  19.440  0.00  0.00    +0.000 HD
BRANCH   2   4
ATOM      4  C   UNL     1       1.354   3.916  18.092  0.00  0.00    +0.000 C 
BRANCH   4   5
ATOM      5  C   UNL     1       2.152   2.676  18.505  0.00  0.00    +0.000 C 
BRANCH   5   6
ATOM      6  O   UNL     1       3.243   2.463  17.609  0.00  0.00    +0.000 OA
BRANCH   6   7
ATOM      7  C   UNL     1       4.315   3.286  17.841  0.00  0.00    +0.000 A 
ATOM      8  C   UNL     1       4.954   3.769  16.703  0.00  0.00    +0.000 A 
ATOM      9  C   UNL     1       6.066   4.604  16.824  0.00  0.00    +0.000 A 
ATOM     10  C   UNL     1       6.535   4.990  18.083  0.00  0.00    +0.000 A 
ATOM     11  C   UNL     1       5.914   4.487  19.221  0.00  0.00    +0.000 A 
ATOM     12  C   UNL     1       4.793   3.662  19.100  0.00  0.00    +0.000 A 
BRANCH  10  13
ATOM     13  O   UNL     1       7.625   5.801  18.068  0.00  0.00    +0.000 OA
BRANCH  13  14
ATOM     14  C   UNL     1       7.481   7.152  17.645  0.00  0.00    +0.000 C 
ATOM     15  F   UNL     1       6.218   7.628  17.698  0.00  0.00    +0.000 F 
ATOM     16  F   UNL     1       8.272   7.941  18.404  0.00  0.00    +0.000 F 
ATOM     17  F   UNL     1       7.899   7.244  16.365  0.00  0.00    +0.000 F 
ENDBRANCH  13  14
ENDBRANCH  10  13
ENDBRANCH   6   7
ENDBRANCH   5   6
ENDBRANCH   4   5
ENDBRANCH   2   4
ENDBRANCH   1   2
BRANCH   1  18
ATOM     18  C   UNL     1       2.813   7.406  18.776  0.00  0.00    +0.000 C 
BRANCH  18  33
ATOM     19  O   UNL     1       1.478   7.005  21.172  0.00  0.00    +0.000 OA
ATOM     20  C   UNL     1       1.336   8.081  20.599  0.00  0.00    +0.000 C 
ATOM     21  C   UNL     1       0.546   9.155  21.240  0.00  0.00    +0.000 A 
ATOM     22  C   UNL     1       0.112   9.003  22.562  0.00  0.00    +0.000 A 
ATOM     23  C   UNL     1      -0.617  10.017  23.176  0.00  0.00    +0.000 A 
ATOM     24  C   UNL     1      -0.932  11.176  22.464  0.00  0.00    +0.000 A 
ATOM     25  C   UNL     1      -0.512  11.339  21.133  0.00  0.00    +0.000 A 
ATOM     26  C   UNL     1      -0.830  12.495  20.404  0.00  0.00    +0.000 A 
ATOM     27  C   UNL     1      -0.400  12.650  19.086  0.00  0.00    +0.000 A 
ATOM     28  C   UNL     1       0.362  11.655  18.482  0.00  0.00    +0.000 A 
ATOM     29  C   UNL     1       0.691  10.497  19.199  0.00  0.00    +0.000 A 
ATOM     30  C   UNL     1       0.248  10.318  20.516  0.00  0.00    +0.000 A 
ATOM     31  C   UNL     1       1.548   9.474  18.569  0.00  0.00    +0.000 C 
ATOM     32  O   UNL     1       1.932   9.634  17.414  0.00  0.00    +0.000 OA
ATOM     33  N   UNL     1       1.882   8.369  19.347  0.00  0.00    +0.000 N 
ENDBRANCH  18  33
ENDBRANCH   1  18
TORSDOF 9
ENDMDL
MODEL 2
REMARK VINA RESULT:      -7.6      2.615      4.566
REMARK  Name = 
REMARK  9 active torsions:
REMARK  status: ('A' for Active; 'I' for Inactive)
REMARK    1  A    between atoms: N_15  and  C_16
REMARK    2  A    between atoms: C_16  and  C_17
REMARK    3  A    between atoms: C_17  and  N_18
REMARK    4  A    between atoms: N_18  and  C_19
REMARK    5  A    between atoms: C_19  and  C_20
REMARK    6  A    between atoms: C_20  and  O_21
REMARK    7  A    between atoms: O_21  and  C_22
REMARK    8  A    between atoms: C_25  and  O_26
REMARK    9  A    between atoms: O_26  and  C_27
REMARK                            x       y       z     vdW  Elec       q    Type
REMARK                         _______ _______ _______ _____ _____    ______ ____
ROOT
ATOM      1  C   UNL     1       3.896   7.323  17.998  0.00  0.00    +0.000 C 
ENDROOT
BRANCH   1   2
ATOM      2  N   UNL     1       4.213   7.234  16.561  0.00  0.00    +0.000 NA
ATOM      3  H   UNL     1       4.028   8.137  16.122  0.00  0.00    +0.000 HD
BRANCH   2   4
ATOM      4  C   UNL     1       5.603   6.840  16.273  0.00  0.00    +0.000 C 
BRANCH   4   5
ATOM      5  C   UNL     1       6.336   6.281  17.495  0.00  0.00    +0.000 C 
BRANCH   5   6
ATOM      6  O   UNL     1       6.475   4.863  17.388  0.00  0.00    +0.000 OA
BRANCH   6   7
ATOM      7  C   UNL     1       5.369   4.168  17.803  0.00  0.00    +0.000 A 
ATOM      8  C   UNL     1       5.219   4.050  19.181  0.00  0.00    +0.000 A 
ATOM      9  C   UNL     1       4.134   3.349  19.711  0.00  0.00    +0.000 A 
ATOM     10  C   UNL     1       3.171   2.782  18.871  0.00  0.00    +0.000 A 
ATOM     11  C   UNL     1       3.334   2.877  17.493  0.00  0.00    +0.000 A 
ATOM     12  C   UNL     1       4.412   3.590  16.963  0.00  0.00    +0.000 A 
BRANCH  10  13
ATOM     13  O   UNL     1       2.167   2.124  19.507  0.00  0.00    +0.000 OA
BRANCH  13  14
ATOM     14  C   UNL     1       1.019   2.849  19.931  0.00  0.00    +0.000 C 
ATOM     15  F   UNL     1       0.758   2.769  21.254  0.00  0.00    +0.000 F 
ATOM     16  F   UNL     1       1.168   4.149  19.599  0.00  0.00    +0.000 F 
ATOM     17  F   UNL     1      -0.056   2.367  19.272  0.00  0.00    +0.000 F 
ENDBRANCH  13  14
ENDBRANCH  10  13
ENDBRANCH   6   7
ENDBRANCH   5   6
ENDBRANCH   4   5
ENDBRANCH   2   4
ENDBRANCH   1   2
BRANCH   1  18
ATOM     18  C   UNL     1       2.412   7.087  18.333  0.00  0.00    +0.000 C 
BRANCH  18  33
ATOM     19  O   UNL     1       2.153   9.662  17.342  0.00  0.00    +0.000 OA
ATOM     20  C   UNL     1       1.670   9.410  18.441  0.00  0.00    +0.000 C 
ATOM     21  C   UNL     1       0.890  10.445  19.155  0.00  0.00    +0.000 A 
ATOM     22  C   UNL     1       0.562  11.639  18.503  0.00  0.00    +0.000 A 
ATOM     23  C   UNL     1      -0.187  12.609  19.163  0.00  0.00    +0.000 A 
ATOM     24  C   UNL     1      -0.591  12.397  20.483  0.00  0.00    +0.000 A 
ATOM     25  C   UNL     1      -0.261  11.207  21.154  0.00  0.00    +0.000 A 
ATOM     26  C   UNL     1      -0.654  10.986  22.482  0.00  0.00    +0.000 A 
ATOM     27  C   UNL     1      -0.328   9.797  23.135  0.00  0.00    +0.000 A 
ATOM     28  C   UNL     1       0.387   8.810  22.466  0.00  0.00    +0.000 A 
ATOM     29  C   UNL     1       0.782   9.014  21.137  0.00  0.00    +0.000 A 
ATOM     30  C   UNL     1       0.480  10.212  20.475  0.00  0.00    +0.000 A 
ATOM     31  C   UNL     1       1.489   7.937  20.417  0.00  0.00    +0.000 C 
ATOM     32  O   UNL     1       1.752   6.890  21.002  0.00  0.00    +0.000 OA
ATOM     33  N   UNL     1       1.812   8.179  19.086  0.00  0.00    +0.000 N 
ENDBRANCH  18  33
ENDBRANCH   1  18
TORSDOF 9
ENDMDL
MODEL 3
REMARK VINA RESULT:      -7.6      4.342      7.127
REMARK  Name = 
REMARK  9 active torsions:
REMARK  status: ('A' for Active; 'I' for Inactive)
REMARK    1  A    between atoms: N_15  and  C_16
REMARK    2  A    between atoms: C_16  and  C_17
REMARK    3  A    between atoms: C_17  and  N_18
REMARK    4  A    between atoms: N_18  and  C_19
REMARK    5  A    between atoms: C_19  and  C_20
REMARK    6  A    between atoms: C_20  and  O_21
REMARK    7  A    between atoms: O_21  and  C_22
REMARK    8  A    between atoms: C_25  and  O_26
REMARK    9  A    between atoms: O_26  and  C_27
REMARK                            x       y       z     vdW  Elec       q    Type
REMARK                         _______ _______ _______ _____ _____    ______ ____
ROOT
ATOM      1  C   UNL     1       7.096   4.832  16.412  0.00  0.00    +0.000 C 
ENDROOT
BRANCH   1   2
ATOM      2  N   UNL     1       7.587   6.222  16.411  0.00  0.00    +0.000 NA
ATOM      3  H   UNL     1       6.933   6.805  15.886  0.00  0.00    +0.000 HD
BRANCH   2   4
ATOM      4  C   UNL     1       7.767   6.798  17.755  0.00  0.00    +0.000 C 
BRANCH   4   5
ATOM      5  C   UNL     1       7.952   8.318  17.738  0.00  0.00    +0.000 C 
BRANCH   5   6
ATOM      6  O   UNL     1       8.698   8.743  18.879  0.00  0.00    +0.000 OA
BRANCH   6   7
ATOM      7  C   UNL     1       9.058  10.065  18.843  0.00  0.00    +0.000 A 
ATOM      8  C   UNL     1       9.833  10.503  19.912  0.00  0.00    +0.000 A 
ATOM      9  C   UNL     1      10.243  11.835  19.982  0.00  0.00    +0.000 A 
ATOM     10  C   UNL     1       9.909  12.739  18.969  0.00  0.00    +0.000 A 
ATOM     11  C   UNL     1       9.113  12.309  17.913  0.00  0.00    +0.000 A 
ATOM     12  C   UNL     1       8.714  10.972  17.836  0.00  0.00    +0.000 A 
BRANCH  10  13
ATOM     13  O   UNL     1      10.365  14.006  19.154  0.00  0.00    +0.000 OA
BRANCH  13  14
ATOM     14  C   UNL     1       9.686  14.864  20.063  0.00  0.00    +0.000 C 
ATOM     15  F   UNL     1       8.401  14.524  20.307  0.00  0.00    +0.000 F 
ATOM     16  F   UNL     1      10.356  14.888  21.235  0.00  0.00    +0.000 F 
ATOM     17  F   UNL     1       9.688  16.113  19.551  0.00  0.00    +0.000 F 
ENDBRANCH  13  14
ENDBRANCH  10  13
ENDBRANCH   6   7
ENDBRANCH   5   6
ENDBRANCH   4   5
ENDBRANCH   2   4
ENDBRANCH   1   2
BRANCH   1  18
ATOM     18  C   UNL     1       5.599   4.691  16.082  0.00  0.00    +0.000 C 
BRANCH  18  33
ATOM     19  O   UNL     1       4.876   7.366  16.056  0.00  0.00    +0.000 OA
ATOM     20  C   UNL     1       4.379   6.637  16.909  0.00  0.00    +0.000 C 
ATOM     21  C   UNL     1       3.350   7.175  17.825  0.00  0.00    +0.000 A 
ATOM     22  C   UNL     1       2.825   8.454  17.606  0.00  0.00    +0.000 A 
ATOM     23  C   UNL     1       1.845   8.958  18.455  0.00  0.00    +0.000 A 
ATOM     24  C   UNL     1       1.401   8.196  19.537  0.00  0.00    +0.000 A 
ATOM     25  C   UNL     1       1.925   6.913  19.775  0.00  0.00    +0.000 A 
ATOM     26  C   UNL     1       1.494   6.141  20.864  0.00  0.00    +0.000 A 
ATOM     27  C   UNL     1       2.015   4.866  21.086  0.00  0.00    +0.000 A 
ATOM     28  C   UNL     1       2.967   4.343  20.217  0.00  0.00    +0.000 A 
ATOM     29  C   UNL     1       3.404   5.102  19.123  0.00  0.00    +0.000 A 
ATOM     30  C   UNL     1       2.905   6.391  18.900  0.00  0.00    +0.000 A 
ATOM     31  C   UNL     1       4.371   4.515  18.175  0.00  0.00    +0.000 C 
ATOM     32  O   UNL     1       4.807   3.384  18.376  0.00  0.00    +0.000 OA
ATOM     33  N   UNL     1       4.730   5.296  17.081  0.00  0.00    +0.000 N 
ENDBRANCH  18  33
ENDBRANCH   1  18
TORSDOF 9
ENDMDL
MODEL 4
REMARK VINA RESULT:      -7.6      2.793      4.122
REMARK  Name = 
REMARK  9 active torsions:
REMARK  status: ('A' for Active; 'I' for Inactive)
REMARK    1  A    between atoms: N_15  and  C_16
REMARK    2  A    between atoms: C_16  and  C_17
REMARK    3  A    between atoms: C_17  and  N_18
REMARK    4  A    between atoms: N_18  and  C_19
REMARK    5  A    between atoms: C_19  and  C_20
REMARK    6  A    between atoms: C_20  and  O_21
REMARK    7  A    between atoms: O_21  and  C_22
REMARK    8  A    between atoms: C_25  and  O_26
REMARK    9  A    between atoms: O_26  and  C_27
REMARK                            x       y       z     vdW  Elec       q    Type
REMARK                         _______ _______ _______ _____ _____    ______ ____
ROOT
ATOM      1  C   UNL     1       1.009   9.246  21.649  0.00  0.00    +0.000 C 
ENDROOT
BRANCH   1   2
ATOM      2  N   UNL     1       0.848   8.003  20.872  0.00  0.00    +0.000 NA
ATOM      3  H   UNL     1       0.288   8.200  20.042  0.00  0.00    +0.000 HD
BRANCH   2   4
ATOM      4  C   UNL     1       2.117   7.383  20.455  0.00  0.00    +0.000 C 
BRANCH   4   5
ATOM      5  C   UNL     1       1.945   5.961  19.914  0.00  0.00    +0.000 C 
BRANCH   5   6
ATOM      6  O   UNL     1       3.069   5.154  20.266  0.00  0.00    +0.000 OA
BRANCH   6   7
ATOM      7  C   UNL     1       3.907   4.886  19.216  0.00  0.00    +0.000 A 
ATOM      8  C   UNL     1       3.323   4.230  18.137  0.00  0.00    +0.000 A 
ATOM      9  C   UNL     1       4.091   3.897  17.019  0.00  0.00    +0.000 A 
ATOM     10  C   UNL     1       5.444   4.242  16.954  0.00  0.00    +0.000 A 
ATOM     11  C   UNL     1       6.035   4.875  18.042  0.00  0.00    +0.000 A 
ATOM     12  C   UNL     1       5.264   5.220  19.155  0.00  0.00    +0.000 A 
BRANCH  10  13
ATOM     13  O   UNL     1       6.082   3.860  15.816  0.00  0.00    +0.000 OA
BRANCH  13  14
ATOM     14  C   UNL     1       5.940   4.648  14.641  0.00  0.00    +0.000 C 
ATOM     15  F   UNL     1       5.089   4.143  13.722  0.00  0.00    +0.000 F 
ATOM     16  F   UNL     1       5.518   5.885  14.984  0.00  0.00    +0.000 F 
ATOM     17  F   UNL     1       7.151   4.764  14.057  0.00  0.00    +0.000 F 
ENDBRANCH  13  14
ENDBRANCH  10  13
ENDBRANCH   6   7
ENDBRANCH   5   6
ENDBRANCH   4   5
ENDBRANCH   2   4
ENDBRANCH   1   2
BRANCH   1  18
ATOM     18  C   UNL     1       1.125  10.517  20.789  0.00  0.00    +0.000 C 
BRANCH  18  33
ATOM     19  O   UNL     1       0.626   9.746  18.175  0.00  0.00    +0.000 OA
ATOM     20  C   UNL     1      -0.262  10.328  18.789  0.00  0.00    +0.000 C 
ATOM     21  C   UNL     1      -1.589  10.514  18.162  0.00  0.00    +0.000 A 
ATOM     22  C   UNL     1      -1.878   9.879  16.948  0.00  0.00    +0.000 A 
ATOM     23  C   UNL     1      -3.130  10.037  16.362  0.00  0.00    +0.000 A 
ATOM     24  C   UNL     1      -4.089  10.845  16.976  0.00  0.00    +0.000 A 
ATOM     25  C   UNL     1      -3.810  11.496  18.190  0.00  0.00    +0.000 A 
ATOM     26  C   UNL     1      -4.762  12.318  18.811  0.00  0.00    +0.000 A 
ATOM     27  C   UNL     1      -4.478  12.953  20.020  0.00  0.00    +0.000 A 
ATOM     28  C   UNL     1      -3.241  12.767  20.629  0.00  0.00    +0.000 A 
ATOM     29  C   UNL     1      -2.282  11.945  20.022  0.00  0.00    +0.000 A 
ATOM     30  C   UNL     1      -2.546  11.318  18.797  0.00  0.00    +0.000 A 
ATOM     31  C   UNL     1      -0.994  11.708  20.704  0.00  0.00    +0.000 C 
ATOM     32  O   UNL     1      -0.767  12.261  21.777  0.00  0.00    +0.000 OA
ATOM     33  N   UNL     1      -0.102  10.844  20.077  0.00  0.00    +0.000 N 
ENDBRANCH  18  33
ENDBRANCH   1  18
TORSDOF 9
ENDMDL
MODEL 5
REMARK VINA RESULT:      -7.5      2.574      3.997
REMARK  Name = 
REMARK  9 active torsions:
REMARK  status: ('A' for Active; 'I' for Inactive)
REMARK    1  A    between atoms: N_15  and  C_16
REMARK    2  A    between atoms: C_16  and  C_17
REMARK    3  A    between atoms: C_17  and  N_18
REMARK    4  A    between atoms: N_18  and  C_19
REMARK    5  A    between atoms: C_19  and  C_20
REMARK    6  A    between atoms: C_20  and  O_21
REMARK    7  A    between atoms: O_21  and  C_22
REMARK    8  A    between atoms: C_25  and  O_26
REMARK    9  A    between atoms: O_26  and  C_27
REMARK                            x       y       z     vdW  Elec       q    Type
REMARK                         _______ _______ _______ _____ _____    ______ ____
ROOT
ATOM      1  C   UNL     1       4.270   7.129  18.434  0.00  0.00    +0.000 C 
ENDROOT
BRANCH   1   2
ATOM      2  N   UNL     1       4.806   7.346  17.078  0.00  0.00    +0.000 NA
ATOM      3  H   UNL     1       4.658   8.321  16.813  0.00  0.00    +0.000 HD
BRANCH   2   4
ATOM      4  C   UNL     1       6.238   7.027  16.938  0.00  0.00    +0.000 C 
BRANCH   4   5
ATOM      5  C   UNL     1       6.767   6.126  18.057  0.00  0.00    +0.000 C 
BRANCH   5   6
ATOM      6  O   UNL     1       6.785   4.762  17.633  0.00  0.00    +0.000 OA
BRANCH   6   7
ATOM      7  C   UNL     1       5.613   4.094  17.874  0.00  0.00    +0.000 A 
ATOM      8  C   UNL     1       5.344   3.823  19.212  0.00  0.00    +0.000 A 
ATOM      9  C   UNL     1       4.184   3.134  19.569  0.00  0.00    +0.000 A 
ATOM     10  C   UNL     1       3.264   2.733  18.596  0.00  0.00    +0.000 A 
ATOM     11  C   UNL     1       3.544   2.980  17.257  0.00  0.00    +0.000 A 
ATOM     12  C   UNL     1       4.698   3.682  16.900  0.00  0.00    +0.000 A 
BRANCH  10  13
ATOM     13  O   UNL     1       2.177   2.069  19.069  0.00  0.00    +0.000 OA
BRANCH  13  14
ATOM     14  C   UNL     1       0.992   2.797  19.369  0.00  0.00    +0.000 C 
ATOM     15  F   UNL     1       1.020   4.096  19.000  0.00  0.00    +0.000 F 
ATOM     16  F   UNL     1      -0.060   2.200  18.768  0.00  0.00    +0.000 F 
ATOM     17  F   UNL     1       0.793   2.755  20.704  0.00  0.00    +0.000 F 
ENDBRANCH  13  14
ENDBRANCH  10  13
ENDBRANCH   6   7
ENDBRANCH   5   6
ENDBRANCH   4   5
ENDBRANCH   2   4
ENDBRANCH   1   2
BRANCH   1  18
ATOM     18  C   UNL     1       2.763   6.817  18.474  0.00  0.00    +0.000 C 
BRANCH  18  33
ATOM     19  O   UNL     1       1.483   6.493  20.911  0.00  0.00    +0.000 OA
ATOM     20  C   UNL     1       1.447   7.597  20.377  0.00  0.00    +0.000 C 
ATOM     21  C   UNL     1       0.815   8.733  21.082  0.00  0.00    +0.000 A 
ATOM     22  C   UNL     1       0.417   8.588  22.416  0.00  0.00    +0.000 A 
ATOM     23  C   UNL     1      -0.162   9.658  23.090  0.00  0.00    +0.000 A 
ATOM     24  C   UNL     1      -0.365  10.870  22.427  0.00  0.00    +0.000 A 
ATOM     25  C   UNL     1       0.021  11.029  21.085  0.00  0.00    +0.000 A 
ATOM     26  C   UNL     1      -0.186  12.238  20.405  0.00  0.00    +0.000 A 
ATOM     27  C   UNL     1       0.208  12.387  19.075  0.00  0.00    +0.000 A 
ATOM     28  C   UNL     1       0.823  11.331  18.411  0.00  0.00    +0.000 A 
ATOM     29  C   UNL     1       1.040  10.119  19.078  0.00  0.00    +0.000 A 
ATOM     30  C   UNL     1       0.630   9.948  20.407  0.00  0.00    +0.000 A 
ATOM     31  C   UNL     1       1.745   9.024  18.382  0.00  0.00    +0.000 C 
ATOM     32  O   UNL     1       2.101   9.178  17.217  0.00  0.00    +0.000 OA
ATOM     33  N   UNL     1       1.975   7.862  19.112  0.00  0.00    +0.000 N 
ENDBRANCH  18  33
ENDBRANCH   1  18
TORSDOF 9
ENDMDL
MODEL 6
REMARK VINA RESULT:      -7.5      1.538      2.099
REMARK  Name = 
REMARK  9 active torsions:
REMARK  status: ('A' for Active; 'I' for Inactive)
REMARK    1  A    between atoms: N_15  and  C_16
REMARK    2  A    between atoms: C_16  and  C_17
REMARK    3  A    between atoms: C_17  and  N_18
REMARK    4  A    between atoms: N_18  and  C_19
REMARK    5  A    between atoms: C_19  and  C_20
REMARK    6  A    between atoms: C_20  and  O_21
REMARK    7  A    between atoms: O_21  and  C_22
REMARK    8  A    between atoms: C_25  and  O_26
REMARK    9  A    between atoms: O_26  and  C_27
REMARK                            x       y       z     vdW  Elec       q    Type
REMARK                         _______ _______ _______ _____ _____    ______ ____
ROOT
ATOM      1  C   UNL     1       2.007   6.427  19.454  0.00  0.00    +0.000 C 
ENDROOT
BRANCH   1   2
ATOM      2  N   UNL     1       1.894   5.709  20.737  0.00  0.00    +0.000 NA
ATOM      3  H   UNL     1       1.455   6.323  21.425  0.00  0.00    +0.000 HD
BRANCH   2   4
ATOM      4  C   UNL     1       1.128   4.454  20.660  0.00  0.00    +0.000 C 
BRANCH   4   5
ATOM      5  C   UNL     1       1.919   3.234  21.143  0.00  0.00    +0.000 C 
BRANCH   5   6
ATOM      6  O   UNL     1       2.188   2.351  20.054  0.00  0.00    +0.000 OA
BRANCH   6   7
ATOM      7  C   UNL     1       3.009   2.888  19.097  0.00  0.00    +0.000 A 
ATOM      8  C   UNL     1       4.256   3.310  19.547  0.00  0.00    +0.000 A 
ATOM      9  C   UNL     1       5.166   3.885  18.657  0.00  0.00    +0.000 A 
ATOM     10  C   UNL     1       4.851   4.019  17.302  0.00  0.00    +0.000 A 
ATOM     11  C   UNL     1       3.595   3.622  16.856  0.00  0.00    +0.000 A 
ATOM     12  C   UNL     1       2.690   3.034  17.743  0.00  0.00    +0.000 A 
BRANCH  10  13
ATOM     13  O   UNL     1       5.817   4.596  16.540  0.00  0.00    +0.000 OA
BRANCH  13  14
ATOM     14  C   UNL     1       5.784   6.001  16.321  0.00  0.00    +0.000 C 
ATOM     15  F   UNL     1       6.971   6.626  16.483  0.00  0.00    +0.000 F 
ATOM     16  F   UNL     1       5.336   6.245  15.071  0.00  0.00    +0.000 F 
ATOM     17  F   UNL     1       4.911   6.548  17.195  0.00  0.00    +0.000 F 
ENDBRANCH  13  14
ENDBRANCH  10  13
ENDBRANCH   6   7
ENDBRANCH   5   6
ENDBRANCH   4   5
ENDBRANCH   2   4
ENDBRANCH   1   2
BRANCH   1  18
ATOM     18  C   UNL     1       2.458   7.893  19.588  0.00  0.00    +0.000 C 
BRANCH  18  33
ATOM     19  O   UNL     1       1.337   8.236  22.099  0.00  0.00    +0.000 OA
ATOM     20  C   UNL     1       0.939   8.947  21.182  0.00  0.00    +0.000 C 
ATOM     21  C   UNL     1      -0.043  10.019  21.456  0.00  0.00    +0.000 A 
ATOM     22  C   UNL     1      -0.382  10.328  22.779  0.00  0.00    +0.000 A 
ATOM     23  C   UNL     1      -1.292  11.347  23.044  0.00  0.00    +0.000 A 
ATOM     24  C   UNL     1      -1.882  12.045  21.989  0.00  0.00    +0.000 A 
ATOM     25  C   UNL     1      -1.559  11.740  20.655  0.00  0.00    +0.000 A 
ATOM     26  C   UNL     1      -2.151  12.428  19.586  0.00  0.00    +0.000 A 
ATOM     27  C   UNL     1      -1.816  12.123  18.266  0.00  0.00    +0.000 A 
ATOM     28  C   UNL     1      -0.878  11.132  17.999  0.00  0.00    +0.000 A 
ATOM     29  C   UNL     1      -0.275  10.439  19.057  0.00  0.00    +0.000 A 
ATOM     30  C   UNL     1      -0.617  10.720  20.386  0.00  0.00    +0.000 A 
ATOM     31  C   UNL     1       0.762   9.430  18.765  0.00  0.00    +0.000 C 
ATOM     32  O   UNL     1       1.058   9.186  17.598  0.00  0.00    +0.000 OA
ATOM     33  N   UNL     1       1.361   8.811  19.858  0.00  0.00    +0.000 N 
ENDBRANCH  18  33
ENDBRANCH   1  18
TORSDOF 9
ENDMDL
MODEL 7
REMARK VINA RESULT:      -7.5      2.576      4.397
REMARK  Name = 
REMARK  9 active torsions:
REMARK  status: ('A' for Active; 'I' for Inactive)
REMARK    1  A    between atoms: N_15  and  C_16
REMARK    2  A    between atoms: C_16  and  C_17
REMARK    3  A    between atoms: C_17  and  N_18
REMARK    4  A    between atoms: N_18  and  C_19
REMARK    5  A    between atoms: C_19  and  C_20
REMARK    6  A    between atoms: C_20  and  O_21
REMARK    7  A    between atoms: O_21  and  C_22
REMARK    8  A    between atoms: C_25  and  O_26
REMARK    9  A    between atoms: O_26  and  C_27
REMARK                            x       y       z     vdW  Elec       q    Type
REMARK                         _______ _______ _______ _____ _____    ______ ____
ROOT
ATOM      1  C   UNL     1       3.670   7.640  17.999  0.00  0.00    +0.000 C 
ENDROOT
BRANCH   1   2
ATOM      2  N   UNL     1       4.096   7.222  16.651  0.00  0.00    +0.000 NA
ATOM      3  H   UNL     1       3.947   7.994  15.999  0.00  0.00    +0.000 HD
BRANCH   2   4
ATOM      4  C   UNL     1       5.503   6.794  16.568  0.00  0.00    +0.000 C 
BRANCH   4   5
ATOM      5  C   UNL     1       5.710   5.573  15.669  0.00  0.00    +0.000 C 
BRANCH   5   6
ATOM      6  O   UNL     1       6.218   4.474  16.427  0.00  0.00    +0.000 OA
BRANCH   6   7
ATOM      7  C   UNL     1       5.341   4.000  17.367  0.00  0.00    +0.000 A 
ATOM      8  C   UNL     1       4.277   3.255  16.870  0.00  0.00    +0.000 A 
ATOM      9  C   UNL     1       3.317   2.735  17.740  0.00  0.00    +0.000 A 
ATOM     10  C   UNL     1       3.424   2.930  19.121  0.00  0.00    +0.000 A 
ATOM     11  C   UNL     1       4.473   3.697  19.616  0.00  0.00    +0.000 A 
ATOM     12  C   UNL     1       5.441   4.205  18.747  0.00  0.00    +0.000 A 
BRANCH  10  13
ATOM     13  O   UNL     1       2.426   2.379  19.860  0.00  0.00    +0.000 OA
BRANCH  13  14
ATOM     14  C   UNL     1       1.161   3.026  19.915  0.00  0.00    +0.000 C 
ATOM     15  F   UNL     1       0.230   2.517  19.079  0.00  0.00    +0.000 F 
ATOM     16  F   UNL     1       0.686   2.966  21.178  0.00  0.00    +0.000 F 
ATOM     17  F   UNL     1       1.334   4.326  19.592  0.00  0.00    +0.000 F 
ENDBRANCH  13  14
ENDBRANCH  10  13
ENDBRANCH   6   7
ENDBRANCH   5   6
ENDBRANCH   4   5
ENDBRANCH   2   4
ENDBRANCH   1   2
BRANCH   1  18
ATOM     18  C   UNL     1       2.164   7.471  18.266  0.00  0.00    +0.000 C 
BRANCH  18  33
ATOM     19  O   UNL     1       1.949  10.093  17.393  0.00  0.00    +0.000 OA
ATOM     20  C   UNL     1       1.476   9.803  18.487  0.00  0.00    +0.000 C 
ATOM     21  C   UNL     1       0.730  10.822  19.257  0.00  0.00    +0.000 A 
ATOM     22  C   UNL     1       0.420  12.052  18.664  0.00  0.00    +0.000 A 
ATOM     23  C   UNL     1      -0.297  13.007  19.377  0.00  0.00    +0.000 A 
ATOM     24  C   UNL     1      -0.687  12.746  20.692  0.00  0.00    +0.000 A 
ATOM     25  C   UNL     1      -0.375  11.520  21.305  0.00  0.00    +0.000 A 
ATOM     26  C   UNL     1      -0.754  11.249  22.628  0.00  0.00    +0.000 A 
ATOM     27  C   UNL     1      -0.447  10.026  23.223  0.00  0.00    +0.000 A 
ATOM     28  C   UNL     1       0.236   9.053  22.500  0.00  0.00    +0.000 A 
ATOM     29  C   UNL     1       0.617   9.308  21.176  0.00  0.00    +0.000 A 
ATOM     30  C   UNL     1       0.333  10.540  20.572  0.00  0.00    +0.000 A 
ATOM     31  C   UNL     1       1.289   8.248  20.399  0.00  0.00    +0.000 C 
ATOM     32  O   UNL     1       1.537   7.170  20.933  0.00  0.00    +0.000 OA
ATOM     33  N   UNL     1       1.598   8.542  19.074  0.00  0.00    +0.000 N 
ENDBRANCH  18  33
ENDBRANCH   1  18
TORSDOF 9
ENDMDL
MODEL 8
REMARK VINA RESULT:      -7.5      5.011      8.174
REMARK  Name = 
REMARK  9 active torsions:
REMARK  status: ('A' for Active; 'I' for Inactive)
REMARK    1  A    between atoms: N_15  and  C_16
REMARK    2  A    between atoms: C_16  and  C_17
REMARK    3  A    between atoms: C_17  and  N_18
REMARK    4  A    between atoms: N_18  and  C_19
REMARK    5  A    between atoms: C_19  and  C_20
REMARK    6  A    between atoms: C_20  and  O_21
REMARK    7  A    between atoms: O_21  and  C_22
REMARK    8  A    between atoms: C_25  and  O_26
REMARK    9  A    between atoms: O_26  and  C_27
REMARK                            x       y       z     vdW  Elec       q    Type
REMARK                         _______ _______ _______ _____ _____    ______ ____
ROOT
ATOM      1  C   UNL     1       7.383   6.045  17.238  0.00  0.00    +0.000 C 
ENDROOT
BRANCH   1   2
ATOM      2  N   UNL     1       7.716   7.141  18.166  0.00  0.00    +0.000 NA
ATOM      3  H   UNL     1       8.656   6.990  18.537  0.00  0.00    +0.000 HD
BRANCH   2   4
ATOM      4  C   UNL     1       7.654   8.483  17.562  0.00  0.00    +0.000 C 
BRANCH   4   5
ATOM      5  C   UNL     1       8.363   9.553  18.397  0.00  0.00    +0.000 C 
BRANCH   5   6
ATOM      6  O   UNL     1       9.577   9.957  17.763  0.00  0.00    +0.000 OA
BRANCH   6   7
ATOM      7  C   UNL     1       9.912  11.266  17.994  0.00  0.00    +0.000 A 
ATOM      8  C   UNL     1       8.884  12.186  17.816  0.00  0.00    +0.000 A 
ATOM      9  C   UNL     1       9.120  13.548  18.013  0.00  0.00    +0.000 A 
ATOM     10  C   UNL     1      10.378  14.004  18.417  0.00  0.00    +0.000 A 
ATOM     11  C   UNL     1      11.413  13.088  18.570  0.00  0.00    +0.000 A 
ATOM     12  C   UNL     1      11.174  11.724  18.387  0.00  0.00    +0.000 A 
BRANCH  10  13
ATOM     13  O   UNL     1      10.481  15.350  18.571  0.00  0.00    +0.000 OA
BRANCH  13  14
ATOM     14  C   UNL     1      10.709  16.166  17.428  0.00  0.00    +0.000 C 
ATOM     15  F   UNL     1      11.614  17.152  17.609  0.00  0.00    +0.000 F 
ATOM     16  F   UNL     1      11.117  15.389  16.402  0.00  0.00    +0.000 F 
ATOM     17  F   UNL     1       9.540  16.744  17.078  0.00  0.00    +0.000 F 
ENDBRANCH  13  14
ENDBRANCH  10  13
ENDBRANCH   6   7
ENDBRANCH   5   6
ENDBRANCH   4   5
ENDBRANCH   2   4
ENDBRANCH   1   2
BRANCH   1  18
ATOM     18  C   UNL     1       6.025   6.208  16.531  0.00  0.00    +0.000 C 
BRANCH  18  33
ATOM     19  O   UNL     1       5.258   3.570  16.165  0.00  0.00    +0.000 OA
ATOM     20  C   UNL     1       4.689   4.227  17.031  0.00  0.00    +0.000 C 
ATOM     21  C   UNL     1       3.694   3.575  17.910  0.00  0.00    +0.000 A 
ATOM     22  C   UNL     1       3.530   2.186  17.865  0.00  0.00    +0.000 A 
ATOM     23  C   UNL     1       2.607   1.566  18.701  0.00  0.00    +0.000 A 
ATOM     24  C   UNL     1       1.830   2.334  19.570  0.00  0.00    +0.000 A 
ATOM     25  C   UNL     1       1.976   3.731  19.621  0.00  0.00    +0.000 A 
ATOM     26  C   UNL     1       1.194   4.515  20.483  0.00  0.00    +0.000 A 
ATOM     27  C   UNL     1       1.353   5.899  20.531  0.00  0.00    +0.000 A 
ATOM     28  C   UNL     1       2.303   6.518  19.724  0.00  0.00    +0.000 A 
ATOM     29  C   UNL     1       3.093   5.748  18.862  0.00  0.00    +0.000 A 
ATOM     30  C   UNL     1       2.930   4.359  18.787  0.00  0.00    +0.000 A 
ATOM     31  C   UNL     1       4.137   6.408  18.052  0.00  0.00    +0.000 C 
ATOM     32  O   UNL     1       4.275   7.626  18.120  0.00  0.00    +0.000 OA
ATOM     33  N   UNL     1       4.923   5.585  17.252  0.00  0.00    +0.000 N 
ENDBRANCH  18  33
ENDBRANCH   1  18
TORSDOF 9
ENDMDL
MODEL 9
REMARK VINA RESULT:      -7.4      4.168      7.421
REMARK  Name = 
REMARK  9 active torsions:
REMARK  status: ('A' for Active; 'I' for Inactive)
REMARK    1  A    between atoms: N_15  and  C_16
REMARK    2  A    between atoms: C_16  and  C_17
REMARK    3  A    between atoms: C_17  and  N_18
REMARK    4  A    between atoms: N_18  and  C_19
REMARK    5  A    between atoms: C_19  and  C_20
REMARK    6  A    between atoms: C_20  and  O_21
REMARK    7  A    between atoms: O_21  and  C_22
REMARK    8  A    between atoms: C_25  and  O_26
REMARK    9  A    between atoms: O_26  and  C_27
REMARK                            x       y       z     vdW  Elec       q    Type
REMARK                         _______ _______ _______ _____ _____    ______ ____
ROOT
ATOM      1  C   UNL     1       6.610   5.520  15.705  0.00  0.00    +0.000 C 
ENDROOT
BRANCH   1   2
ATOM      2  N   UNL     1       7.680   5.716  16.699  0.00  0.00    +0.000 NA
ATOM      3  H   UNL     1       8.518   6.056  16.225  0.00  0.00    +0.000 HD
BRANCH   2   4
ATOM      4  C   UNL     1       7.333   6.652  17.782  0.00  0.00    +0.000 C 
BRANCH   4   5
ATOM      5  C   UNL     1       7.894   8.060  17.565  0.00  0.00    +0.000 C 
BRANCH   5   6
ATOM      6  O   UNL     1       8.463   8.563  18.774  0.00  0.00    +0.000 OA
BRANCH   6   7
ATOM      7  C   UNL     1       8.804   9.889  18.714  0.00  0.00    +0.000 A 
ATOM      8  C   UNL     1       9.709  10.318  19.681  0.00  0.00    +0.000 A 
ATOM      9  C   UNL     1      10.114  11.653  19.719  0.00  0.00    +0.000 A 
ATOM     10  C   UNL     1       9.643  12.570  18.774  0.00  0.00    +0.000 A 
ATOM     11  C   UNL     1       8.719  12.148  17.824  0.00  0.00    +0.000 A 
ATOM     12  C   UNL     1       8.325  10.809  17.776  0.00  0.00    +0.000 A 
BRANCH  10  13
ATOM     13  O   UNL     1      10.108  13.838  18.920  0.00  0.00    +0.000 OA
BRANCH  13  14
ATOM     14  C   UNL     1      11.462  14.124  18.592  0.00  0.00    +0.000 C 
ATOM     15  F   UNL     1      12.314  14.102  19.641  0.00  0.00    +0.000 F 
ATOM     16  F   UNL     1      11.892  13.237  17.669  0.00  0.00    +0.000 F 
ATOM     17  F   UNL     1      11.517  15.358  18.047  0.00  0.00    +0.000 F 
ENDBRANCH  13  14
ENDBRANCH  10  13
ENDBRANCH   6   7
ENDBRANCH   5   6
ENDBRANCH   4   5
ENDBRANCH   2   4
ENDBRANCH   1   2
BRANCH   1  18
ATOM     18  C   UNL     1       5.332   6.330  15.985  0.00  0.00    +0.000 C 
BRANCH  18  33
ATOM     19  O   UNL     1       4.719   3.633  15.816  0.00  0.00    +0.000 OA
ATOM     20  C   UNL     1       4.250   4.279  16.747  0.00  0.00    +0.000 C 
ATOM     21  C   UNL     1       3.461   3.592  17.793  0.00  0.00    +0.000 A 
ATOM     22  C   UNL     1       3.399   2.193  17.810  0.00  0.00    +0.000 A 
ATOM     23  C   UNL     1       2.673   1.541  18.802  0.00  0.00    +0.000 A 
ATOM     24  C   UNL     1       1.990   2.283  19.766  0.00  0.00    +0.000 A 
ATOM     25  C   UNL     1       2.035   3.688  19.757  0.00  0.00    +0.000 A 
ATOM     26  C   UNL     1       1.345   4.446  20.716  0.00  0.00    +0.000 A 
ATOM     27  C   UNL     1       1.403   5.839  20.702  0.00  0.00    +0.000 A 
ATOM     28  C   UNL     1       2.160   6.494  19.735  0.00  0.00    +0.000 A 
ATOM     29  C   UNL     1       2.857   5.750  18.775  0.00  0.00    +0.000 A 
ATOM     30  C   UNL     1       2.791   4.351  18.763  0.00  0.00    +0.000 A 
ATOM     31  C   UNL     1       3.704   6.452  17.789  0.00  0.00    +0.000 C 
ATOM     32  O   UNL     1       3.758   7.679  17.802  0.00  0.00    +0.000 OA
ATOM     33  N   UNL     1       4.411   5.658  16.892  0.00  0.00    +0.000 N 
ENDBRANCH  18  33
ENDBRANCH   1  18
TORSDOF 9
ENDMDL
