MODEL 1
REMARK VINA RESULT:      -7.9      0.000      0.000
REMARK  Name = 
REMARK  3 active torsions:
REMARK  status: ('A' for Active; 'I' for Inactive)
REMARK    1  A    between atoms: N_7  and  C_8
REMARK    2  A    between atoms: C_8  and  C_9
REMARK    3  A    between atoms: C_13  and  N_14
REMARK                            x       y       z     vdW  Elec       q    Type
REMARK                         _______ _______ _______ _____ _____    ______ ____
ROOT
ATOM      1  O   UNL     1       2.970   2.688  20.202  0.00  0.00    +0.000 OA
ATOM      2  C   UNL     1       2.669   3.830  19.863  0.00  0.00    +0.000 A 
ATOM      3  C   UNL     1       2.052   4.724  20.857  0.00  0.00    +0.000 A 
ATOM      4  C   UNL     1       1.764   6.002  20.583  0.00  0.00    +0.000 A 
ATOM      5  C   UNL     1       2.142   6.477  19.230  0.00  0.00    +0.000 A 
ATOM      6  N   UNL     1       2.636   5.704  18.306  0.00  0.00    +0.000 NA
ATOM      7  N   UNL     1       2.860   4.372  18.603  0.00  0.00    +0.000 N 
ATOM      8  C   UNL     1       1.949   7.932  18.951  0.00  0.00    +0.000 A 
ATOM      9  C   UNL     1       2.354   8.447  17.707  0.00  0.00    +0.000 A 
ATOM     10  C   UNL     1       2.218   9.807  17.415  0.00  0.00    +0.000 A 
ATOM     11  C   UNL     1       1.669  10.666  18.357  0.00  0.00    +0.000 A 
ATOM     12  C   UNL     1       1.267  10.169  19.593  0.00  0.00    +0.000 A 
ATOM     13  C   UNL     1       1.407   8.802  19.906  0.00  0.00    +0.000 A 
ATOM     14  C   UNL     1       0.988   8.363  21.275  0.00  0.00    +0.000 C 
ATOM     15  C   UNL     1       1.093   6.876  21.588  0.00  0.00    +0.000 C 
ENDROOT
BRANCH   7  16
ATOM     16  C   UNL     1       3.541   3.573  17.590  0.00  0.00    +0.000 C 
BRANCH  16  17
ATOM     17  C   UNL     1       4.960   4.005  17.271  0.00  0.00    +0.000 A 
ATOM     18  C   UNL     1       5.816   4.447  18.294  0.00  0.00    +0.000 A 
ATOM     19  C   UNL     1       7.066   5.003  18.001  0.00  0.00    +0.000 A 
ATOM     20  C   UNL     1       7.480   5.128  16.677  0.00  0.00    +0.000 A 
ATOM     21  C   UNL     1       6.651   4.657  15.650  0.00  0.00    +0.000 A 
ATOM     22  C   UNL     1       5.402   4.084  15.940  0.00  0.00    +0.000 A 
BRANCH  21  23
ATOM     23  N   UNL     1       7.077   4.807  14.253  0.00  0.00    +0.000 N 
ATOM     24  O   UNL     1       6.473   4.152  13.391  0.00  0.00    +0.000 OA
ATOM     25  O   UNL     1       8.018   5.578  14.014  0.00  0.00    +0.000 OA
ENDBRANCH  21  23
ENDBRANCH  16  17
ENDBRANCH   7  16
TORSDOF 3
ENDMDL
MODEL 2
REMARK VINA RESULT:      -7.9      1.863      2.138
REMARK  Name = 
REMARK  3 active torsions:
REMARK  status: ('A' for Active; 'I' for Inactive)
REMARK    1  A    between atoms: N_7  and  C_8
REMARK    2  A    between atoms: C_8  and  C_9
REMARK    3  A    between atoms: C_13  and  N_14
REMARK                            x       y       z     vdW  Elec       q    Type
REMARK                         _______ _______ _______ _____ _____    ______ ____
ROOT
ATOM      1  O   UNL     1       2.902   2.856  19.736  0.00  0.00    +0.000 OA
ATOM      2  C   UNL     1       2.590   4.021  19.503  0.00  0.00    +0.000 A 
ATOM      3  C   UNL     1       1.996   4.825  20.585  0.00  0.00    +0.000 A 
ATOM      4  C   UNL     1       1.698   6.120  20.428  0.00  0.00    +0.000 A 
ATOM      5  C   UNL     1       2.040   6.710  19.112  0.00  0.00    +0.000 A 
ATOM      6  N   UNL     1       2.513   6.022  18.113  0.00  0.00    +0.000 NA
ATOM      7  N   UNL     1       2.747   4.670  18.290  0.00  0.00    +0.000 N 
ATOM      8  C   UNL     1       1.836   8.182  18.962  0.00  0.00    +0.000 A 
ATOM      9  C   UNL     1       2.208   8.804  17.758  0.00  0.00    +0.000 A 
ATOM     10  C   UNL     1       2.061  10.183  17.586  0.00  0.00    +0.000 A 
ATOM     11  C   UNL     1       1.534  10.956  18.611  0.00  0.00    +0.000 A 
ATOM     12  C   UNL     1       1.165  10.354  19.810  0.00  0.00    +0.000 A 
ATOM     13  C   UNL     1       1.317   8.965  20.002  0.00  0.00    +0.000 A 
ATOM     14  C   UNL     1       0.933   8.410  21.339  0.00  0.00    +0.000 C 
ATOM     15  C   UNL     1       1.050   6.902  21.521  0.00  0.00    +0.000 C 
ENDROOT
BRANCH   7  16
ATOM     16  C   UNL     1       3.404   3.964  17.195  0.00  0.00    +0.000 C 
BRANCH  16  17
ATOM     17  C   UNL     1       4.827   4.401  16.904  0.00  0.00    +0.000 A 
ATOM     18  C   UNL     1       5.438   4.069  15.682  0.00  0.00    +0.000 A 
ATOM     19  C   UNL     1       6.797   4.318  15.462  0.00  0.00    +0.000 A 
ATOM     20  C   UNL     1       7.569   4.905  16.462  0.00  0.00    +0.000 A 
ATOM     21  C   UNL     1       6.963   5.276  17.670  0.00  0.00    +0.000 A 
ATOM     22  C   UNL     1       5.596   5.040  17.890  0.00  0.00    +0.000 A 
BRANCH  21  23
ATOM     23  N   UNL     1       7.779   5.875  18.733  0.00  0.00    +0.000 N 
ATOM     24  O   UNL     1       8.076   5.164  19.705  0.00  0.00    +0.000 OA
ATOM     25  O   UNL     1       8.126   7.058  18.600  0.00  0.00    +0.000 OA
ENDBRANCH  21  23
ENDBRANCH  16  17
ENDBRANCH   7  16
TORSDOF 3
ENDMDL
MODEL 3
REMARK VINA RESULT:      -7.8      3.256      5.745
REMARK  Name = 
REMARK  3 active torsions:
REMARK  status: ('A' for Active; 'I' for Inactive)
REMARK    1  A    between atoms: N_7  and  C_8
REMARK    2  A    between atoms: C_8  and  C_9
REMARK    3  A    between atoms: C_13  and  N_14
REMARK                            x       y       z     vdW  Elec       q    Type
REMARK                         _______ _______ _______ _____ _____    ______ ____
ROOT
ATOM      1  O   UNL     1       3.061   7.746  16.625  0.00  0.00    +0.000 OA
ATOM      2  C   UNL     1       2.562   8.206  17.649  0.00  0.00    +0.000 A 
ATOM      3  C   UNL     1       1.664   9.369  17.538  0.00  0.00    +0.000 A 
ATOM      4  C   UNL     1       1.027   9.879  18.599  0.00  0.00    +0.000 A 
ATOM      5  C   UNL     1       1.246   9.178  19.887  0.00  0.00    +0.000 A 
ATOM      6  N   UNL     1       2.073   8.184  20.037  0.00  0.00    +0.000 NA
ATOM      7  N   UNL     1       2.765   7.724  18.931  0.00  0.00    +0.000 N 
ATOM      8  C   UNL     1       0.442   9.651  21.054  0.00  0.00    +0.000 A 
ATOM      9  C   UNL     1       0.561   8.979  22.282  0.00  0.00    +0.000 A 
ATOM     10  C   UNL     1      -0.193   9.370  23.392  0.00  0.00    +0.000 A 
ATOM     11  C   UNL     1      -1.068  10.443  23.291  0.00  0.00    +0.000 A 
ATOM     12  C   UNL     1      -1.197  11.116  22.080  0.00  0.00    +0.000 A 
ATOM     13  C   UNL     1      -0.451  10.726  20.948  0.00  0.00    +0.000 A 
ATOM     14  C   UNL     1      -0.686  11.480  19.676  0.00  0.00    +0.000 C 
ATOM     15  C   UNL     1       0.162  11.087  18.473  0.00  0.00    +0.000 C 
ENDROOT
BRANCH   7  16
ATOM     16  C   UNL     1       3.576   6.525  19.110  0.00  0.00    +0.000 C 
BRANCH  16  17
ATOM     17  C   UNL     1       2.799   5.225  19.200  0.00  0.00    +0.000 A 
ATOM     18  C   UNL     1       1.915   4.852  18.172  0.00  0.00    +0.000 A 
ATOM     19  C   UNL     1       1.070   3.747  18.312  0.00  0.00    +0.000 A 
ATOM     20  C   UNL     1       1.093   2.995  19.484  0.00  0.00    +0.000 A 
ATOM     21  C   UNL     1       1.996   3.334  20.501  0.00  0.00    +0.000 A 
ATOM     22  C   UNL     1       2.857   4.434  20.359  0.00  0.00    +0.000 A 
BRANCH  21  23
ATOM     23  N   UNL     1       2.007   2.556  21.746  0.00  0.00    +0.000 N 
ATOM     24  O   UNL     1       3.083   2.055  22.105  0.00  0.00    +0.000 OA
ATOM     25  O   UNL     1       0.940   2.442  22.367  0.00  0.00    +0.000 OA
ENDBRANCH  21  23
ENDBRANCH  16  17
ENDBRANCH   7  16
TORSDOF 3
ENDMDL
MODEL 4
REMARK VINA RESULT:      -7.7      3.990      7.849
REMARK  Name = 
REMARK  3 active torsions:
REMARK  status: ('A' for Active; 'I' for Inactive)
REMARK    1  A    between atoms: N_7  and  C_8
REMARK    2  A    between atoms: C_8  and  C_9
REMARK    3  A    between atoms: C_13  and  N_14
REMARK                            x       y       z     vdW  Elec       q    Type
REMARK                         _______ _______ _______ _____ _____    ______ ____
ROOT
ATOM      1  O   UNL     1       2.600   9.976  17.607  0.00  0.00    +0.000 OA
ATOM      2  C   UNL     1       2.523   8.846  18.084  0.00  0.00    +0.000 A 
ATOM      3  C   UNL     1       3.275   7.754  17.443  0.00  0.00    +0.000 A 
ATOM      4  C   UNL     1       3.298   6.515  17.947  0.00  0.00    +0.000 A 
ATOM      5  C   UNL     1       2.554   6.315  19.213  0.00  0.00    +0.000 A 
ATOM      6  N   UNL     1       1.832   7.238  19.780  0.00  0.00    +0.000 NA
ATOM      7  N   UNL     1       1.778   8.491  19.196  0.00  0.00    +0.000 N 
ATOM      8  C   UNL     1       2.676   4.974  19.860  0.00  0.00    +0.000 A 
ATOM      9  C   UNL     1       2.046   4.752  21.097  0.00  0.00    +0.000 A 
ATOM     10  C   UNL     1       2.158   3.521  21.750  0.00  0.00    +0.000 A 
ATOM     11  C   UNL     1       2.892   2.495  21.172  0.00  0.00    +0.000 A 
ATOM     12  C   UNL     1       3.524   2.702  19.949  0.00  0.00    +0.000 A 
ATOM     13  C   UNL     1       3.429   3.942  19.284  0.00  0.00    +0.000 A 
ATOM     14  C   UNL     1       4.176   4.088  17.994  0.00  0.00    +0.000 C 
ATOM     15  C   UNL     1       4.026   5.412  17.255  0.00  0.00    +0.000 C 
ENDROOT
BRANCH   7  16
ATOM     16  C   UNL     1       1.072   9.535  19.931  0.00  0.00    +0.000 C 
BRANCH  16  17
ATOM     17  C   UNL     1       0.116  10.374  19.106  0.00  0.00    +0.000 A 
ATOM     18  C   UNL     1       0.116  11.776  19.223  0.00  0.00    +0.000 A 
ATOM     19  C   UNL     1      -0.864  12.553  18.598  0.00  0.00    +0.000 A 
ATOM     20  C   UNL     1      -1.864  11.942  17.846  0.00  0.00    +0.000 A 
ATOM     21  C   UNL     1      -1.854  10.549  17.691  0.00  0.00    +0.000 A 
ATOM     22  C   UNL     1      -0.863   9.765  18.304  0.00  0.00    +0.000 A 
BRANCH  21  23
ATOM     23  N   UNL     1      -2.919   9.901  16.916  0.00  0.00    +0.000 N 
ATOM     24  O   UNL     1      -3.828   9.336  17.542  0.00  0.00    +0.000 OA
ATOM     25  O   UNL     1      -2.849   9.953  15.679  0.00  0.00    +0.000 OA
ENDBRANCH  21  23
ENDBRANCH  16  17
ENDBRANCH   7  16
TORSDOF 3
ENDMDL
MODEL 5
REMARK VINA RESULT:      -7.7      1.679      1.993
REMARK  Name = 
REMARK  3 active torsions:
REMARK  status: ('A' for Active; 'I' for Inactive)
REMARK    1  A    between atoms: N_7  and  C_8
REMARK    2  A    between atoms: C_8  and  C_9
REMARK    3  A    between atoms: C_13  and  N_14
REMARK                            x       y       z     vdW  Elec       q    Type
REMARK                         _______ _______ _______ _____ _____    ______ ____
ROOT
ATOM      1  O   UNL     1       3.251   2.673  20.369  0.00  0.00    +0.000 OA
ATOM      2  C   UNL     1       2.919   3.793  19.990  0.00  0.00    +0.000 A 
ATOM      3  C   UNL     1       2.179   4.665  20.920  0.00  0.00    +0.000 A 
ATOM      4  C   UNL     1       1.849   5.922  20.605  0.00  0.00    +0.000 A 
ATOM      5  C   UNL     1       2.306   6.401  19.278  0.00  0.00    +0.000 A 
ATOM      6  N   UNL     1       2.911   5.646  18.407  0.00  0.00    +0.000 NA
ATOM      7  N   UNL     1       3.179   4.331  18.742  0.00  0.00    +0.000 N 
ATOM      8  C   UNL     1       2.061   7.841  18.963  0.00  0.00    +0.000 A 
ATOM      9  C   UNL     1       2.534   8.363  17.747  0.00  0.00    +0.000 A 
ATOM     10  C   UNL     1       2.351   9.711  17.424  0.00  0.00    +0.000 A 
ATOM     11  C   UNL     1       1.686  10.550  18.307  0.00  0.00    +0.000 A 
ATOM     12  C   UNL     1       1.215  10.046  19.516  0.00  0.00    +0.000 A 
ATOM     13  C   UNL     1       1.401   8.691  19.860  0.00  0.00    +0.000 A 
ATOM     14  C   UNL     1       0.899   8.247  21.199  0.00  0.00    +0.000 C 
ATOM     15  C   UNL     1       1.056   6.771  21.541  0.00  0.00    +0.000 C 
ENDROOT
BRANCH   7  16
ATOM     16  C   UNL     1       3.978   3.558  17.796  0.00  0.00    +0.000 C 
BRANCH  16  17
ATOM     17  C   UNL     1       5.024   4.349  17.034  0.00  0.00    +0.000 A 
ATOM     18  C   UNL     1       5.371   3.989  15.720  0.00  0.00    +0.000 A 
ATOM     19  C   UNL     1       6.445   4.599  15.064  0.00  0.00    +0.000 A 
ATOM     20  C   UNL     1       7.191   5.581  15.711  0.00  0.00    +0.000 A 
ATOM     21  C   UNL     1       6.832   5.975  17.007  0.00  0.00    +0.000 A 
ATOM     22  C   UNL     1       5.745   5.376  17.665  0.00  0.00    +0.000 A 
BRANCH  21  23
ATOM     23  N   UNL     1       7.630   6.995  17.699  0.00  0.00    +0.000 N 
ATOM     24  O   UNL     1       7.767   8.096  17.145  0.00  0.00    +0.000 OA
ATOM     25  O   UNL     1       8.124   6.697  18.797  0.00  0.00    +0.000 OA
ENDBRANCH  21  23
ENDBRANCH  16  17
ENDBRANCH   7  16
TORSDOF 3
ENDMDL
MODEL 6
REMARK VINA RESULT:      -7.6      3.158      5.137
REMARK  Name = 
REMARK  3 active torsions:
REMARK  status: ('A' for Active; 'I' for Inactive)
REMARK    1  A    between atoms: N_7  and  C_8
REMARK    2  A    between atoms: C_8  and  C_9
REMARK    3  A    between atoms: C_13  and  N_14
REMARK                            x       y       z     vdW  Elec       q    Type
REMARK                         _______ _______ _______ _____ _____    ______ ____
ROOT
ATOM      1  O   UNL     1       2.894   7.349  17.232  0.00  0.00    +0.000 OA
ATOM      2  C   UNL     1       2.346   7.985  18.129  0.00  0.00    +0.000 A 
ATOM      3  C   UNL     1       1.507   9.141  17.767  0.00  0.00    +0.000 A 
ATOM      4  C   UNL     1       0.822   9.835  18.683  0.00  0.00    +0.000 A 
ATOM      5  C   UNL     1       0.923   9.348  20.079  0.00  0.00    +0.000 A 
ATOM      6  N   UNL     1       1.697   8.367  20.447  0.00  0.00    +0.000 NA
ATOM      7  N   UNL     1       2.442   7.712  19.483  0.00  0.00    +0.000 N 
ATOM      8  C   UNL     1       0.063  10.028  21.093  0.00  0.00    +0.000 A 
ATOM      9  C   UNL     1       0.070   9.562  22.418  0.00  0.00    +0.000 A 
ATOM     10  C   UNL     1      -0.741  10.151  23.392  0.00  0.00    +0.000 A 
ATOM     11  C   UNL     1      -1.561  11.219  23.056  0.00  0.00    +0.000 A 
ATOM     12  C   UNL     1      -1.580  11.689  21.747  0.00  0.00    +0.000 A 
ATOM     13  C   UNL     1      -0.776  11.098  20.751  0.00  0.00    +0.000 A 
ATOM     14  C   UNL     1      -0.893  11.642  19.360  0.00  0.00    +0.000 C 
ATOM     15  C   UNL     1       0.018  11.033  18.301  0.00  0.00    +0.000 C 
ENDROOT
BRANCH   7  16
ATOM     16  C   UNL     1       3.189   6.534  19.911  0.00  0.00    +0.000 C 
BRANCH  16  17
ATOM     17  C   UNL     1       2.458   5.214  19.759  0.00  0.00    +0.000 A 
ATOM     18  C   UNL     1       1.404   4.880  20.627  0.00  0.00    +0.000 A 
ATOM     19  C   UNL     1       0.830   3.605  20.609  0.00  0.00    +0.000 A 
ATOM     20  C   UNL     1       1.301   2.640  19.722  0.00  0.00    +0.000 A 
ATOM     21  C   UNL     1       2.326   2.973  18.826  0.00  0.00    +0.000 A 
ATOM     22  C   UNL     1       2.896   4.256  18.830  0.00  0.00    +0.000 A 
BRANCH  21  23
ATOM     23  N   UNL     1       2.839   1.951  17.905  0.00  0.00    +0.000 N 
ATOM     24  O   UNL     1       3.650   1.126  18.349  0.00  0.00    +0.000 OA
ATOM     25  O   UNL     1       2.433   1.971  16.733  0.00  0.00    +0.000 OA
ENDBRANCH  21  23
ENDBRANCH  16  17
ENDBRANCH   7  16
TORSDOF 3
ENDMDL
MODEL 7
REMARK VINA RESULT:      -7.6      2.798      4.954
REMARK  Name = 
REMARK  3 active torsions:
REMARK  status: ('A' for Active; 'I' for Inactive)
REMARK    1  A    between atoms: N_7  and  C_8
REMARK    2  A    between atoms: C_8  and  C_9
REMARK    3  A    between atoms: C_13  and  N_14
REMARK                            x       y       z     vdW  Elec       q    Type
REMARK                         _______ _______ _______ _____ _____    ______ ____
ROOT
ATOM      1  O   UNL     1       6.819   7.269  16.251  0.00  0.00    +0.000 OA
ATOM      2  C   UNL     1       6.023   6.481  16.755  0.00  0.00    +0.000 A 
ATOM      3  C   UNL     1       4.789   7.011  17.361  0.00  0.00    +0.000 A 
ATOM      4  C   UNL     1       3.842   6.210  17.863  0.00  0.00    +0.000 A 
ATOM      5  C   UNL     1       4.090   4.754  17.737  0.00  0.00    +0.000 A 
ATOM      6  N   UNL     1       5.191   4.247  17.261  0.00  0.00    +0.000 NA
ATOM      7  N   UNL     1       6.177   5.106  16.811  0.00  0.00    +0.000 N 
ATOM      8  C   UNL     1       2.987   3.844  18.172  0.00  0.00    +0.000 A 
ATOM      9  C   UNL     1       3.144   2.457  18.012  0.00  0.00    +0.000 A 
ATOM     10  C   UNL     1       2.126   1.572  18.380  0.00  0.00    +0.000 A 
ATOM     11  C   UNL     1       0.945   2.061  18.920  0.00  0.00    +0.000 A 
ATOM     12  C   UNL     1       0.776   3.433  19.081  0.00  0.00    +0.000 A 
ATOM     13  C   UNL     1       1.789   4.339  18.705  0.00  0.00    +0.000 A 
ATOM     14  C   UNL     1       1.504   5.799  18.875  0.00  0.00    +0.000 C 
ATOM     15  C   UNL     1       2.623   6.768  18.516  0.00  0.00    +0.000 C 
ENDROOT
BRANCH   7  16
ATOM     16  C   UNL     1       7.334   4.502  16.160  0.00  0.00    +0.000 C 
BRANCH  16  17
ATOM     17  C   UNL     1       7.283   4.475  14.644  0.00  0.00    +0.000 A 
ATOM     18  C   UNL     1       8.070   5.363  13.889  0.00  0.00    +0.000 A 
ATOM     19  C   UNL     1       7.914   5.466  12.503  0.00  0.00    +0.000 A 
ATOM     20  C   UNL     1       6.968   4.683  11.847  0.00  0.00    +0.000 A 
ATOM     21  C   UNL     1       6.205   3.767  12.583  0.00  0.00    +0.000 A 
ATOM     22  C   UNL     1       6.367   3.649  13.973  0.00  0.00    +0.000 A 
BRANCH  21  23
ATOM     23  N   UNL     1       5.192   2.955  11.896  0.00  0.00    +0.000 N 
ATOM     24  O   UNL     1       4.063   3.446  11.744  0.00  0.00    +0.000 OA
ATOM     25  O   UNL     1       5.521   1.824  11.508  0.00  0.00    +0.000 OA
ENDBRANCH  21  23
ENDBRANCH  16  17
ENDBRANCH   7  16
TORSDOF 3
ENDMDL
MODEL 8
REMARK VINA RESULT:      -7.5      6.908      9.930
REMARK  Name = 
REMARK  3 active torsions:
REMARK  status: ('A' for Active; 'I' for Inactive)
REMARK    1  A    between atoms: N_7  and  C_8
REMARK    2  A    between atoms: C_8  and  C_9
REMARK    3  A    between atoms: C_13  and  N_14
REMARK                            x       y       z     vdW  Elec       q    Type
REMARK                         _______ _______ _______ _____ _____    ______ ____
ROOT
ATOM      1  O   UNL     1      -2.493  10.770  16.309  0.00  0.00    +0.000 OA
ATOM      2  C   UNL     1      -3.109  11.213  17.275  0.00  0.00    +0.000 A 
ATOM      3  C   UNL     1      -4.563  10.990  17.349  0.00  0.00    +0.000 A 
ATOM      4  C   UNL     1      -5.288  11.378  18.404  0.00  0.00    +0.000 A 
ATOM      5  C   UNL     1      -4.536  12.010  19.514  0.00  0.00    +0.000 A 
ATOM      6  N   UNL     1      -3.262  12.275  19.463  0.00  0.00    +0.000 NA
ATOM      7  N   UNL     1      -2.554  11.919  18.329  0.00  0.00    +0.000 N 
ATOM      8  C   UNL     1      -5.306  12.330  20.753  0.00  0.00    +0.000 A 
ATOM      9  C   UNL     1      -4.627  12.868  21.860  0.00  0.00    +0.000 A 
ATOM     10  C   UNL     1      -5.305  13.155  23.048  0.00  0.00    +0.000 A 
ATOM     11  C   UNL     1      -6.669  12.918  23.142  0.00  0.00    +0.000 A 
ATOM     12  C   UNL     1      -7.353  12.383  22.055  0.00  0.00    +0.000 A 
ATOM     13  C   UNL     1      -6.681  12.078  20.853  0.00  0.00    +0.000 A 
ATOM     14  C   UNL     1      -7.489  11.466  19.750  0.00  0.00    +0.000 C 
ATOM     15  C   UNL     1      -6.768  11.188  18.437  0.00  0.00    +0.000 C 
ENDROOT
BRANCH   7  16
ATOM     16  C   UNL     1      -1.108  12.107  18.365  0.00  0.00    +0.000 C 
BRANCH  16  17
ATOM     17  C   UNL     1      -0.362  11.206  19.331  0.00  0.00    +0.000 A 
ATOM     18  C   UNL     1       0.469  10.179  18.850  0.00  0.00    +0.000 A 
ATOM     19  C   UNL     1       1.031   9.238  19.719  0.00  0.00    +0.000 A 
ATOM     20  C   UNL     1       0.772   9.307  21.085  0.00  0.00    +0.000 A 
ATOM     21  C   UNL     1      -0.025  10.349  21.582  0.00  0.00    +0.000 A 
ATOM     22  C   UNL     1      -0.580  11.304  20.715  0.00  0.00    +0.000 A 
BRANCH  21  23
ATOM     23  N   UNL     1      -0.317  10.411  23.019  0.00  0.00    +0.000 N 
ATOM     24  O   UNL     1      -1.167  11.229  23.401  0.00  0.00    +0.000 OA
ATOM     25  O   UNL     1       0.303   9.644  23.771  0.00  0.00    +0.000 OA
ENDBRANCH  21  23
ENDBRANCH  16  17
ENDBRANCH   7  16
TORSDOF 3
ENDMDL
MODEL 9
REMARK VINA RESULT:      -7.5      4.618      8.411
REMARK  Name = 
REMARK  3 active torsions:
REMARK  status: ('A' for Active; 'I' for Inactive)
REMARK    1  A    between atoms: N_7  and  C_8
REMARK    2  A    between atoms: C_8  and  C_9
REMARK    3  A    between atoms: C_13  and  N_14
REMARK                            x       y       z     vdW  Elec       q    Type
REMARK                         _______ _______ _______ _____ _____    ______ ____
ROOT
ATOM      1  O   UNL     1       2.614  10.077  17.559  0.00  0.00    +0.000 OA
ATOM      2  C   UNL     1       2.524   8.947  18.033  0.00  0.00    +0.000 A 
ATOM      3  C   UNL     1       3.298   7.856  17.416  0.00  0.00    +0.000 A 
ATOM      4  C   UNL     1       3.307   6.617  17.922  0.00  0.00    +0.000 A 
ATOM      5  C   UNL     1       2.524   6.416  19.164  0.00  0.00    +0.000 A 
ATOM      6  N   UNL     1       1.783   7.339  19.708  0.00  0.00    +0.000 NA
ATOM      7  N   UNL     1       1.745   8.591  19.121  0.00  0.00    +0.000 N 
ATOM      8  C   UNL     1       2.628   5.076  19.815  0.00  0.00    +0.000 A 
ATOM      9  C   UNL     1       1.960   4.853  21.031  0.00  0.00    +0.000 A 
ATOM     10  C   UNL     1       2.054   3.623  21.688  0.00  0.00    +0.000 A 
ATOM     11  C   UNL     1       2.808   2.598  21.134  0.00  0.00    +0.000 A 
ATOM     12  C   UNL     1       3.476   2.806  19.931  0.00  0.00    +0.000 A 
ATOM     13  C   UNL     1       3.400   4.045  19.262  0.00  0.00    +0.000 A 
ATOM     14  C   UNL     1       4.187   4.192  17.996  0.00  0.00    +0.000 C 
ATOM     15  C   UNL     1       4.057   5.515  17.252  0.00  0.00    +0.000 C 
ENDROOT
BRANCH   7  16
ATOM     16  C   UNL     1       1.015   9.634  19.835  0.00  0.00    +0.000 C 
BRANCH  16  17
ATOM     17  C   UNL     1      -0.296  10.056  19.199  0.00  0.00    +0.000 A 
ATOM     18  C   UNL     1      -0.642   9.603  17.914  0.00  0.00    +0.000 A 
ATOM     19  C   UNL     1      -1.761  10.110  17.246  0.00  0.00    +0.000 A 
ATOM     20  C   UNL     1      -2.555  11.081  17.852  0.00  0.00    +0.000 A 
ATOM     21  C   UNL     1      -2.241  11.514  19.148  0.00  0.00    +0.000 A 
ATOM     22  C   UNL     1      -1.127  10.997  19.828  0.00  0.00    +0.000 A 
BRANCH  21  23
ATOM     23  N   UNL     1      -3.064  12.553  19.781  0.00  0.00    +0.000 N 
ATOM     24  O   UNL     1      -4.295  12.465  19.666  0.00  0.00    +0.000 OA
ATOM     25  O   UNL     1      -2.481  13.460  20.393  0.00  0.00    +0.000 OA
ENDBRANCH  21  23
ENDBRANCH  16  17
ENDBRANCH   7  16
TORSDOF 3
ENDMDL
