MODEL 1
REMARK VINA RESULT:      -7.8      0.000      0.000
REMARK  Name = 
REMARK  6 active torsions:
REMARK  status: ('A' for Active; 'I' for Inactive)
REMARK    1  A    between atoms: C_1  and  C_2
REMARK    2  A    between atoms: C_2  and  N_3
REMARK    3  A    between atoms: N_3  and  C_20
REMARK    4  A    between atoms: C_4  and  C_6
REMARK    5  A    between atoms: C_7  and  O_8
REMARK    6  A    between atoms: N_16  and  C_17
REMARK                            x       y       z     vdW  Elec       q    Type
REMARK                         _______ _______ _______ _____ _____    ______ ____
ROOT
ATOM      1  C   UNL     1       3.769   4.952  18.191  0.00  0.00    +0.000 A 
ATOM      2  C   UNL     1       3.317   6.209  18.000  0.00  0.00    +0.000 A 
ATOM      3  C   UNL     1       2.541   6.903  19.050  0.00  0.00    +0.000 A 
ATOM      4  C   UNL     1       2.176   8.257  18.957  0.00  0.00    +0.000 A 
ATOM      5  F   UNL     1       2.588   9.024  17.937  0.00  0.00    +0.000 F 
ATOM      6  C   UNL     1       1.385   8.868  19.925  0.00  0.00    +0.000 A 
ATOM      7  C   UNL     1       0.919   8.129  21.000  0.00  0.00    +0.000 A 
ATOM      8  C   UNL     1       1.264   6.781  21.115  0.00  0.00    +0.000 A 
ATOM      9  C   UNL     1       2.097   6.161  20.166  0.00  0.00    +0.000 A 
ATOM     10  N   UNL     1       2.587   4.835  20.336  0.00  0.00    +0.000 N 
ATOM     11  C   UNL     1       2.111   3.942  21.379  0.00  0.00    +0.000 C 
ATOM     12  C   UNL     1       3.648   4.379  19.555  0.00  0.00    +0.000 A 
ATOM     13  O   UNL     1       4.447   3.530  19.950  0.00  0.00    +0.000 OA
ENDROOT
BRANCH   1  15
ATOM     14  N   UNL     1       5.721   4.498  16.636  0.00  0.00    +0.000 N 
ATOM     15  C   UNL     1       4.403   4.235  17.027  0.00  0.00    +0.000 C 
ATOM     16  O   UNL     1       3.724   3.368  16.462  0.00  0.00    +0.000 OA
BRANCH  14  17
ATOM     17  C   UNL     1       6.605   5.370  17.320  0.00  0.00    +0.000 A 
ATOM     18  C   UNL     1       7.240   4.962  18.496  0.00  0.00    +0.000 A 
ATOM     19  C   UNL     1       8.064   5.849  19.187  0.00  0.00    +0.000 A 
ATOM     20  C   UNL     1       8.237   7.151  18.717  0.00  0.00    +0.000 A 
ATOM     21  C   UNL     1       7.620   7.556  17.534  0.00  0.00    +0.000 A 
ATOM     22  C   UNL     1       6.827   6.659  16.819  0.00  0.00    +0.000 A 
ENDBRANCH  14  17
BRANCH  14  24
ATOM     23  C   UNL     1       5.847   4.439  14.128  0.00  0.00    +0.000 C 
ATOM     24  C   UNL     1       6.280   3.812  15.455  0.00  0.00    +0.000 C 
ENDBRANCH  14  24
ENDBRANCH   1  15
BRANCH   2  25
ATOM     25  O   UNL     1       3.473   6.912  16.819  0.00  0.00    +0.000 OA
ATOM     26  H   UNL     1       2.581   7.155  16.481  0.00  0.00    +0.000 HD
ENDBRANCH   2  25
TORSDOF 4
ENDMDL
MODEL 2
REMARK VINA RESULT:      -6.8      2.092      3.435
REMARK  Name = 
REMARK  6 active torsions:
REMARK  status: ('A' for Active; 'I' for Inactive)
REMARK    1  A    between atoms: C_1  and  C_2
REMARK    2  A    between atoms: C_2  and  N_3
REMARK    3  A    between atoms: N_3  and  C_20
REMARK    4  A    between atoms: C_4  and  C_6
REMARK    5  A    between atoms: C_7  and  O_8
REMARK    6  A    between atoms: N_16  and  C_17
REMARK                            x       y       z     vdW  Elec       q    Type
REMARK                         _______ _______ _______ _____ _____    ______ ____
ROOT
ATOM      1  C   UNL     1       3.621   6.567  18.174  0.00  0.00    +0.000 A 
ATOM      2  C   UNL     1       2.906   7.701  18.028  0.00  0.00    +0.000 A 
ATOM      3  C   UNL     1       2.013   8.179  19.106  0.00  0.00    +0.000 A 
ATOM      4  C   UNL     1       1.364   9.425  19.061  0.00  0.00    +0.000 A 
ATOM      5  F   UNL     1       1.589  10.294  18.065  0.00  0.00    +0.000 F 
ATOM      6  C   UNL     1       0.472   9.819  20.053  0.00  0.00    +0.000 A 
ATOM      7  C   UNL     1       0.190   8.963  21.105  0.00  0.00    +0.000 A 
ATOM      8  C   UNL     1       0.818   7.718  21.172  0.00  0.00    +0.000 A 
ATOM      9  C   UNL     1       1.753   7.323  20.198  0.00  0.00    +0.000 A 
ATOM     10  N   UNL     1       2.519   6.129  20.320  0.00  0.00    +0.000 N 
ATOM     11  C   UNL     1       2.260   5.121  21.335  0.00  0.00    +0.000 C 
ATOM     12  C   UNL     1       3.644   5.937  19.518  0.00  0.00    +0.000 A 
ATOM     13  O   UNL     1       4.611   5.268  19.880  0.00  0.00    +0.000 OA
ENDROOT
BRANCH   1  15
ATOM     14  N   UNL     1       4.323   4.689  16.620  0.00  0.00    +0.000 N 
ATOM     15  C   UNL     1       4.379   6.040  16.982  0.00  0.00    +0.000 C 
ATOM     16  O   UNL     1       5.013   6.863  16.310  0.00  0.00    +0.000 OA
BRANCH  14  17
ATOM     17  C   UNL     1       3.508   3.718  17.254  0.00  0.00    +0.000 A 
ATOM     18  C   UNL     1       2.131   3.919  17.383  0.00  0.00    +0.000 A 
ATOM     19  C   UNL     1       1.351   2.980  18.056  0.00  0.00    +0.000 A 
ATOM     20  C   UNL     1       1.947   1.852  18.620  0.00  0.00    +0.000 A 
ATOM     21  C   UNL     1       3.317   1.640  18.477  0.00  0.00    +0.000 A 
ATOM     22  C   UNL     1       4.094   2.556  17.770  0.00  0.00    +0.000 A 
ENDBRANCH  14  17
BRANCH  14  24
ATOM     23  C   UNL     1       6.632   4.191  15.762  0.00  0.00    +0.000 C 
ATOM     24  C   UNL     1       5.127   4.209  15.480  0.00  0.00    +0.000 C 
ENDBRANCH  14  24
ENDBRANCH   1  15
BRANCH   2  25
ATOM     25  O   UNL     1       2.893   8.459  16.871  0.00  0.00    +0.000 OA
ATOM     26  H   UNL     1       3.342   9.315  17.053  0.00  0.00    +0.000 HD
ENDBRANCH   2  25
TORSDOF 4
ENDMDL
MODEL 3
REMARK VINA RESULT:      -6.8      7.331      9.859
REMARK  Name = 
REMARK  6 active torsions:
REMARK  status: ('A' for Active; 'I' for Inactive)
REMARK    1  A    between atoms: C_1  and  C_2
REMARK    2  A    between atoms: C_2  and  N_3
REMARK    3  A    between atoms: N_3  and  C_20
REMARK    4  A    between atoms: C_4  and  C_6
REMARK    5  A    between atoms: C_7  and  O_8
REMARK    6  A    between atoms: N_16  and  C_17
REMARK                            x       y       z     vdW  Elec       q    Type
REMARK                         _______ _______ _______ _____ _____    ______ ____
ROOT
ATOM      1  C   UNL     1      -2.064  12.306  19.064  0.00  0.00    +0.000 A 
ATOM      2  C   UNL     1      -3.091  12.641  19.871  0.00  0.00    +0.000 A 
ATOM      3  C   UNL     1      -4.466  12.182  19.578  0.00  0.00    +0.000 A 
ATOM      4  C   UNL     1      -5.540  12.382  20.463  0.00  0.00    +0.000 A 
ATOM      5  F   UNL     1      -5.357  12.931  21.672  0.00  0.00    +0.000 F 
ATOM      6  C   UNL     1      -6.838  12.004  20.133  0.00  0.00    +0.000 A 
ATOM      7  C   UNL     1      -7.096  11.438  18.895  0.00  0.00    +0.000 A 
ATOM      8  C   UNL     1      -6.048  11.232  17.996  0.00  0.00    +0.000 A 
ATOM      9  C   UNL     1      -4.725  11.571  18.332  0.00  0.00    +0.000 A 
ATOM     10  N   UNL     1      -3.620  11.235  17.500  0.00  0.00    +0.000 N 
ATOM     11  C   UNL     1      -3.772  10.710  16.153  0.00  0.00    +0.000 C 
ATOM     12  C   UNL     1      -2.322  11.296  18.007  0.00  0.00    +0.000 A 
ATOM     13  O   UNL     1      -1.415  10.569  17.600  0.00  0.00    +0.000 OA
ENDROOT
BRANCH   1  15
ATOM     14  N   UNL     1       0.151  12.446  20.291  0.00  0.00    +0.000 N 
ATOM     15  C   UNL     1      -0.720  12.941  19.314  0.00  0.00    +0.000 C 
ATOM     16  O   UNL     1      -0.400  13.888  18.585  0.00  0.00    +0.000 OA
BRANCH  14  17
ATOM     17  C   UNL     1      -0.084  11.281  21.065  0.00  0.00    +0.000 A 
ATOM     18  C   UNL     1      -0.640  11.375  22.343  0.00  0.00    +0.000 A 
ATOM     19  C   UNL     1      -0.815  10.226  23.113  0.00  0.00    +0.000 A 
ATOM     20  C   UNL     1      -0.415   8.985  22.616  0.00  0.00    +0.000 A 
ATOM     21  C   UNL     1       0.123   8.886  21.334  0.00  0.00    +0.000 A 
ATOM     22  C   UNL     1       0.263  10.027  20.546  0.00  0.00    +0.000 A 
ENDBRANCH  14  17
BRANCH  14  24
ATOM     23  C   UNL     1       1.309  14.317  21.504  0.00  0.00    +0.000 C 
ATOM     24  C   UNL     1       1.432  13.135  20.539  0.00  0.00    +0.000 C 
ENDBRANCH  14  24
ENDBRANCH   1  15
BRANCH   2  25
ATOM     25  O   UNL     1      -2.968  13.473  20.969  0.00  0.00    +0.000 OA
ATOM     26  H   UNL     1      -3.862  13.612  21.357  0.00  0.00    +0.000 HD
ENDBRANCH   2  25
TORSDOF 4
ENDMDL
MODEL 4
REMARK VINA RESULT:      -6.6      7.531     10.025
REMARK  Name = 
REMARK  6 active torsions:
REMARK  status: ('A' for Active; 'I' for Inactive)
REMARK    1  A    between atoms: C_1  and  C_2
REMARK    2  A    between atoms: C_2  and  N_3
REMARK    3  A    between atoms: N_3  and  C_20
REMARK    4  A    between atoms: C_4  and  C_6
REMARK    5  A    between atoms: C_7  and  O_8
REMARK    6  A    between atoms: N_16  and  C_17
REMARK                            x       y       z     vdW  Elec       q    Type
REMARK                         _______ _______ _______ _____ _____    ______ ____
ROOT
ATOM      1  C   UNL     1      -2.103  12.687  19.469  0.00  0.00    +0.000 A 
ATOM      2  C   UNL     1      -3.251  12.835  20.162  0.00  0.00    +0.000 A 
ATOM      3  C   UNL     1      -4.504  12.205  19.695  0.00  0.00    +0.000 A 
ATOM      4  C   UNL     1      -5.687  12.207  20.455  0.00  0.00    +0.000 A 
ATOM      5  F   UNL     1      -5.719  12.713  21.696  0.00  0.00    +0.000 F 
ATOM      6  C   UNL     1      -6.872  11.670  19.962  0.00  0.00    +0.000 A 
ATOM      7  C   UNL     1      -6.908  11.139  18.683  0.00  0.00    +0.000 A 
ATOM      8  C   UNL     1      -5.749  11.127  17.906  0.00  0.00    +0.000 A 
ATOM      9  C   UNL     1      -4.533  11.629  18.406  0.00  0.00    +0.000 A 
ATOM     10  N   UNL     1      -3.306  11.493  17.697  0.00  0.00    +0.000 N 
ATOM     11  C   UNL     1      -3.231  11.023  16.324  0.00  0.00    +0.000 C 
ATOM     12  C   UNL     1      -2.094  11.707  18.354  0.00  0.00    +0.000 A 
ATOM     13  O   UNL     1      -1.054  11.136  18.030  0.00  0.00    +0.000 OA
ENDROOT
BRANCH   1  15
ATOM     14  N   UNL     1      -0.012  13.012  20.868  0.00  0.00    +0.000 N 
ATOM     15  C   UNL     1      -0.900  13.489  19.897  0.00  0.00    +0.000 C 
ATOM     16  O   UNL     1      -0.705  14.565  19.317  0.00  0.00    +0.000 OA
BRANCH  14  17
ATOM     17  C   UNL     1      -0.090  11.732  21.471  0.00  0.00    +0.000 A 
ATOM     18  C   UNL     1       0.530  10.627  20.880  0.00  0.00    +0.000 A 
ATOM     19  C   UNL     1       0.399   9.365  21.456  0.00  0.00    +0.000 A 
ATOM     20  C   UNL     1      -0.368   9.199  22.609  0.00  0.00    +0.000 A 
ATOM     21  C   UNL     1      -0.972  10.302  23.212  0.00  0.00    +0.000 A 
ATOM     22  C   UNL     1      -0.810  11.572  22.661  0.00  0.00    +0.000 A 
ENDBRANCH  14  17
BRANCH  14  24
ATOM     23  C   UNL     1       2.434  13.513  20.591  0.00  0.00    +0.000 C 
ATOM     24  C   UNL     1       1.119  13.857  21.295  0.00  0.00    +0.000 C 
ENDBRANCH  14  24
ENDBRANCH   1  15
BRANCH   2  25
ATOM     25  O   UNL     1      -3.370  13.618  21.295  0.00  0.00    +0.000 OA
ATOM     26  H   UNL     1      -2.491  14.011  21.497  0.00  0.00    +0.000 HD
ENDBRANCH   2  25
TORSDOF 4
ENDMDL
MODEL 5
REMARK VINA RESULT:      -6.6      7.551      9.867
REMARK  Name = 
REMARK  6 active torsions:
REMARK  status: ('A' for Active; 'I' for Inactive)
REMARK    1  A    between atoms: C_1  and  C_2
REMARK    2  A    between atoms: C_2  and  N_3
REMARK    3  A    between atoms: N_3  and  C_20
REMARK    4  A    between atoms: C_4  and  C_6
REMARK    5  A    between atoms: C_7  and  O_8
REMARK    6  A    between atoms: N_16  and  C_17
REMARK                            x       y       z     vdW  Elec       q    Type
REMARK                         _______ _______ _______ _____ _____    ______ ____
ROOT
ATOM      1  C   UNL     1      -2.249  12.832  19.466  0.00  0.00    +0.000 A 
ATOM      2  C   UNL     1      -3.039  12.216  18.562  0.00  0.00    +0.000 A 
ATOM      3  C   UNL     1      -4.458  11.931  18.866  0.00  0.00    +0.000 A 
ATOM      4  C   UNL     1      -5.356  11.427  17.908  0.00  0.00    +0.000 A 
ATOM      5  F   UNL     1      -4.989  11.255  16.630  0.00  0.00    +0.000 F 
ATOM      6  C   UNL     1      -6.667  11.099  18.237  0.00  0.00    +0.000 A 
ATOM      7  C   UNL     1      -7.106  11.245  19.544  0.00  0.00    +0.000 A 
ATOM      8  C   UNL     1      -6.234  11.740  20.515  0.00  0.00    +0.000 A 
ATOM      9  C   UNL     1      -4.918  12.115  20.188  0.00  0.00    +0.000 A 
ATOM     10  N   UNL     1      -4.058  12.761  21.120  0.00  0.00    +0.000 N 
ATOM     11  C   UNL     1      -4.379  12.900  22.531  0.00  0.00    +0.000 C 
ATOM     12  C   UNL     1      -2.899  13.397  20.675  0.00  0.00    +0.000 A 
ATOM     13  O   UNL     1      -2.413  14.370  21.251  0.00  0.00    +0.000 OA
ENDROOT
BRANCH   1  15
ATOM     14  N   UNL     1       0.168  12.173  19.861  0.00  0.00    +0.000 N 
ATOM     15  C   UNL     1      -0.775  12.942  19.171  0.00  0.00    +0.000 C 
ATOM     16  O   UNL     1      -0.440  13.706  18.257  0.00  0.00    +0.000 OA
BRANCH  14  17
ATOM     17  C   UNL     1      -0.150  11.176  20.817  0.00  0.00    +0.000 A 
ATOM     18  C   UNL     1      -0.500  11.527  22.124  0.00  0.00    +0.000 A 
ATOM     19  C   UNL     1      -0.758  10.534  23.067  0.00  0.00    +0.000 A 
ATOM     20  C   UNL     1      -0.645   9.189  22.713  0.00  0.00    +0.000 A 
ATOM     21  C   UNL     1      -0.314   8.835  21.406  0.00  0.00    +0.000 A 
ATOM     22  C   UNL     1      -0.095   9.825  20.450  0.00  0.00    +0.000 A 
ENDBRANCH  14  17
BRANCH  14  24
ATOM     23  C   UNL     1       2.259  13.441  20.435  0.00  0.00    +0.000 C 
ATOM     24  C   UNL     1       1.604  12.357  19.577  0.00  0.00    +0.000 C 
ENDBRANCH  14  24
ENDBRANCH   1  15
BRANCH   2  25
ATOM     25  O   UNL     1      -2.592  11.751  17.339  0.00  0.00    +0.000 OA
ATOM     26  H   UNL     1      -2.029  10.959  17.493  0.00  0.00    +0.000 HD
ENDBRANCH   2  25
TORSDOF 4
ENDMDL
MODEL 6
REMARK VINA RESULT:      -6.5      2.161      3.458
REMARK  Name = 
REMARK  6 active torsions:
REMARK  status: ('A' for Active; 'I' for Inactive)
REMARK    1  A    between atoms: C_1  and  C_2
REMARK    2  A    between atoms: C_2  and  N_3
REMARK    3  A    between atoms: N_3  and  C_20
REMARK    4  A    between atoms: C_4  and  C_6
REMARK    5  A    between atoms: C_7  and  O_8
REMARK    6  A    between atoms: N_16  and  C_17
REMARK                            x       y       z     vdW  Elec       q    Type
REMARK                         _______ _______ _______ _____ _____    ______ ____
ROOT
ATOM      1  C   UNL     1       4.333   4.350  17.065  0.00  0.00    +0.000 A 
ATOM      2  C   UNL     1       3.871   3.277  17.740  0.00  0.00    +0.000 A 
ATOM      3  C   UNL     1       3.036   3.444  18.948  0.00  0.00    +0.000 A 
ATOM      4  C   UNL     1       2.412   2.364  19.598  0.00  0.00    +0.000 A 
ATOM      5  F   UNL     1       2.474   1.120  19.101  0.00  0.00    +0.000 F 
ATOM      6  C   UNL     1       1.690   2.538  20.774  0.00  0.00    +0.000 A 
ATOM      7  C   UNL     1       1.595   3.798  21.343  0.00  0.00    +0.000 A 
ATOM      8  C   UNL     1       2.208   4.887  20.721  0.00  0.00    +0.000 A 
ATOM      9  C   UNL     1       2.906   4.733  19.509  0.00  0.00    +0.000 A 
ATOM     10  N   UNL     1       3.409   5.845  18.776  0.00  0.00    +0.000 N 
ATOM     11  C   UNL     1       3.434   7.198  19.306  0.00  0.00    +0.000 C 
ATOM     12  C   UNL     1       3.802   5.683  17.448  0.00  0.00    +0.000 A 
ATOM     13  O   UNL     1       3.737   6.592  16.621  0.00  0.00    +0.000 OA
ENDROOT
BRANCH   1  15
ATOM     14  N   UNL     1       6.577   4.733  15.946  0.00  0.00    +0.000 N 
ATOM     15  C   UNL     1       5.317   4.123  15.946  0.00  0.00    +0.000 C 
ATOM     16  O   UNL     1       4.982   3.336  15.052  0.00  0.00    +0.000 OA
BRANCH  14  17
ATOM     17  C   UNL     1       7.085   5.531  17.002  0.00  0.00    +0.000 A 
ATOM     18  C   UNL     1       7.239   6.911  16.842  0.00  0.00    +0.000 A 
ATOM     19  C   UNL     1       7.791   7.674  17.869  0.00  0.00    +0.000 A 
ATOM     20  C   UNL     1       8.210   7.059  19.049  0.00  0.00    +0.000 A 
ATOM     21  C   UNL     1       8.041   5.685  19.219  0.00  0.00    +0.000 A 
ATOM     22  C   UNL     1       7.453   4.925  18.210  0.00  0.00    +0.000 A 
ENDBRANCH  14  17
BRANCH  14  24
ATOM     23  C   UNL     1       7.015   5.221  13.521  0.00  0.00    +0.000 C 
ATOM     24  C   UNL     1       7.484   4.526  14.802  0.00  0.00    +0.000 C 
ENDBRANCH  14  24
ENDBRANCH   1  15
BRANCH   2  25
ATOM     25  O   UNL     1       4.184   1.970  17.413  0.00  0.00    +0.000 OA
ATOM     26  H   UNL     1       5.151   1.915  17.237  0.00  0.00    +0.000 HD
ENDBRANCH   2  25
TORSDOF 4
ENDMDL
MODEL 7
REMARK VINA RESULT:      -6.3      2.049      5.939
REMARK  Name = 
REMARK  6 active torsions:
REMARK  status: ('A' for Active; 'I' for Inactive)
REMARK    1  A    between atoms: C_1  and  C_2
REMARK    2  A    between atoms: C_2  and  N_3
REMARK    3  A    between atoms: N_3  and  C_20
REMARK    4  A    between atoms: C_4  and  C_6
REMARK    5  A    between atoms: C_7  and  O_8
REMARK    6  A    between atoms: N_16  and  C_17
REMARK                            x       y       z     vdW  Elec       q    Type
REMARK                         _______ _______ _______ _____ _____    ______ ____
ROOT
ATOM      1  C   UNL     1       5.245   4.311  18.626  0.00  0.00    +0.000 A 
ATOM      2  C   UNL     1       5.128   3.777  17.393  0.00  0.00    +0.000 A 
ATOM      3  C   UNL     1       5.954   4.271  16.270  0.00  0.00    +0.000 A 
ATOM      4  C   UNL     1       5.973   3.652  15.008  0.00  0.00    +0.000 A 
ATOM      5  F   UNL     1       5.300   2.515  14.777  0.00  0.00    +0.000 F 
ATOM      6  C   UNL     1       6.703   4.179  13.948  0.00  0.00    +0.000 A 
ATOM      7  C   UNL     1       7.414   5.356  14.118  0.00  0.00    +0.000 A 
ATOM      8  C   UNL     1       7.409   5.993  15.360  0.00  0.00    +0.000 A 
ATOM      9  C   UNL     1       6.709   5.450  16.454  0.00  0.00    +0.000 A 
ATOM     10  N   UNL     1       6.808   5.994  17.765  0.00  0.00    +0.000 N 
ATOM     11  C   UNL     1       7.460   7.261  18.051  0.00  0.00    +0.000 C 
ATOM     12  C   UNL     1       6.369   5.253  18.862  0.00  0.00    +0.000 A 
ATOM     13  O   UNL     1       6.862   5.370  19.983  0.00  0.00    +0.000 OA
ENDROOT
BRANCH   1  15
ATOM     14  N   UNL     1       3.176   4.696  20.041  0.00  0.00    +0.000 N 
ATOM     15  C   UNL     1       4.262   3.887  19.686  0.00  0.00    +0.000 C 
ATOM     16  O   UNL     1       4.429   2.771  20.195  0.00  0.00    +0.000 OA
BRANCH  14  17
ATOM     17  C   UNL     1       2.839   5.916  19.404  0.00  0.00    +0.000 A 
ATOM     18  C   UNL     1       3.133   6.120  18.053  0.00  0.00    +0.000 A 
ATOM     19  C   UNL     1       2.845   7.346  17.454  0.00  0.00    +0.000 A 
ATOM     20  C   UNL     1       2.284   8.377  18.209  0.00  0.00    +0.000 A 
ATOM     21  C   UNL     1       1.973   8.171  19.552  0.00  0.00    +0.000 A 
ATOM     22  C   UNL     1       2.222   6.933  20.144  0.00  0.00    +0.000 A 
ENDBRANCH  14  17
BRANCH  14  24
ATOM     23  C   UNL     1       1.094   3.420  20.633  0.00  0.00    +0.000 C 
ATOM     24  C   UNL     1       2.272   4.264  21.124  0.00  0.00    +0.000 C 
ENDBRANCH  14  24
ENDBRANCH   1  15
BRANCH   2  25
ATOM     25  O   UNL     1       4.208   2.798  17.063  0.00  0.00    +0.000 OA
ATOM     26  H   UNL     1       3.414   2.911  17.634  0.00  0.00    +0.000 HD
ENDBRANCH   2  25
TORSDOF 4
ENDMDL
MODEL 8
REMARK VINA RESULT:      -6.3      2.021      5.699
REMARK  Name = 
REMARK  6 active torsions:
REMARK  status: ('A' for Active; 'I' for Inactive)
REMARK    1  A    between atoms: C_1  and  C_2
REMARK    2  A    between atoms: C_2  and  N_3
REMARK    3  A    between atoms: N_3  and  C_20
REMARK    4  A    between atoms: C_4  and  C_6
REMARK    5  A    between atoms: C_7  and  O_8
REMARK    6  A    between atoms: N_16  and  C_17
REMARK                            x       y       z     vdW  Elec       q    Type
REMARK                         _______ _______ _______ _____ _____    ______ ____
ROOT
ATOM      1  C   UNL     1       4.141   3.542  18.213  0.00  0.00    +0.000 A 
ATOM      2  C   UNL     1       4.174   3.608  16.866  0.00  0.00    +0.000 A 
ATOM      3  C   UNL     1       5.318   4.232  16.165  0.00  0.00    +0.000 A 
ATOM      4  C   UNL     1       5.467   4.194  14.768  0.00  0.00    +0.000 A 
ATOM      5  F   UNL     1       4.614   3.510  13.992  0.00  0.00    +0.000 F 
ATOM      6  C   UNL     1       6.514   4.850  14.128  0.00  0.00    +0.000 A 
ATOM      7  C   UNL     1       7.425   5.582  14.872  0.00  0.00    +0.000 A 
ATOM      8  C   UNL     1       7.298   5.639  16.261  0.00  0.00    +0.000 A 
ATOM      9  C   UNL     1       6.269   4.947  16.926  0.00  0.00    +0.000 A 
ATOM     10  N   UNL     1       6.203   4.862  18.345  0.00  0.00    +0.000 N 
ATOM     11  C   UNL     1       7.055   5.644  19.226  0.00  0.00    +0.000 C 
ATOM     12  C   UNL     1       5.374   3.918  18.950  0.00  0.00    +0.000 A 
ATOM     13  O   UNL     1       5.623   3.421  20.047  0.00  0.00    +0.000 OA
ENDROOT
BRANCH   1  15
ATOM     14  N   UNL     1       1.956   3.943  19.436  0.00  0.00    +0.000 N 
ATOM     15  C   UNL     1       2.879   3.053  18.875  0.00  0.00    +0.000 C 
ATOM     16  O   UNL     1       2.669   1.833  18.856  0.00  0.00    +0.000 OA
BRANCH  14  17
ATOM     17  C   UNL     1       2.056   5.355  19.370  0.00  0.00    +0.000 A 
ATOM     18  C   UNL     1       1.879   6.137  20.514  0.00  0.00    +0.000 A 
ATOM     19  C   UNL     1       1.927   7.527  20.423  0.00  0.00    +0.000 A 
ATOM     20  C   UNL     1       2.129   8.139  19.186  0.00  0.00    +0.000 A 
ATOM     21  C   UNL     1       2.326   7.362  18.045  0.00  0.00    +0.000 A 
ATOM     22  C   UNL     1       2.318   5.971  18.139  0.00  0.00    +0.000 A 
ENDBRANCH  14  17
BRANCH  14  24
ATOM     23  C   UNL     1       1.073   2.786  21.485  0.00  0.00    +0.000 C 
ATOM     24  C   UNL     1       0.762   3.414  20.123  0.00  0.00    +0.000 C 
ENDBRANCH  14  24
ENDBRANCH   1  15
BRANCH   2  25
ATOM     25  O   UNL     1       3.146   3.176  16.049  0.00  0.00    +0.000 OA
ATOM     26  H   UNL     1       2.788   2.336  16.416  0.00  0.00    +0.000 HD
ENDBRANCH   2  25
TORSDOF 4
ENDMDL
MODEL 9
REMARK VINA RESULT:      -6.3      7.908     10.912
REMARK  Name = 
REMARK  6 active torsions:
REMARK  status: ('A' for Active; 'I' for Inactive)
REMARK    1  A    between atoms: C_1  and  C_2
REMARK    2  A    between atoms: C_2  and  N_3
REMARK    3  A    between atoms: N_3  and  C_20
REMARK    4  A    between atoms: C_4  and  C_6
REMARK    5  A    between atoms: C_7  and  O_8
REMARK    6  A    between atoms: N_16  and  C_17
REMARK                            x       y       z     vdW  Elec       q    Type
REMARK                         _______ _______ _______ _____ _____    ______ ____
ROOT
ATOM      1  C   UNL     1       0.536  14.567  20.262  0.00  0.00    +0.000 A 
ATOM      2  C   UNL     1      -0.319  15.528  19.856  0.00  0.00    +0.000 A 
ATOM      3  C   UNL     1       0.057  16.471  18.780  0.00  0.00    +0.000 A 
ATOM      4  C   UNL     1      -0.849  17.391  18.223  0.00  0.00    +0.000 A 
ATOM      5  F   UNL     1      -2.140  17.405  18.583  0.00  0.00    +0.000 F 
ATOM      6  C   UNL     1      -0.452  18.316  17.263  0.00  0.00    +0.000 A 
ATOM      7  C   UNL     1       0.871  18.359  16.854  0.00  0.00    +0.000 A 
ATOM      8  C   UNL     1       1.792  17.459  17.393  0.00  0.00    +0.000 A 
ATOM      9  C   UNL     1       1.396  16.491  18.335  0.00  0.00    +0.000 A 
ATOM     10  N   UNL     1       2.276  15.467  18.787  0.00  0.00    +0.000 N 
ATOM     11  C   UNL     1       3.698  15.454  18.487  0.00  0.00    +0.000 C 
ATOM     12  C   UNL     1       1.766  14.356  19.458  0.00  0.00    +0.000 A 
ATOM     13  O   UNL     1       2.302  13.249  19.412  0.00  0.00    +0.000 OA
ENDROOT
BRANCH   1  15
ATOM     14  N   UNL     1      -0.540  12.547  21.354  0.00  0.00    +0.000 N 
ATOM     15  C   UNL     1       0.169  13.748  21.473  0.00  0.00    +0.000 C 
ATOM     16  O   UNL     1       0.564  14.158  22.572  0.00  0.00    +0.000 OA
BRANCH  14  17
ATOM     17  C   UNL     1      -0.900  11.943  20.124  0.00  0.00    +0.000 A 
ATOM     18  C   UNL     1      -2.070  12.320  19.460  0.00  0.00    +0.000 A 
ATOM     19  C   UNL     1      -2.440  11.679  18.279  0.00  0.00    +0.000 A 
ATOM     20  C   UNL     1      -1.653  10.645  17.771  0.00  0.00    +0.000 A 
ATOM     21  C   UNL     1      -0.475  10.278  18.420  0.00  0.00    +0.000 A 
ATOM     22  C   UNL     1      -0.082  10.944  19.580  0.00  0.00    +0.000 A 
ENDBRANCH  14  17
BRANCH  14  24
ATOM     23  C   UNL     1      -2.333  12.150  23.069  0.00  0.00    +0.000 C 
ATOM     24  C   UNL     1      -0.926  11.809  22.572  0.00  0.00    +0.000 C 
ENDBRANCH  14  24
ENDBRANCH   1  15
BRANCH   2  25
ATOM     25  O   UNL     1      -1.554  15.754  20.434  0.00  0.00    +0.000 OA
ATOM     26  H   UNL     1      -1.446  15.754  21.412  0.00  0.00    +0.000 HD
ENDBRANCH   2  25
TORSDOF 4
ENDMDL
