MODEL 1
REMARK VINA RESULT:      -8.8      0.000      0.000
REMARK  Name = 
REMARK  5 active torsions:
REMARK  status: ('A' for Active; 'I' for Inactive)
REMARK    1  A    between atoms: C_2  and  C_11
REMARK    2  A    between atoms: N_3  and  C_4
REMARK    3  A    between atoms: C_16  and  O_17
REMARK    4  A    between atoms: O_17  and  C_18
REMARK    5  A    between atoms: C_21  and  C_22
REMARK                            x       y       z     vdW  Elec       q    Type
REMARK                         _______ _______ _______ _____ _____    ______ ____
ROOT
ATOM      1  C   UNL     1       2.339   7.312  19.345  0.00  0.00    +0.000 A 
ATOM      2  C   UNL     1       2.339   7.892  18.087  0.00  0.00    +0.000 A 
ATOM      3  C   UNL     1       1.599   9.055  17.902  0.00  0.00    +0.000 A 
ATOM      4  C   UNL     1       0.880   9.601  18.975  0.00  0.00    +0.000 A 
ATOM      5  C   UNL     1       0.125  10.783  18.832  0.00  0.00    +0.000 A 
ATOM      6  C   UNL     1      -0.579  11.307  19.917  0.00  0.00    +0.000 A 
ATOM      7  C   UNL     1      -0.567  10.620  21.129  0.00  0.00    +0.000 A 
ATOM      8  C   UNL     1       0.200   9.458  21.272  0.00  0.00    +0.000 A 
ATOM      9  C   UNL     1       0.931   8.929  20.218  0.00  0.00    +0.000 A 
ATOM     10  N   UNL     1       1.647   7.804  20.411  0.00  0.00    +0.000 NA
ENDROOT
BRANCH   1  12
ATOM     11  O   UNL     1       2.827   5.263  20.461  0.00  0.00    +0.000 OA
ATOM     12  C   UNL     1       3.140   6.065  19.588  0.00  0.00    +0.000 C 
ATOM     13  N   UNL     1       4.236   5.909  18.761  0.00  0.00    +0.000 N 
ATOM     14  H   UNL     1       4.429   6.709  18.160  0.00  0.00    +0.000 HD
BRANCH  13  15
ATOM     15  C   UNL     1       5.184   4.812  18.906  0.00  0.00    +0.000 C 
ATOM     16  C   UNL     1       6.631   5.319  18.990  0.00  0.00    +0.000 C 
ATOM     17  C   UNL     1       7.094   5.974  17.698  0.00  0.00    +0.000 C 
ATOM     18  S   UNL     1       7.152   4.772  16.336  0.00  0.00    +0.000 S 
ATOM     19  O   UNL     1       7.353   5.581  15.005  0.00  0.00    +0.000 OA
ATOM     20  C   UNL     1       5.402   4.293  16.415  0.00  0.00    +0.000 C 
ATOM     21  C   UNL     1       5.019   3.772  17.791  0.00  0.00    +0.000 C 
ENDBRANCH  13  15
ENDBRANCH   1  12
BRANCH   6  22
ATOM     22  O   UNL     1      -1.320  12.445  19.689  0.00  0.00    +0.000 OA
BRANCH  22  23
ATOM     23  C   UNL     1      -2.693  12.315  19.506  0.00  0.00    +0.000 A 
ATOM     24  C   UNL     1      -3.508  12.847  20.495  0.00  0.00    +0.000 A 
ATOM     25  C   UNL     1      -4.890  12.742  20.338  0.00  0.00    +0.000 A 
ATOM     26  C   UNL     1      -5.414  12.114  19.204  0.00  0.00    +0.000 A 
ATOM     27  C   UNL     1      -4.511  11.589  18.289  0.00  0.00    +0.000 A 
ATOM     28  N   UNL     1      -3.170  11.660  18.424  0.00  0.00    +0.000 NA
BRANCH  26  29
ATOM     29  C   UNL     1      -6.886  11.956  18.982  0.00  0.00    +0.000 C 
ATOM     30  F   UNL     1      -7.208  11.741  17.677  0.00  0.00    +0.000 F 
ATOM     31  F   UNL     1      -7.416  10.907  19.672  0.00  0.00    +0.000 F 
ENDBRANCH  26  29
ENDBRANCH  22  23
ENDBRANCH   6  22
TORSDOF 5
ENDMDL
MODEL 2
REMARK VINA RESULT:      -8.7      0.725      1.086
REMARK  Name = 
REMARK  5 active torsions:
REMARK  status: ('A' for Active; 'I' for Inactive)
REMARK    1  A    between atoms: C_2  and  C_11
REMARK    2  A    between atoms: N_3  and  C_4
REMARK    3  A    between atoms: C_16  and  O_17
REMARK    4  A    between atoms: O_17  and  C_18
REMARK    5  A    between atoms: C_21  and  C_22
REMARK                            x       y       z     vdW  Elec       q    Type
REMARK                         _______ _______ _______ _____ _____    ______ ____
ROOT
ATOM      1  C   UNL     1       2.499   7.222  19.136  0.00  0.00    +0.000 A 
ATOM      2  C   UNL     1       2.530   7.866  17.910  0.00  0.00    +0.000 A 
ATOM      3  C   UNL     1       1.781   9.028  17.762  0.00  0.00    +0.000 A 
ATOM      4  C   UNL     1       1.023   9.509  18.838  0.00  0.00    +0.000 A 
ATOM      5  C   UNL     1       0.257  10.689  18.732  0.00  0.00    +0.000 A 
ATOM      6  C   UNL     1      -0.487  11.148  19.819  0.00  0.00    +0.000 A 
ATOM      7  C   UNL     1      -0.504  10.399  20.994  0.00  0.00    +0.000 A 
ATOM      8  C   UNL     1       0.273   9.240  21.102  0.00  0.00    +0.000 A 
ATOM      9  C   UNL     1       1.043   8.775  20.046  0.00  0.00    +0.000 A 
ATOM     10  N   UNL     1       1.767   7.650  20.203  0.00  0.00    +0.000 NA
ENDROOT
BRANCH   1  12
ATOM     11  O   UNL     1       3.122   5.240  20.306  0.00  0.00    +0.000 OA
ATOM     12  C   UNL     1       3.307   5.972  19.341  0.00  0.00    +0.000 C 
ATOM     13  N   UNL     1       4.258   5.731  18.367  0.00  0.00    +0.000 N 
ATOM     14  H   UNL     1       4.368   6.483  17.688  0.00  0.00    +0.000 HD
BRANCH  13  15
ATOM     15  C   UNL     1       5.199   4.621  18.441  0.00  0.00    +0.000 C 
ATOM     16  C   UNL     1       6.650   5.112  18.549  0.00  0.00    +0.000 C 
ATOM     17  C   UNL     1       7.112   5.841  17.297  0.00  0.00    +0.000 C 
ATOM     18  S   UNL     1       7.156   4.724  15.864  0.00  0.00    +0.000 S 
ATOM     19  O   UNL     1       7.358   5.611  14.584  0.00  0.00    +0.000 OA
ATOM     20  C   UNL     1       5.403   4.253  15.922  0.00  0.00    +0.000 C 
ATOM     21  C   UNL     1       5.023   3.651  17.265  0.00  0.00    +0.000 C 
ENDBRANCH  13  15
ENDBRANCH   1  12
BRANCH   6  22
ATOM     22  O   UNL     1      -1.235  12.289  19.627  0.00  0.00    +0.000 OA
BRANCH  22  23
ATOM     23  C   UNL     1      -2.563  12.150  19.237  0.00  0.00    +0.000 A 
ATOM     24  C   UNL     1      -2.792  11.643  17.967  0.00  0.00    +0.000 A 
ATOM     25  C   UNL     1      -4.113  11.483  17.548  0.00  0.00    +0.000 A 
ATOM     26  C   UNL     1      -5.160  11.830  18.407  0.00  0.00    +0.000 A 
ATOM     27  C   UNL     1      -4.823  12.357  19.646  0.00  0.00    +0.000 A 
ATOM     28  N   UNL     1      -3.554  12.540  20.071  0.00  0.00    +0.000 NA
BRANCH  26  29
ATOM     29  C   UNL     1      -6.599  11.696  18.014  0.00  0.00    +0.000 C 
ATOM     30  F   UNL     1      -7.140  10.500  18.376  0.00  0.00    +0.000 F 
ATOM     31  F   UNL     1      -7.393  12.648  18.579  0.00  0.00    +0.000 F 
ENDBRANCH  26  29
ENDBRANCH  22  23
ENDBRANCH   6  22
TORSDOF 5
ENDMDL
MODEL 3
REMARK VINA RESULT:      -8.5      0.924      1.240
REMARK  Name = 
REMARK  5 active torsions:
REMARK  status: ('A' for Active; 'I' for Inactive)
REMARK    1  A    between atoms: C_2  and  C_11
REMARK    2  A    between atoms: N_3  and  C_4
REMARK    3  A    between atoms: C_16  and  O_17
REMARK    4  A    between atoms: O_17  and  C_18
REMARK    5  A    between atoms: C_21  and  C_22
REMARK                            x       y       z     vdW  Elec       q    Type
REMARK                         _______ _______ _______ _____ _____    ______ ____
ROOT
ATOM      1  C   UNL     1       2.293   7.313  19.482  0.00  0.00    +0.000 A 
ATOM      2  C   UNL     1       2.295   7.932  18.243  0.00  0.00    +0.000 A 
ATOM      3  C   UNL     1       1.586   9.120  18.104  0.00  0.00    +0.000 A 
ATOM      4  C   UNL     1       0.896   9.651  19.202  0.00  0.00    +0.000 A 
ATOM      5  C   UNL     1       0.173  10.859  19.106  0.00  0.00    +0.000 A 
ATOM      6  C   UNL     1      -0.504  11.367  20.215  0.00  0.00    +0.000 A 
ATOM      7  C   UNL     1      -0.497  10.641  21.405  0.00  0.00    +0.000 A 
ATOM      8  C   UNL     1       0.238   9.454  21.502  0.00  0.00    +0.000 A 
ATOM      9  C   UNL     1       0.941   8.939  20.423  0.00  0.00    +0.000 A 
ATOM     10  N   UNL     1       1.627   7.790  20.571  0.00  0.00    +0.000 NA
ENDROOT
BRANCH   1  12
ATOM     11  O   UNL     1       2.621   5.123  20.365  0.00  0.00    +0.000 OA
ATOM     12  C   UNL     1       3.061   6.036  19.676  0.00  0.00    +0.000 C 
ATOM     13  N   UNL     1       4.280   5.988  19.027  0.00  0.00    +0.000 N 
ATOM     14  H   UNL     1       4.558   6.862  18.583  0.00  0.00    +0.000 HD
BRANCH  13  15
ATOM     15  C   UNL     1       5.207   4.873  19.169  0.00  0.00    +0.000 C 
ATOM     16  C   UNL     1       6.665   5.351  19.240  0.00  0.00    +0.000 C 
ATOM     17  C   UNL     1       7.130   5.991  17.942  0.00  0.00    +0.000 C 
ATOM     18  S   UNL     1       7.155   4.783  16.585  0.00  0.00    +0.000 S 
ATOM     19  O   UNL     1       7.362   5.581  15.249  0.00  0.00    +0.000 OA
ATOM     20  C   UNL     1       5.396   4.338  16.679  0.00  0.00    +0.000 C 
ATOM     21  C   UNL     1       5.014   3.831  18.060  0.00  0.00    +0.000 C 
ENDBRANCH  13  15
ENDBRANCH   1  12
BRANCH   6  22
ATOM     22  O   UNL     1      -1.215  12.532  20.032  0.00  0.00    +0.000 OA
BRANCH  22  23
ATOM     23  C   UNL     1      -2.602  12.480  20.116  0.00  0.00    +0.000 A 
ATOM     24  C   UNL     1      -3.281  12.062  18.981  0.00  0.00    +0.000 A 
ATOM     25  C   UNL     1      -4.673  11.989  19.034  0.00  0.00    +0.000 A 
ATOM     26  C   UNL     1      -5.342  12.334  20.212  0.00  0.00    +0.000 A 
ATOM     27  C   UNL     1      -4.570  12.769  21.282  0.00  0.00    +0.000 A 
ATOM     28  N   UNL     1      -3.224  12.866  21.253  0.00  0.00    +0.000 NA
BRANCH  26  29
ATOM     29  C   UNL     1      -6.834  12.291  20.331  0.00  0.00    +0.000 C 
ATOM     30  F   UNL     1      -7.314  11.039  20.564  0.00  0.00    +0.000 F 
ATOM     31  F   UNL     1      -7.307  13.065  21.348  0.00  0.00    +0.000 F 
ENDBRANCH  26  29
ENDBRANCH  22  23
ENDBRANCH   6  22
TORSDOF 5
ENDMDL
MODEL 4
REMARK VINA RESULT:      -8.4      1.590      1.903
REMARK  Name = 
REMARK  5 active torsions:
REMARK  status: ('A' for Active; 'I' for Inactive)
REMARK    1  A    between atoms: C_2  and  C_11
REMARK    2  A    between atoms: N_3  and  C_4
REMARK    3  A    between atoms: C_16  and  O_17
REMARK    4  A    between atoms: O_17  and  C_18
REMARK    5  A    between atoms: C_21  and  C_22
REMARK                            x       y       z     vdW  Elec       q    Type
REMARK                         _______ _______ _______ _____ _____    ______ ____
ROOT
ATOM      1  C   UNL     1       2.006   7.260  19.809  0.00  0.00    +0.000 A 
ATOM      2  C   UNL     1       2.043   8.094  18.703  0.00  0.00    +0.000 A 
ATOM      3  C   UNL     1       1.445   9.345  18.806  0.00  0.00    +0.000 A 
ATOM      4  C   UNL     1       0.826   9.724  20.006  0.00  0.00    +0.000 A 
ATOM      5  C   UNL     1       0.217  10.987  20.155  0.00  0.00    +0.000 A 
ATOM      6  C   UNL     1      -0.390  11.341  21.361  0.00  0.00    +0.000 A 
ATOM      7  C   UNL     1      -0.430  10.411  22.398  0.00  0.00    +0.000 A 
ATOM      8  C   UNL     1       0.194   9.167  22.253  0.00  0.00    +0.000 A 
ATOM      9  C   UNL     1       0.827   8.799  21.075  0.00  0.00    +0.000 A 
ATOM     10  N   UNL     1       1.406   7.586  20.989  0.00  0.00    +0.000 NA
ENDROOT
BRANCH   1  12
ATOM     11  O   UNL     1       2.500   5.078  20.631  0.00  0.00    +0.000 OA
ATOM     12  C   UNL     1       2.655   5.907  19.742  0.00  0.00    +0.000 C 
ATOM     13  N   UNL     1       3.428   5.690  18.616  0.00  0.00    +0.000 N 
ATOM     14  H   UNL     1       3.549   6.509  18.022  0.00  0.00    +0.000 HD
BRANCH  13  15
ATOM     15  C   UNL     1       4.209   4.476  18.418  0.00  0.00    +0.000 C 
ATOM     16  C   UNL     1       5.575   4.560  19.114  0.00  0.00    +0.000 C 
ATOM     17  C   UNL     1       6.475   5.623  18.504  0.00  0.00    +0.000 C 
ATOM     18  S   UNL     1       6.906   5.212  16.787  0.00  0.00    +0.000 S 
ATOM     19  O   UNL     1       7.582   6.482  16.156  0.00  0.00    +0.000 OA
ATOM     20  C   UNL     1       5.203   5.142  16.161  0.00  0.00    +0.000 C 
ATOM     21  C   UNL     1       4.359   4.137  16.930  0.00  0.00    +0.000 C 
ENDBRANCH  13  15
ENDBRANCH   1  12
BRANCH   6  22
ATOM     22  O   UNL     1      -0.993  12.578  21.417  0.00  0.00    +0.000 OA
BRANCH  22  23
ATOM     23  C   UNL     1      -2.382  12.638  21.386  0.00  0.00    +0.000 A 
ATOM     24  C   UNL     1      -2.980  12.630  20.135  0.00  0.00    +0.000 A 
ATOM     25  C   UNL     1      -4.373  12.680  20.068  0.00  0.00    +0.000 A 
ATOM     26  C   UNL     1      -5.122  12.735  21.246  0.00  0.00    +0.000 A 
ATOM     27  C   UNL     1      -4.425  12.768  22.447  0.00  0.00    +0.000 A 
ATOM     28  N   UNL     1      -3.079  12.739  22.541  0.00  0.00    +0.000 NA
BRANCH  26  29
ATOM     29  C   UNL     1      -6.618  12.804  21.244  0.00  0.00    +0.000 C 
ATOM     30  F   UNL     1      -7.196  11.869  22.047  0.00  0.00    +0.000 F 
ATOM     31  F   UNL     1      -7.093  14.007  21.676  0.00  0.00    +0.000 F 
ENDBRANCH  26  29
ENDBRANCH  22  23
ENDBRANCH   6  22
TORSDOF 5
ENDMDL
MODEL 5
REMARK VINA RESULT:      -8.3      2.735      3.174
REMARK  Name = 
REMARK  5 active torsions:
REMARK  status: ('A' for Active; 'I' for Inactive)
REMARK    1  A    between atoms: C_2  and  C_11
REMARK    2  A    between atoms: N_3  and  C_4
REMARK    3  A    between atoms: C_16  and  O_17
REMARK    4  A    between atoms: O_17  and  C_18
REMARK    5  A    between atoms: C_21  and  C_22
REMARK                            x       y       z     vdW  Elec       q    Type
REMARK                         _______ _______ _______ _____ _____    ______ ____
ROOT
ATOM      1  C   UNL     1       2.431   7.084  18.853  0.00  0.00    +0.000 A 
ATOM      2  C   UNL     1       2.356   7.858  17.707  0.00  0.00    +0.000 A 
ATOM      3  C   UNL     1       1.805   9.130  17.811  0.00  0.00    +0.000 A 
ATOM      4  C   UNL     1       1.343   9.590  19.053  0.00  0.00    +0.000 A 
ATOM      5  C   UNL     1       0.786  10.876  19.204  0.00  0.00    +0.000 A 
ATOM      6  C   UNL     1       0.337  11.310  20.451  0.00  0.00    +0.000 A 
ATOM      7  C   UNL     1       0.399  10.437  21.536  0.00  0.00    +0.000 A 
ATOM      8  C   UNL     1       0.970   9.168  21.386  0.00  0.00    +0.000 A 
ATOM      9  C   UNL     1       1.450   8.721  20.163  0.00  0.00    +0.000 A 
ATOM     10  N   UNL     1       1.985   7.488  20.076  0.00  0.00    +0.000 NA
ENDROOT
BRANCH   1  12
ATOM     11  O   UNL     1       2.431   4.724  19.190  0.00  0.00    +0.000 OA
ATOM     12  C   UNL     1       3.035   5.710  18.784  0.00  0.00    +0.000 C 
ATOM     13  N   UNL     1       4.304   5.662  18.238  0.00  0.00    +0.000 N 
ATOM     14  H   UNL     1       4.717   6.573  18.047  0.00  0.00    +0.000 HD
BRANCH  13  15
ATOM     15  C   UNL     1       5.088   4.435  18.171  0.00  0.00    +0.000 C 
ATOM     16  C   UNL     1       6.589   4.711  18.341  0.00  0.00    +0.000 C 
ATOM     17  C   UNL     1       7.165   5.522  17.192  0.00  0.00    +0.000 C 
ATOM     18  S   UNL     1       7.086   4.597  15.630  0.00  0.00    +0.000 S 
ATOM     19  O   UNL     1       7.426   5.602  14.472  0.00  0.00    +0.000 OA
ATOM     20  C   UNL     1       5.285   4.361  15.626  0.00  0.00    +0.000 C 
ATOM     21  C   UNL     1       4.805   3.653  16.883  0.00  0.00    +0.000 C 
ENDBRANCH  13  15
ENDBRANCH   1  12
BRANCH   6  22
ATOM     22  O   UNL     1      -0.225  12.566  20.510  0.00  0.00    +0.000 OA
BRANCH  22  23
ATOM     23  C   UNL     1      -1.099  12.851  21.554  0.00  0.00    +0.000 A 
ATOM     24  C   UNL     1      -0.620  13.676  22.562  0.00  0.00    +0.000 A 
ATOM     25  C   UNL     1      -1.474  13.990  23.620  0.00  0.00    +0.000 A 
ATOM     26  C   UNL     1      -2.773  13.474  23.639  0.00  0.00    +0.000 A 
ATOM     27  C   UNL     1      -3.143  12.634  22.598  0.00  0.00    +0.000 A 
ATOM     28  N   UNL     1      -2.334  12.299  21.571  0.00  0.00    +0.000 NA
BRANCH  26  29
ATOM     29  C   UNL     1      -3.734  13.761  24.751  0.00  0.00    +0.000 C 
ATOM     30  F   UNL     1      -4.224  12.633  25.335  0.00  0.00    +0.000 F 
ATOM     31  F   UNL     1      -3.175  14.487  25.760  0.00  0.00    +0.000 F 
ENDBRANCH  26  29
ENDBRANCH  22  23
ENDBRANCH   6  22
TORSDOF 5
ENDMDL
MODEL 6
REMARK VINA RESULT:      -8.3      1.812      2.270
REMARK  Name = 
REMARK  5 active torsions:
REMARK  status: ('A' for Active; 'I' for Inactive)
REMARK    1  A    between atoms: C_2  and  C_11
REMARK    2  A    between atoms: N_3  and  C_4
REMARK    3  A    between atoms: C_16  and  O_17
REMARK    4  A    between atoms: O_17  and  C_18
REMARK    5  A    between atoms: C_21  and  C_22
REMARK                            x       y       z     vdW  Elec       q    Type
REMARK                         _______ _______ _______ _____ _____    ______ ____
ROOT
ATOM      1  C   UNL     1       2.208   7.144  19.471  0.00  0.00    +0.000 A 
ATOM      2  C   UNL     1       2.273   7.884  18.302  0.00  0.00    +0.000 A 
ATOM      3  C   UNL     1       1.657   9.131  18.281  0.00  0.00    +0.000 A 
ATOM      4  C   UNL     1       0.995   9.600  19.424  0.00  0.00    +0.000 A 
ATOM      5  C   UNL     1       0.367  10.862  19.448  0.00  0.00    +0.000 A 
ATOM      6  C   UNL     1      -0.283  11.306  20.599  0.00  0.00    +0.000 A 
ATOM      7  C   UNL     1      -0.347  10.465  21.709  0.00  0.00    +0.000 A 
ATOM      8  C   UNL     1       0.294   9.222  21.688  0.00  0.00    +0.000 A 
ATOM      9  C   UNL     1       0.971   8.766  20.566  0.00  0.00    +0.000 A 
ATOM     10  N   UNL     1       1.566   7.558  20.600  0.00  0.00    +0.000 NA
ENDROOT
BRANCH   1  12
ATOM     11  O   UNL     1       2.662   5.025  20.464  0.00  0.00    +0.000 OA
ATOM     12  C   UNL     1       2.875   5.800  19.538  0.00  0.00    +0.000 C 
ATOM     13  N   UNL     1       3.731   5.524  18.489  0.00  0.00    +0.000 N 
ATOM     14  H   UNL     1       3.887   6.306  17.854  0.00  0.00    +0.000 HD
BRANCH  13  15
ATOM     15  C   UNL     1       4.537   4.311  18.426  0.00  0.00    +0.000 C 
ATOM     16  C   UNL     1       5.980   4.565  18.884  0.00  0.00    +0.000 C 
ATOM     17  C   UNL     1       6.732   5.499  17.949  0.00  0.00    +0.000 C 
ATOM     18  S   UNL     1       6.942   4.754  16.305  0.00  0.00    +0.000 S 
ATOM     19  O   UNL     1       7.459   5.881  15.342  0.00  0.00    +0.000 OA
ATOM     20  C   UNL     1       5.174   4.521  15.961  0.00  0.00    +0.000 C 
ATOM     21  C   UNL     1       4.497   3.678  17.030  0.00  0.00    +0.000 C 
ENDBRANCH  13  15
ENDBRANCH   1  12
BRANCH   6  22
ATOM     22  O   UNL     1      -0.902  12.535  20.532  0.00  0.00    +0.000 OA
BRANCH  22  23
ATOM     23  C   UNL     1      -2.076  12.724  21.253  0.00  0.00    +0.000 A 
ATOM     24  C   UNL     1      -3.267  12.585  20.556  0.00  0.00    +0.000 A 
ATOM     25  C   UNL     1      -4.464  12.759  21.251  0.00  0.00    +0.000 A 
ATOM     26  C   UNL     1      -4.436  13.063  22.614  0.00  0.00    +0.000 A 
ATOM     27  C   UNL     1      -3.191  13.210  23.212  0.00  0.00    +0.000 A 
ATOM     28  N   UNL     1      -2.018  13.065  22.561  0.00  0.00    +0.000 NA
BRANCH  26  29
ATOM     29  C   UNL     1      -5.683  13.276  23.416  0.00  0.00    +0.000 C 
ATOM     30  F   UNL     1      -6.815  12.939  22.739  0.00  0.00    +0.000 F 
ATOM     31  F   UNL     1      -5.706  12.543  24.564  0.00  0.00    +0.000 F 
ENDBRANCH  26  29
ENDBRANCH  22  23
ENDBRANCH   6  22
TORSDOF 5
ENDMDL
MODEL 7
REMARK VINA RESULT:      -8.3      5.290     10.670
REMARK  Name = 
REMARK  5 active torsions:
REMARK  status: ('A' for Active; 'I' for Inactive)
REMARK    1  A    between atoms: C_2  and  C_11
REMARK    2  A    between atoms: N_3  and  C_4
REMARK    3  A    between atoms: C_16  and  O_17
REMARK    4  A    between atoms: O_17  and  C_18
REMARK    5  A    between atoms: C_21  and  C_22
REMARK                            x       y       z     vdW  Elec       q    Type
REMARK                         _______ _______ _______ _____ _____    ______ ____
ROOT
ATOM      1  C   UNL     1      -3.735  11.461  18.113  0.00  0.00    +0.000 A 
ATOM      2  C   UNL     1      -3.540  10.603  17.043  0.00  0.00    +0.000 A 
ATOM      3  C   UNL     1      -2.319   9.944  16.947  0.00  0.00    +0.000 A 
ATOM      4  C   UNL     1      -1.331  10.164  17.917  0.00  0.00    +0.000 A 
ATOM      5  C   UNL     1      -0.083   9.508  17.862  0.00  0.00    +0.000 A 
ATOM      6  C   UNL     1       0.881   9.742  18.842  0.00  0.00    +0.000 A 
ATOM      7  C   UNL     1       0.615  10.670  19.848  0.00  0.00    +0.000 A 
ATOM      8  C   UNL     1      -0.631  11.303  19.911  0.00  0.00    +0.000 A 
ATOM      9  C   UNL     1      -1.619  11.069  18.965  0.00  0.00    +0.000 A 
ATOM     10  N   UNL     1      -2.799  11.710  19.071  0.00  0.00    +0.000 NA
ENDROOT
BRANCH   1  12
ATOM     11  O   UNL     1      -5.751  12.432  17.290  0.00  0.00    +0.000 OA
ATOM     12  C   UNL     1      -5.047  12.179  18.260  0.00  0.00    +0.000 C 
ATOM     13  N   UNL     1      -5.377  12.521  19.558  0.00  0.00    +0.000 N 
ATOM     14  H   UNL     1      -4.644  12.341  20.243  0.00  0.00    +0.000 HD
BRANCH  13  15
ATOM     15  C   UNL     1      -6.563  13.301  19.891  0.00  0.00    +0.000 C 
ATOM     16  C   UNL     1      -6.343  14.162  21.144  0.00  0.00    +0.000 C 
ATOM     17  C   UNL     1      -6.146  13.325  22.398  0.00  0.00    +0.000 C 
ATOM     18  S   UNL     1      -7.646  12.381  22.799  0.00  0.00    +0.000 S 
ATOM     19  O   UNL     1      -7.264  11.345  23.916  0.00  0.00    +0.000 OA
ATOM     20  C   UNL     1      -7.739  11.471  21.230  0.00  0.00    +0.000 C 
ATOM     21  C   UNL     1      -7.803  12.410  20.035  0.00  0.00    +0.000 C 
ENDBRANCH  13  15
ENDBRANCH   1  12
BRANCH   6  22
ATOM     22  O   UNL     1       2.086   9.091  18.700  0.00  0.00    +0.000 OA
BRANCH  22  23
ATOM     23  C   UNL     1       2.168   7.758  19.090  0.00  0.00    +0.000 A 
ATOM     24  C   UNL     1       2.634   6.857  18.144  0.00  0.00    +0.000 A 
ATOM     25  C   UNL     1       2.736   5.514  18.505  0.00  0.00    +0.000 A 
ATOM     26  C   UNL     1       2.374   5.113  19.794  0.00  0.00    +0.000 A 
ATOM     27  C   UNL     1       1.892   6.089  20.656  0.00  0.00    +0.000 A 
ATOM     28  N   UNL     1       1.765   7.392  20.328  0.00  0.00    +0.000 NA
BRANCH  26  29
ATOM     29  C   UNL     1       2.448   3.685  20.241  0.00  0.00    +0.000 C 
ATOM     30  F   UNL     1       3.695   3.154  20.123  0.00  0.00    +0.000 F 
ATOM     31  F   UNL     1       2.097   3.521  21.548  0.00  0.00    +0.000 F 
ENDBRANCH  26  29
ENDBRANCH  22  23
ENDBRANCH   6  22
TORSDOF 5
ENDMDL
MODEL 8
REMARK VINA RESULT:      -8.2      3.063      3.601
REMARK  Name = 
REMARK  5 active torsions:
REMARK  status: ('A' for Active; 'I' for Inactive)
REMARK    1  A    between atoms: C_2  and  C_11
REMARK    2  A    between atoms: N_3  and  C_4
REMARK    3  A    between atoms: C_16  and  O_17
REMARK    4  A    between atoms: O_17  and  C_18
REMARK    5  A    between atoms: C_21  and  C_22
REMARK                            x       y       z     vdW  Elec       q    Type
REMARK                         _______ _______ _______ _____ _____    ______ ____
ROOT
ATOM      1  C   UNL     1       2.220   7.239  19.642  0.00  0.00    +0.000 A 
ATOM      2  C   UNL     1       2.240   7.976  18.470  0.00  0.00    +0.000 A 
ATOM      3  C   UNL     1       1.544   9.179  18.441  0.00  0.00    +0.000 A 
ATOM      4  C   UNL     1       0.848   9.608  19.580  0.00  0.00    +0.000 A 
ATOM      5  C   UNL     1       0.138  10.826  19.596  0.00  0.00    +0.000 A 
ATOM      6  C   UNL     1      -0.544  11.231  20.744  0.00  0.00    +0.000 A 
ATOM      7  C   UNL     1      -0.556  10.393  21.857  0.00  0.00    +0.000 A 
ATOM      8  C   UNL     1       0.166   9.195  21.844  0.00  0.00    +0.000 A 
ATOM      9  C   UNL     1       0.875   8.780  20.726  0.00  0.00    +0.000 A 
ATOM     10  N   UNL     1       1.549   7.614  20.767  0.00  0.00    +0.000 NA
ENDROOT
BRANCH   1  12
ATOM     11  O   UNL     1       2.599   5.024  20.438  0.00  0.00    +0.000 OA
ATOM     12  C   UNL     1       2.974   5.941  19.718  0.00  0.00    +0.000 C 
ATOM     13  N   UNL     1       4.103   5.880  18.922  0.00  0.00    +0.000 N 
ATOM     14  H   UNL     1       4.346   6.757  18.464  0.00  0.00    +0.000 HD
BRANCH  13  15
ATOM     15  C   UNL     1       5.012   4.741  18.930  0.00  0.00    +0.000 C 
ATOM     16  C   UNL     1       6.481   5.187  18.892  0.00  0.00    +0.000 C 
ATOM     17  C   UNL     1       6.845   5.880  17.588  0.00  0.00    +0.000 C 
ATOM     18  S   UNL     1       6.720   4.737  16.180  0.00  0.00    +0.000 S 
ATOM     19  O   UNL     1       6.828   5.595  14.869  0.00  0.00    +0.000 OA
ATOM     20  C   UNL     1       4.967   4.323  16.410  0.00  0.00    +0.000 C 
ATOM     21  C   UNL     1       4.697   3.758  17.795  0.00  0.00    +0.000 C 
ENDBRANCH  13  15
ENDBRANCH   1  12
BRANCH   6  22
ATOM     22  O   UNL     1      -1.242  12.416  20.670  0.00  0.00    +0.000 OA
BRANCH  22  23
ATOM     23  C   UNL     1      -1.668  13.008  21.854  0.00  0.00    +0.000 A 
ATOM     24  C   UNL     1      -0.744  13.792  22.529  0.00  0.00    +0.000 A 
ATOM     25  C   UNL     1      -1.141  14.407  23.716  0.00  0.00    +0.000 A 
ATOM     26  C   UNL     1      -2.443  14.225  24.190  0.00  0.00    +0.000 A 
ATOM     27  C   UNL     1      -3.281  13.397  23.455  0.00  0.00    +0.000 A 
ATOM     28  N   UNL     1      -2.919  12.774  22.314  0.00  0.00    +0.000 NA
BRANCH  26  29
ATOM     29  C   UNL     1      -2.928  14.846  25.463  0.00  0.00    +0.000 C 
ATOM     30  F   UNL     1      -1.921  15.343  26.232  0.00  0.00    +0.000 F 
ATOM     31  F   UNL     1      -3.782  15.887  25.253  0.00  0.00    +0.000 F 
ENDBRANCH  26  29
ENDBRANCH  22  23
ENDBRANCH   6  22
TORSDOF 5
ENDMDL
MODEL 9
REMARK VINA RESULT:      -8.2      5.583     10.880
REMARK  Name = 
REMARK  5 active torsions:
REMARK  status: ('A' for Active; 'I' for Inactive)
REMARK    1  A    between atoms: C_2  and  C_11
REMARK    2  A    between atoms: N_3  and  C_4
REMARK    3  A    between atoms: C_16  and  O_17
REMARK    4  A    between atoms: O_17  and  C_18
REMARK    5  A    between atoms: C_21  and  C_22
REMARK                            x       y       z     vdW  Elec       q    Type
REMARK                         _______ _______ _______ _____ _____    ______ ____
ROOT
ATOM      1  C   UNL     1      -0.300  11.123  20.736  0.00  0.00    +0.000 A 
ATOM      2  C   UNL     1      -0.198  10.357  21.885  0.00  0.00    +0.000 A 
ATOM      3  C   UNL     1       0.518   9.167  21.818  0.00  0.00    +0.000 A 
ATOM      4  C   UNL     1       1.108   8.777  20.607  0.00  0.00    +0.000 A 
ATOM      5  C   UNL     1       1.851   7.583  20.498  0.00  0.00    +0.000 A 
ATOM      6  C   UNL     1       2.430   7.220  19.282  0.00  0.00    +0.000 A 
ATOM      7  C   UNL     1       2.222   8.026  18.164  0.00  0.00    +0.000 A 
ATOM      8  C   UNL     1       1.502   9.220  18.281  0.00  0.00    +0.000 A 
ATOM      9  C   UNL     1       0.938   9.619  19.484  0.00  0.00    +0.000 A 
ATOM     10  N   UNL     1       0.249  10.776  19.538  0.00  0.00    +0.000 NA
ENDROOT
BRANCH   1  12
ATOM     11  O   UNL     1      -0.950  13.248  19.872  0.00  0.00    +0.000 OA
ATOM     12  C   UNL     1      -1.051  12.423  20.773  0.00  0.00    +0.000 C 
ATOM     13  N   UNL     1      -1.847  12.602  21.890  0.00  0.00    +0.000 N 
ATOM     14  H   UNL     1      -1.745  11.879  22.601  0.00  0.00    +0.000 HD
BRANCH  13  15
ATOM     15  C   UNL     1      -2.579  13.835  22.148  0.00  0.00    +0.000 C 
ATOM     16  C   UNL     1      -2.741  14.094  23.653  0.00  0.00    +0.000 C 
ATOM     17  C   UNL     1      -3.617  13.052  24.331  0.00  0.00    +0.000 C 
ATOM     18  S   UNL     1      -5.323  13.123  23.710  0.00  0.00    +0.000 S 
ATOM     19  O   UNL     1      -6.070  11.848  24.242  0.00  0.00    +0.000 OA
ATOM     20  C   UNL     1      -4.916  12.822  21.966  0.00  0.00    +0.000 C 
ATOM     21  C   UNL     1      -3.933  13.850  21.429  0.00  0.00    +0.000 C 
ENDBRANCH  13  15
ENDBRANCH   1  12
BRANCH   6  22
ATOM     22  O   UNL     1       3.111   6.023  19.248  0.00  0.00    +0.000 OA
BRANCH  22  23
ATOM     23  C   UNL     1       3.876   5.730  18.124  0.00  0.00    +0.000 A 
ATOM     24  C   UNL     1       3.681   4.485  17.543  0.00  0.00    +0.000 A 
ATOM     25  C   UNL     1       4.426   4.163  16.408  0.00  0.00    +0.000 A 
ATOM     26  C   UNL     1       5.337   5.087  15.890  0.00  0.00    +0.000 A 
ATOM     27  C   UNL     1       5.478   6.293  16.564  0.00  0.00    +0.000 A 
ATOM     28  N   UNL     1       4.784   6.625  17.673  0.00  0.00    +0.000 NA
BRANCH  26  29
ATOM     29  C   UNL     1       6.176   4.798  14.684  0.00  0.00    +0.000 C 
ATOM     30  F   UNL     1       7.510   4.770  14.958  0.00  0.00    +0.000 F 
ATOM     31  F   UNL     1       5.889   3.593  14.116  0.00  0.00    +0.000 F 
ENDBRANCH  26  29
ENDBRANCH  22  23
ENDBRANCH   6  22
TORSDOF 5
ENDMDL
