MODEL 1
REMARK VINA RESULT:      -8.4      0.000      0.000
REMARK  Name = 
REMARK  9 active torsions:
REMARK  status: ('A' for Active; 'I' for Inactive)
REMARK    1  A    between atoms: C_1  and  N_2
REMARK    2  A    between atoms: N_2  and  C_3
REMARK    3  A    between atoms: N_2  and  C_23
REMARK    4  A    between atoms: C_3  and  C_4
REMARK    5  A    between atoms: C_4  and  C_5
REMARK    6  A    between atoms: C_5  and  C_6
REMARK    7  A    between atoms: C_6  and  C_7
REMARK    8  A    between atoms: N_9  and  C_10
REMARK    9  A    between atoms: C_23  and  C_24
REMARK                            x       y       z     vdW  Elec       q    Type
REMARK                         _______ _______ _______ _____ _____    ______ ____
ROOT
ATOM      1  C   UNL     1       3.238   7.435  17.816  0.00  0.00    +0.000 A 
ATOM      2  C   UNL     1       2.585   6.682  18.763  0.00  0.00    +0.000 A 
ATOM      3  N   UNL     1       3.020   5.381  18.699  0.00  0.00    +0.000 N 
ATOM      4  C   UNL     1       3.919   5.264  17.641  0.00  0.00    +0.000 A 
ATOM      5  C   UNL     1       4.564   4.141  17.079  0.00  0.00    +0.000 A 
ATOM      6  C   UNL     1       5.426   4.323  15.997  0.00  0.00    +0.000 A 
ATOM      7  C   UNL     1       5.635   5.586  15.466  0.00  0.00    +0.000 A 
ATOM      8  C   UNL     1       4.970   6.699  15.998  0.00  0.00    +0.000 A 
ATOM      9  C   UNL     1       4.084   6.542  17.090  0.00  0.00    +0.000 A 
ENDROOT
BRANCH   3  10
ATOM     10  C   UNL     1       2.602   4.375  19.610  0.00  0.00    +0.000 A 
ATOM     11  C   UNL     1       1.228   4.150  19.806  0.00  0.00    +0.000 A 
ATOM     12  C   UNL     1       0.808   3.191  20.725  0.00  0.00    +0.000 A 
ATOM     13  C   UNL     1       1.754   2.474  21.446  0.00  0.00    +0.000 A 
ATOM     14  F   UNL     1       1.346   1.561  22.336  0.00  0.00    +0.000 F 
ATOM     15  C   UNL     1       3.115   2.697  21.269  0.00  0.00    +0.000 A 
ATOM     16  C   UNL     1       3.544   3.651  20.353  0.00  0.00    +0.000 A 
ENDBRANCH   3  10
BRANCH   1  17
ATOM     17  C   UNL     1       3.060   8.903  17.640  0.00  0.00    +0.000 C 
BRANCH  17  18
ATOM     18  C   UNL     1       1.586   9.328  17.678  0.00  0.00    +0.000 C 
BRANCH  18  19
ATOM     19  C   UNL     1       1.142   9.820  19.058  0.00  0.00    +0.000 C 
BRANCH  19  20
ATOM     20  C   UNL     1       1.045  11.350  19.101  0.00  0.00    +0.000 C 
BRANCH  20  22
ATOM     21  C   UNL     1      -0.487  12.754  20.354  0.00  0.00    +0.000 C 
ATOM     22  N   UNL     1      -0.319  11.898  19.177  0.00  0.00    +0.000 NA
BRANCH  22  23
ATOM     23  C   UNL     1      -1.262  10.761  19.217  0.00  0.00    +0.000 C 
BRANCH  23  24
ATOM     24  C   UNL     1      -2.240  10.725  18.067  0.00  0.00    +0.000 A 
ATOM     25  C   UNL     1      -1.949   9.971  16.920  0.00  0.00    +0.000 A 
ATOM     26  C   UNL     1      -2.819   9.973  15.830  0.00  0.00    +0.000 A 
ATOM     27  C   UNL     1      -3.993  10.724  15.879  0.00  0.00    +0.000 A 
ATOM     28  C   UNL     1      -4.301  11.456  17.025  0.00  0.00    +0.000 A 
ATOM     29 CL   UNL     1      -5.756  12.372  17.085  0.00  0.00    +0.000 Cl
ATOM     30  C   UNL     1      -3.435  11.458  18.118  0.00  0.00    +0.000 A 
ENDBRANCH  23  24
ENDBRANCH  22  23
ENDBRANCH  20  22
ENDBRANCH  19  20
ENDBRANCH  18  19
ENDBRANCH  17  18
ENDBRANCH   1  17
TORSDOF 8
ENDMDL
MODEL 2
REMARK VINA RESULT:      -8.3      6.123      8.318
REMARK  Name = 
REMARK  9 active torsions:
REMARK  status: ('A' for Active; 'I' for Inactive)
REMARK    1  A    between atoms: C_1  and  N_2
REMARK    2  A    between atoms: N_2  and  C_3
REMARK    3  A    between atoms: N_2  and  C_23
REMARK    4  A    between atoms: C_3  and  C_4
REMARK    5  A    between atoms: C_4  and  C_5
REMARK    6  A    between atoms: C_5  and  C_6
REMARK    7  A    between atoms: C_6  and  C_7
REMARK    8  A    between atoms: N_9  and  C_10
REMARK    9  A    between atoms: C_23  and  C_24
REMARK                            x       y       z     vdW  Elec       q    Type
REMARK                         _______ _______ _______ _____ _____    ______ ____
ROOT
ATOM      1  C   UNL     1       6.991   6.080  18.029  0.00  0.00    +0.000 A 
ATOM      2  C   UNL     1       5.938   5.741  18.846  0.00  0.00    +0.000 A 
ATOM      3  N   UNL     1       5.095   4.883  18.183  0.00  0.00    +0.000 N 
ATOM      4  C   UNL     1       5.564   4.717  16.882  0.00  0.00    +0.000 A 
ATOM      5  C   UNL     1       5.020   4.040  15.769  0.00  0.00    +0.000 A 
ATOM      6  C   UNL     1       5.720   4.043  14.561  0.00  0.00    +0.000 A 
ATOM      7  C   UNL     1       6.926   4.719  14.447  0.00  0.00    +0.000 A 
ATOM      8  C   UNL     1       7.453   5.421  15.539  0.00  0.00    +0.000 A 
ATOM      9  C   UNL     1       6.760   5.440  16.772  0.00  0.00    +0.000 A 
ENDROOT
BRANCH   3  10
ATOM     10  C   UNL     1       3.963   4.279  18.791  0.00  0.00    +0.000 A 
ATOM     11  C   UNL     1       2.684   4.805  18.540  0.00  0.00    +0.000 A 
ATOM     12  C   UNL     1       1.571   4.242  19.162  0.00  0.00    +0.000 A 
ATOM     13  C   UNL     1       1.741   3.173  20.032  0.00  0.00    +0.000 A 
ATOM     14  F   UNL     1       0.669   2.642  20.635  0.00  0.00    +0.000 F 
ATOM     15  C   UNL     1       3.003   2.654  20.297  0.00  0.00    +0.000 A 
ATOM     16  C   UNL     1       4.119   3.207  19.680  0.00  0.00    +0.000 A 
ENDBRANCH   3  10
BRANCH   1  17
ATOM     17  C   UNL     1       8.130   6.946  18.441  0.00  0.00    +0.000 C 
BRANCH  17  18
ATOM     18  C   UNL     1       8.027   8.367  17.870  0.00  0.00    +0.000 C 
BRANCH  18  19
ATOM     19  C   UNL     1       8.693   9.418  18.762  0.00  0.00    +0.000 C 
BRANCH  19  20
ATOM     20  C   UNL     1       9.315  10.546  17.930  0.00  0.00    +0.000 C 
BRANCH  20  22
ATOM     21  C   UNL     1       9.700  12.920  17.609  0.00  0.00    +0.000 C 
ATOM     22  N   UNL     1       9.316  11.876  18.563  0.00  0.00    +0.000 NA
BRANCH  22  23
ATOM     23  C   UNL     1      10.256  11.834  19.702  0.00  0.00    +0.000 C 
BRANCH  23  24
ATOM     24  C   UNL     1       9.797  12.610  20.913  0.00  0.00    +0.000 A 
ATOM     25  C   UNL     1       8.884  12.036  21.811  0.00  0.00    +0.000 A 
ATOM     26  C   UNL     1       8.412  12.762  22.904  0.00  0.00    +0.000 A 
ATOM     27  C   UNL     1       8.855  14.067  23.115  0.00  0.00    +0.000 A 
ATOM     28  C   UNL     1       9.781  14.635  22.241  0.00  0.00    +0.000 A 
ATOM     29 CL   UNL     1      10.333  16.242  22.511  0.00  0.00    +0.000 Cl
ATOM     30  C   UNL     1      10.256  13.915  21.146  0.00  0.00    +0.000 A 
ENDBRANCH  23  24
ENDBRANCH  22  23
ENDBRANCH  20  22
ENDBRANCH  19  20
ENDBRANCH  18  19
ENDBRANCH  17  18
ENDBRANCH   1  17
TORSDOF 8
ENDMDL
MODEL 3
REMARK VINA RESULT:      -8.2      1.014      1.339
REMARK  Name = 
REMARK  9 active torsions:
REMARK  status: ('A' for Active; 'I' for Inactive)
REMARK    1  A    between atoms: C_1  and  N_2
REMARK    2  A    between atoms: N_2  and  C_3
REMARK    3  A    between atoms: N_2  and  C_23
REMARK    4  A    between atoms: C_3  and  C_4
REMARK    5  A    between atoms: C_4  and  C_5
REMARK    6  A    between atoms: C_5  and  C_6
REMARK    7  A    between atoms: C_6  and  C_7
REMARK    8  A    between atoms: N_9  and  C_10
REMARK    9  A    between atoms: C_23  and  C_24
REMARK                            x       y       z     vdW  Elec       q    Type
REMARK                         _______ _______ _______ _____ _____    ______ ____
ROOT
ATOM      1  C   UNL     1       2.906   7.608  17.820  0.00  0.00    +0.000 A 
ATOM      2  C   UNL     1       2.238   6.854  18.756  0.00  0.00    +0.000 A 
ATOM      3  N   UNL     1       2.734   5.573  18.758  0.00  0.00    +0.000 N 
ATOM      4  C   UNL     1       3.692   5.466  17.752  0.00  0.00    +0.000 A 
ATOM      5  C   UNL     1       4.416   4.358  17.261  0.00  0.00    +0.000 A 
ATOM      6  C   UNL     1       5.327   4.547  16.221  0.00  0.00    +0.000 A 
ATOM      7  C   UNL     1       5.506   5.802  15.660  0.00  0.00    +0.000 A 
ATOM      8  C   UNL     1       4.765   6.898  16.120  0.00  0.00    +0.000 A 
ATOM      9  C   UNL     1       3.830   6.733  17.169  0.00  0.00    +0.000 A 
ENDROOT
BRANCH   3  10
ATOM     10  C   UNL     1       2.313   4.577  19.678  0.00  0.00    +0.000 A 
ATOM     11  C   UNL     1       1.329   3.652  19.289  0.00  0.00    +0.000 A 
ATOM     12  C   UNL     1       0.883   2.694  20.197  0.00  0.00    +0.000 A 
ATOM     13  C   UNL     1       1.410   2.671  21.482  0.00  0.00    +0.000 A 
ATOM     14  F   UNL     1       0.971   1.755  22.355  0.00  0.00    +0.000 F 
ATOM     15  C   UNL     1       2.376   3.590  21.880  0.00  0.00    +0.000 A 
ATOM     16  C   UNL     1       2.828   4.548  20.981  0.00  0.00    +0.000 A 
ENDBRANCH   3  10
BRANCH   1  17
ATOM     17  C   UNL     1       2.672   9.060  17.587  0.00  0.00    +0.000 C 
BRANCH  17  18
ATOM     18  C   UNL     1       1.227   9.480  17.887  0.00  0.00    +0.000 C 
BRANCH  18  19
ATOM     19  C   UNL     1       1.099  10.304  19.171  0.00  0.00    +0.000 C 
BRANCH  19  20
ATOM     20  C   UNL     1       0.963  11.800  18.864  0.00  0.00    +0.000 C 
BRANCH  20  22
ATOM     21  C   UNL     1      -0.183  13.196  20.484  0.00  0.00    +0.000 C 
ATOM     22  N   UNL     1      -0.318  12.414  19.252  0.00  0.00    +0.000 NA
BRANCH  22  23
ATOM     23  C   UNL     1      -1.306  11.329  19.426  0.00  0.00    +0.000 C 
BRANCH  23  24
ATOM     24  C   UNL     1      -2.403  11.318  18.389  0.00  0.00    +0.000 A 
ATOM     25  C   UNL     1      -3.692  11.763  18.724  0.00  0.00    +0.000 A 
ATOM     26  C   UNL     1      -4.726  11.708  17.791  0.00  0.00    +0.000 A 
ATOM     27  C   UNL     1      -4.481  11.215  16.510  0.00  0.00    +0.000 A 
ATOM     28  C   UNL     1      -3.198  10.795  16.162  0.00  0.00    +0.000 A 
ATOM     29 CL   UNL     1      -2.899  10.197  14.576  0.00  0.00    +0.000 Cl
ATOM     30  C   UNL     1      -2.160  10.846  17.090  0.00  0.00    +0.000 A 
ENDBRANCH  23  24
ENDBRANCH  22  23
ENDBRANCH  20  22
ENDBRANCH  19  20
ENDBRANCH  18  19
ENDBRANCH  17  18
ENDBRANCH   1  17
TORSDOF 8
ENDMDL
MODEL 4
REMARK VINA RESULT:      -8.1      4.103      8.445
REMARK  Name = 
REMARK  9 active torsions:
REMARK  status: ('A' for Active; 'I' for Inactive)
REMARK    1  A    between atoms: C_1  and  N_2
REMARK    2  A    between atoms: N_2  and  C_3
REMARK    3  A    between atoms: N_2  and  C_23
REMARK    4  A    between atoms: C_3  and  C_4
REMARK    5  A    between atoms: C_4  and  C_5
REMARK    6  A    between atoms: C_5  and  C_6
REMARK    7  A    between atoms: C_6  and  C_7
REMARK    8  A    between atoms: N_9  and  C_10
REMARK    9  A    between atoms: C_23  and  C_24
REMARK                            x       y       z     vdW  Elec       q    Type
REMARK                         _______ _______ _______ _____ _____    ______ ____
ROOT
ATOM      1  C   UNL     1       1.614   6.593  20.656  0.00  0.00    +0.000 A 
ATOM      2  C   UNL     1       0.901   7.459  21.450  0.00  0.00    +0.000 A 
ATOM      3  N   UNL     1       0.771   8.669  20.813  0.00  0.00    +0.000 N 
ATOM      4  C   UNL     1       1.476   8.618  19.613  0.00  0.00    +0.000 A 
ATOM      5  C   UNL     1       1.756   9.609  18.647  0.00  0.00    +0.000 A 
ATOM      6  C   UNL     1       2.506   9.269  17.521  0.00  0.00    +0.000 A 
ATOM      7  C   UNL     1       2.990   7.980  17.359  0.00  0.00    +0.000 A 
ATOM      8  C   UNL     1       2.745   7.002  18.331  0.00  0.00    +0.000 A 
ATOM      9  C   UNL     1       1.993   7.321  19.486  0.00  0.00    +0.000 A 
ENDROOT
BRANCH   3  10
ATOM     10  C   UNL     1       0.006   9.745  21.336  0.00  0.00    +0.000 A 
ATOM     11  C   UNL     1      -0.334   9.750  22.700  0.00  0.00    +0.000 A 
ATOM     12  C   UNL     1      -1.115  10.783  23.215  0.00  0.00    +0.000 A 
ATOM     13  C   UNL     1      -1.559  11.792  22.369  0.00  0.00    +0.000 A 
ATOM     14  F   UNL     1      -2.318  12.776  22.865  0.00  0.00    +0.000 F 
ATOM     15  C   UNL     1      -1.239  11.789  21.016  0.00  0.00    +0.000 A 
ATOM     16  C   UNL     1      -0.458  10.765  20.494  0.00  0.00    +0.000 A 
ENDBRANCH   3  10
BRANCH   1  17
ATOM     17  C   UNL     1       1.895   5.172  21.002  0.00  0.00    +0.000 C 
BRANCH  17  18
ATOM     18  C   UNL     1       0.887   4.201  20.372  0.00  0.00    +0.000 C 
BRANCH  18  19
ATOM     19  C   UNL     1       1.313   2.735  20.497  0.00  0.00    +0.000 C 
BRANCH  19  20
ATOM     20  C   UNL     1       2.840   2.595  20.505  0.00  0.00    +0.000 C 
BRANCH  20  22
ATOM     21  C   UNL     1       3.546   1.513  18.452  0.00  0.00    +0.000 C 
ATOM     22  N   UNL     1       3.501   2.771  19.201  0.00  0.00    +0.000 NA
BRANCH  22  23
ATOM     23  C   UNL     1       4.865   3.283  19.451  0.00  0.00    +0.000 C 
BRANCH  23  24
ATOM     24  C   UNL     1       5.359   4.262  18.412  0.00  0.00    +0.000 A 
ATOM     25  C   UNL     1       5.991   5.450  18.811  0.00  0.00    +0.000 A 
ATOM     26  C   UNL     1       6.403   6.385  17.863  0.00  0.00    +0.000 A 
ATOM     27  C   UNL     1       6.195   6.140  16.506  0.00  0.00    +0.000 A 
ATOM     28  C   UNL     1       5.591   4.950  16.102  0.00  0.00    +0.000 A 
ATOM     29 CL   UNL     1       5.345   4.646  14.426  0.00  0.00    +0.000 Cl
ATOM     30  C   UNL     1       5.175   4.010  17.044  0.00  0.00    +0.000 A 
ENDBRANCH  23  24
ENDBRANCH  22  23
ENDBRANCH  20  22
ENDBRANCH  19  20
ENDBRANCH  18  19
ENDBRANCH  17  18
ENDBRANCH   1  17
TORSDOF 8
ENDMDL
MODEL 5
REMARK VINA RESULT:      -8.1      4.359      8.471
REMARK  Name = 
REMARK  9 active torsions:
REMARK  status: ('A' for Active; 'I' for Inactive)
REMARK    1  A    between atoms: C_1  and  N_2
REMARK    2  A    between atoms: N_2  and  C_3
REMARK    3  A    between atoms: N_2  and  C_23
REMARK    4  A    between atoms: C_3  and  C_4
REMARK    5  A    between atoms: C_4  and  C_5
REMARK    6  A    between atoms: C_5  and  C_6
REMARK    7  A    between atoms: C_6  and  C_7
REMARK    8  A    between atoms: N_9  and  C_10
REMARK    9  A    between atoms: C_23  and  C_24
REMARK                            x       y       z     vdW  Elec       q    Type
REMARK                         _______ _______ _______ _____ _____    ______ ____
ROOT
ATOM      1  C   UNL     1       1.869   6.368  20.570  0.00  0.00    +0.000 A 
ATOM      2  C   UNL     1       1.129   7.162  21.414  0.00  0.00    +0.000 A 
ATOM      3  N   UNL     1       0.910   8.384  20.827  0.00  0.00    +0.000 N 
ATOM      4  C   UNL     1       1.583   8.418  19.607  0.00  0.00    +0.000 A 
ATOM      5  C   UNL     1       1.776   9.457  18.672  0.00  0.00    +0.000 A 
ATOM      6  C   UNL     1       2.513   9.203  17.514  0.00  0.00    +0.000 A 
ATOM      7  C   UNL     1       3.067   7.951  17.292  0.00  0.00    +0.000 A 
ATOM      8  C   UNL     1       2.907   6.926  18.233  0.00  0.00    +0.000 A 
ATOM      9  C   UNL     1       2.171   7.159  19.419  0.00  0.00    +0.000 A 
ENDROOT
BRANCH   3  10
ATOM     10  C   UNL     1       0.099   9.393  21.409  0.00  0.00    +0.000 A 
ATOM     11  C   UNL     1      -0.353  10.459  20.612  0.00  0.00    +0.000 A 
ATOM     12  C   UNL     1      -1.118  11.474  21.182  0.00  0.00    +0.000 A 
ATOM     13  C   UNL     1      -1.418  11.426  22.538  0.00  0.00    +0.000 A 
ATOM     14  F   UNL     1      -2.145  12.408  23.084  0.00  0.00    +0.000 F 
ATOM     15  C   UNL     1      -0.965  10.382  23.338  0.00  0.00    +0.000 A 
ATOM     16  C   UNL     1      -0.203   9.364  22.777  0.00  0.00    +0.000 A 
ENDBRANCH   3  10
BRANCH   1  17
ATOM     17  C   UNL     1       2.242   4.955  20.856  0.00  0.00    +0.000 C 
BRANCH  17  18
ATOM     18  C   UNL     1       1.092   3.975  20.586  0.00  0.00    +0.000 C 
BRANCH  18  19
ATOM     19  C   UNL     1       0.926   3.645  19.100  0.00  0.00    +0.000 C 
BRANCH  19  20
ATOM     20  C   UNL     1       1.409   2.224  18.785  0.00  0.00    +0.000 C 
BRANCH  20  22
ATOM     21  C   UNL     1       3.724   1.583  18.442  0.00  0.00    +0.000 C 
ATOM     22  N   UNL     1       2.516   2.130  17.818  0.00  0.00    +0.000 NA
BRANCH  22  23
ATOM     23  C   UNL     1       2.769   3.485  17.286  0.00  0.00    +0.000 C 
BRANCH  23  24
ATOM     24  C   UNL     1       4.227   3.873  17.244  0.00  0.00    +0.000 A 
ATOM     25  C   UNL     1       4.906   4.182  18.433  0.00  0.00    +0.000 A 
ATOM     26  C   UNL     1       6.238   4.593  18.403  0.00  0.00    +0.000 A 
ATOM     27  C   UNL     1       6.907   4.693  17.183  0.00  0.00    +0.000 A 
ATOM     28  C   UNL     1       6.246   4.364  16.001  0.00  0.00    +0.000 A 
ATOM     29 CL   UNL     1       7.079   4.479  14.499  0.00  0.00    +0.000 Cl
ATOM     30  C   UNL     1       4.914   3.953  16.024  0.00  0.00    +0.000 A 
ENDBRANCH  23  24
ENDBRANCH  22  23
ENDBRANCH  20  22
ENDBRANCH  19  20
ENDBRANCH  18  19
ENDBRANCH  17  18
ENDBRANCH   1  17
TORSDOF 8
ENDMDL
MODEL 6
REMARK VINA RESULT:      -8.1      4.323      8.627
REMARK  Name = 
REMARK  9 active torsions:
REMARK  status: ('A' for Active; 'I' for Inactive)
REMARK    1  A    between atoms: C_1  and  N_2
REMARK    2  A    between atoms: N_2  and  C_3
REMARK    3  A    between atoms: N_2  and  C_23
REMARK    4  A    between atoms: C_3  and  C_4
REMARK    5  A    between atoms: C_4  and  C_5
REMARK    6  A    between atoms: C_5  and  C_6
REMARK    7  A    between atoms: C_6  and  C_7
REMARK    8  A    between atoms: N_9  and  C_10
REMARK    9  A    between atoms: C_23  and  C_24
REMARK                            x       y       z     vdW  Elec       q    Type
REMARK                         _______ _______ _______ _____ _____    ______ ____
ROOT
ATOM      1  C   UNL     1       1.618   6.750  20.723  0.00  0.00    +0.000 A 
ATOM      2  C   UNL     1       0.863   7.571  21.526  0.00  0.00    +0.000 A 
ATOM      3  N   UNL     1       0.665   8.777  20.898  0.00  0.00    +0.000 N 
ATOM      4  C   UNL     1       1.365   8.771  19.693  0.00  0.00    +0.000 A 
ATOM      5  C   UNL     1       1.586   9.782  18.733  0.00  0.00    +0.000 A 
ATOM      6  C   UNL     1       2.348   9.490  17.601  0.00  0.00    +0.000 A 
ATOM      7  C   UNL     1       2.899   8.229  17.428  0.00  0.00    +0.000 A 
ATOM      8  C   UNL     1       2.712   7.233  18.395  0.00  0.00    +0.000 A 
ATOM      9  C   UNL     1       1.950   7.505  19.556  0.00  0.00    +0.000 A 
ENDROOT
BRANCH   3  10
ATOM     10  C   UNL     1      -0.154   9.807  21.431  0.00  0.00    +0.000 A 
ATOM     11  C   UNL     1      -0.601  10.838  20.587  0.00  0.00    +0.000 A 
ATOM     12  C   UNL     1      -1.374  11.873  21.109  0.00  0.00    +0.000 A 
ATOM     13  C   UNL     1      -1.685  11.879  22.463  0.00  0.00    +0.000 A 
ATOM     14  F   UNL     1      -2.420  12.881  22.963  0.00  0.00    +0.000 F 
ATOM     15  C   UNL     1      -1.237  10.870  23.309  0.00  0.00    +0.000 A 
ATOM     16  C   UNL     1      -0.467   9.832  22.797  0.00  0.00    +0.000 A 
ENDBRANCH   3  10
BRANCH   1  17
ATOM     17  C   UNL     1       1.976   5.344  21.058  0.00  0.00    +0.000 C 
BRANCH  17  18
ATOM     18  C   UNL     1       1.000   4.325  20.454  0.00  0.00    +0.000 C 
BRANCH  18  19
ATOM     19  C   UNL     1       1.547   2.895  20.467  0.00  0.00    +0.000 C 
BRANCH  19  20
ATOM     20  C   UNL     1       1.801   2.381  19.045  0.00  0.00    +0.000 C 
BRANCH  20  22
ATOM     21  C   UNL     1       4.152   2.356  19.643  0.00  0.00    +0.000 C 
ATOM     22  N   UNL     1       3.183   2.520  18.556  0.00  0.00    +0.000 NA
BRANCH  22  23
ATOM     23  C   UNL     1       3.311   3.856  17.937  0.00  0.00    +0.000 C 
BRANCH  23  24
ATOM     24  C   UNL     1       4.714   4.206  17.503  0.00  0.00    +0.000 A 
ATOM     25  C   UNL     1       5.181   3.804  16.242  0.00  0.00    +0.000 A 
ATOM     26  C   UNL     1       6.492   4.076  15.852  0.00  0.00    +0.000 A 
ATOM     27  C   UNL     1       7.347   4.758  16.716  0.00  0.00    +0.000 A 
ATOM     28  C   UNL     1       6.882   5.183  17.960  0.00  0.00    +0.000 A 
ATOM     29 CL   UNL     1       7.938   6.034  19.018  0.00  0.00    +0.000 Cl
ATOM     30  C   UNL     1       5.573   4.914  18.356  0.00  0.00    +0.000 A 
ENDBRANCH  23  24
ENDBRANCH  22  23
ENDBRANCH  20  22
ENDBRANCH  19  20
ENDBRANCH  18  19
ENDBRANCH  17  18
ENDBRANCH   1  17
TORSDOF 8
ENDMDL
MODEL 7
REMARK VINA RESULT:      -8.1      2.415      4.318
REMARK  Name = 
REMARK  9 active torsions:
REMARK  status: ('A' for Active; 'I' for Inactive)
REMARK    1  A    between atoms: C_1  and  N_2
REMARK    2  A    between atoms: N_2  and  C_3
REMARK    3  A    between atoms: N_2  and  C_23
REMARK    4  A    between atoms: C_3  and  C_4
REMARK    5  A    between atoms: C_4  and  C_5
REMARK    6  A    between atoms: C_5  and  C_6
REMARK    7  A    between atoms: C_6  and  C_7
REMARK    8  A    between atoms: N_9  and  C_10
REMARK    9  A    between atoms: C_23  and  C_24
REMARK                            x       y       z     vdW  Elec       q    Type
REMARK                         _______ _______ _______ _____ _____    ______ ____
ROOT
ATOM      1  C   UNL     1       2.082   6.051  20.079  0.00  0.00    +0.000 A 
ATOM      2  C   UNL     1       3.151   6.399  19.288  0.00  0.00    +0.000 A 
ATOM      3  N   UNL     1       3.674   5.275  18.696  0.00  0.00    +0.000 N 
ATOM      4  C   UNL     1       2.981   4.161  19.168  0.00  0.00    +0.000 A 
ATOM      5  C   UNL     1       3.183   2.778  18.970  0.00  0.00    +0.000 A 
ATOM      6  C   UNL     1       2.319   1.870  19.583  0.00  0.00    +0.000 A 
ATOM      7  C   UNL     1       1.286   2.316  20.393  0.00  0.00    +0.000 A 
ATOM      8  C   UNL     1       1.102   3.686  20.620  0.00  0.00    +0.000 A 
ATOM      9  C   UNL     1       1.968   4.628  20.017  0.00  0.00    +0.000 A 
ENDROOT
BRANCH   3  10
ATOM     10  C   UNL     1       4.729   5.313  17.748  0.00  0.00    +0.000 A 
ATOM     11  C   UNL     1       4.462   4.992  16.406  0.00  0.00    +0.000 A 
ATOM     12  C   UNL     1       5.499   4.990  15.475  0.00  0.00    +0.000 A 
ATOM     13  C   UNL     1       6.789   5.298  15.887  0.00  0.00    +0.000 A 
ATOM     14  F   UNL     1       7.784   5.285  14.992  0.00  0.00    +0.000 F 
ATOM     15  C   UNL     1       7.066   5.605  17.215  0.00  0.00    +0.000 A 
ATOM     16  C   UNL     1       6.038   5.611  18.151  0.00  0.00    +0.000 A 
ENDBRANCH   3  10
BRANCH   1  17
ATOM     17  C   UNL     1       1.237   7.024  20.825  0.00  0.00    +0.000 C 
BRANCH  17  18
ATOM     18  C   UNL     1       1.776   8.459  20.743  0.00  0.00    +0.000 C 
BRANCH  18  19
ATOM     19  C   UNL     1       0.712   9.472  20.313  0.00  0.00    +0.000 C 
BRANCH  19  20
ATOM     20  C   UNL     1       1.108  10.179  19.011  0.00  0.00    +0.000 C 
BRANCH  20  22
ATOM     21  C   UNL     1       0.677  12.567  18.978  0.00  0.00    +0.000 C 
ATOM     22  N   UNL     1       0.196  11.246  18.565  0.00  0.00    +0.000 NA
BRANCH  22  23
ATOM     23  C   UNL     1      -1.138  10.970  19.139  0.00  0.00    +0.000 C 
BRANCH  23  24
ATOM     24  C   UNL     1      -2.271  11.064  18.146  0.00  0.00    +0.000 A 
ATOM     25  C   UNL     1      -3.502  11.617  18.534  0.00  0.00    +0.000 A 
ATOM     26  C   UNL     1      -4.572  11.660  17.642  0.00  0.00    +0.000 A 
ATOM     27  C   UNL     1      -4.422  11.157  16.350  0.00  0.00    +0.000 A 
ATOM     28  C   UNL     1      -3.195  10.630  15.950  0.00  0.00    +0.000 A 
ATOM     29 CL   UNL     1      -3.010  10.021  14.351  0.00  0.00    +0.000 Cl
ATOM     30  C   UNL     1      -2.120  10.583  16.837  0.00  0.00    +0.000 A 
ENDBRANCH  23  24
ENDBRANCH  22  23
ENDBRANCH  20  22
ENDBRANCH  19  20
ENDBRANCH  18  19
ENDBRANCH  17  18
ENDBRANCH   1  17
TORSDOF 8
ENDMDL
MODEL 8
REMARK VINA RESULT:      -8.0      4.212      8.522
REMARK  Name = 
REMARK  9 active torsions:
REMARK  status: ('A' for Active; 'I' for Inactive)
REMARK    1  A    between atoms: C_1  and  N_2
REMARK    2  A    between atoms: N_2  and  C_3
REMARK    3  A    between atoms: N_2  and  C_23
REMARK    4  A    between atoms: C_3  and  C_4
REMARK    5  A    between atoms: C_4  and  C_5
REMARK    6  A    between atoms: C_5  and  C_6
REMARK    7  A    between atoms: C_6  and  C_7
REMARK    8  A    between atoms: N_9  and  C_10
REMARK    9  A    between atoms: C_23  and  C_24
REMARK                            x       y       z     vdW  Elec       q    Type
REMARK                         _______ _______ _______ _____ _____    ______ ____
ROOT
ATOM      1  C   UNL     1       1.635   6.554  20.703  0.00  0.00    +0.000 A 
ATOM      2  C   UNL     1       0.891   7.402  21.489  0.00  0.00    +0.000 A 
ATOM      3  N   UNL     1       0.729   8.605  20.846  0.00  0.00    +0.000 N 
ATOM      4  C   UNL     1       1.443   8.570  19.650  0.00  0.00    +0.000 A 
ATOM      5  C   UNL     1       1.699   9.564  18.681  0.00  0.00    +0.000 A 
ATOM      6  C   UNL     1       2.466   9.242  17.561  0.00  0.00    +0.000 A 
ATOM      7  C   UNL     1       2.989   7.967  17.408  0.00  0.00    +0.000 A 
ATOM      8  C   UNL     1       2.767   6.986  18.383  0.00  0.00    +0.000 A 
ATOM      9  C   UNL     1       1.999   7.288  19.532  0.00  0.00    +0.000 A 
ENDROOT
BRANCH   3  10
ATOM     10  C   UNL     1      -0.070   9.660  21.359  0.00  0.00    +0.000 A 
ATOM     11  C   UNL     1      -0.460  10.707  20.506  0.00  0.00    +0.000 A 
ATOM     12  C   UNL     1      -1.214  11.766  21.009  0.00  0.00    +0.000 A 
ATOM     13  C   UNL     1      -1.562  11.779  22.353  0.00  0.00    +0.000 A 
ATOM     14  F   UNL     1      -2.277  12.804  22.835  0.00  0.00    +0.000 F 
ATOM     15  C   UNL     1      -1.171  10.755  23.209  0.00  0.00    +0.000 A 
ATOM     16  C   UNL     1      -0.421   9.694  22.716  0.00  0.00    +0.000 A 
ENDBRANCH   3  10
BRANCH   1  17
ATOM     17  C   UNL     1       1.956   5.144  21.058  0.00  0.00    +0.000 C 
BRANCH  17  18
ATOM     18  C   UNL     1       1.078   4.133  20.309  0.00  0.00    +0.000 C 
BRANCH  18  19
ATOM     19  C   UNL     1       1.795   2.808  20.034  0.00  0.00    +0.000 C 
BRANCH  19  20
ATOM     20  C   UNL     1       2.660   2.892  18.771  0.00  0.00    +0.000 C 
BRANCH  20  22
ATOM     21  C   UNL     1       4.401   1.935  20.163  0.00  0.00    +0.000 C 
ATOM     22  N   UNL     1       4.111   2.754  18.984  0.00  0.00    +0.000 NA
BRANCH  22  23
ATOM     23  C   UNL     1       4.676   4.112  19.137  0.00  0.00    +0.000 C 
BRANCH  23  24
ATOM     24  C   UNL     1       5.484   4.583  17.951  0.00  0.00    +0.000 A 
ATOM     25  C   UNL     1       6.517   5.516  18.131  0.00  0.00    +0.000 A 
ATOM     26  C   UNL     1       7.234   5.999  17.038  0.00  0.00    +0.000 A 
ATOM     27  C   UNL     1       6.931   5.549  15.753  0.00  0.00    +0.000 A 
ATOM     28  C   UNL     1       5.923   4.602  15.570  0.00  0.00    +0.000 A 
ATOM     29 CL   UNL     1       5.561   4.041  13.985  0.00  0.00    +0.000 Cl
ATOM     30  C   UNL     1       5.202   4.116  16.659  0.00  0.00    +0.000 A 
ENDBRANCH  23  24
ENDBRANCH  22  23
ENDBRANCH  20  22
ENDBRANCH  19  20
ENDBRANCH  18  19
ENDBRANCH  17  18
ENDBRANCH   1  17
TORSDOF 8
ENDMDL
MODEL 9
REMARK VINA RESULT:      -8.0      3.390      5.594
REMARK  Name = 
REMARK  9 active torsions:
REMARK  status: ('A' for Active; 'I' for Inactive)
REMARK    1  A    between atoms: C_1  and  N_2
REMARK    2  A    between atoms: N_2  and  C_3
REMARK    3  A    between atoms: N_2  and  C_23
REMARK    4  A    between atoms: C_3  and  C_4
REMARK    5  A    between atoms: C_4  and  C_5
REMARK    6  A    between atoms: C_5  and  C_6
REMARK    7  A    between atoms: C_6  and  C_7
REMARK    8  A    between atoms: N_9  and  C_10
REMARK    9  A    between atoms: C_23  and  C_24
REMARK                            x       y       z     vdW  Elec       q    Type
REMARK                         _______ _______ _______ _____ _____    ______ ____
ROOT
ATOM      1  C   UNL     1       2.354   6.960  19.339  0.00  0.00    +0.000 A 
ATOM      2  C   UNL     1       3.365   6.982  18.407  0.00  0.00    +0.000 A 
ATOM      3  N   UNL     1       3.881   5.718  18.254  0.00  0.00    +0.000 N 
ATOM      4  C   UNL     1       3.246   4.867  19.157  0.00  0.00    +0.000 A 
ATOM      5  C   UNL     1       3.473   3.513  19.486  0.00  0.00    +0.000 A 
ATOM      6  C   UNL     1       2.671   2.905  20.453  0.00  0.00    +0.000 A 
ATOM      7  C   UNL     1       1.676   3.624  21.098  0.00  0.00    +0.000 A 
ATOM      8  C   UNL     1       1.470   4.977  20.800  0.00  0.00    +0.000 A 
ATOM      9  C   UNL     1       2.274   5.620  19.829  0.00  0.00    +0.000 A 
ENDROOT
BRANCH   3  10
ATOM     10  C   UNL     1       4.877   5.395  17.296  0.00  0.00    +0.000 A 
ATOM     11  C   UNL     1       6.111   6.066  17.331  0.00  0.00    +0.000 A 
ATOM     12  C   UNL     1       7.081   5.782  16.372  0.00  0.00    +0.000 A 
ATOM     13  C   UNL     1       6.812   4.844  15.384  0.00  0.00    +0.000 A 
ATOM     14  F   UNL     1       7.743   4.582  14.458  0.00  0.00    +0.000 F 
ATOM     15  C   UNL     1       5.589   4.184  15.332  0.00  0.00    +0.000 A 
ATOM     16  C   UNL     1       4.616   4.459  16.286  0.00  0.00    +0.000 A 
ENDBRANCH   3  10
BRANCH   1  17
ATOM     17  C   UNL     1       1.529   8.142  19.712  0.00  0.00    +0.000 C 
BRANCH  17  18
ATOM     18  C   UNL     1       1.417   8.327  21.232  0.00  0.00    +0.000 C 
BRANCH  18  19
ATOM     19  C   UNL     1       0.057   8.880  21.667  0.00  0.00    +0.000 C 
BRANCH  19  20
ATOM     20  C   UNL     1      -0.566   9.757  20.574  0.00  0.00    +0.000 C 
BRANCH  20  22
ATOM     21  C   UNL     1       0.326  11.976  20.161  0.00  0.00    +0.000 C 
ATOM     22  N   UNL     1      -0.670  11.191  20.894  0.00  0.00    +0.000 NA
BRANCH  22  23
ATOM     23  C   UNL     1      -0.488  11.343  22.353  0.00  0.00    +0.000 C 
BRANCH  23  24
ATOM     24  C   UNL     1      -1.435  12.328  22.997  0.00  0.00    +0.000 A 
ATOM     25  C   UNL     1      -1.029  13.654  23.214  0.00  0.00    +0.000 A 
ATOM     26  C   UNL     1      -1.874  14.558  23.855  0.00  0.00    +0.000 A 
ATOM     27  C   UNL     1      -3.137  14.148  24.280  0.00  0.00    +0.000 A 
ATOM     28  C   UNL     1      -3.557  12.839  24.045  0.00  0.00    +0.000 A 
ATOM     29 CL   UNL     1      -5.121  12.340  24.561  0.00  0.00    +0.000 Cl
ATOM     30  C   UNL     1      -2.716  11.929  23.405  0.00  0.00    +0.000 A 
ENDBRANCH  23  24
ENDBRANCH  22  23
ENDBRANCH  20  22
ENDBRANCH  19  20
ENDBRANCH  18  19
ENDBRANCH  17  18
ENDBRANCH   1  17
TORSDOF 8
ENDMDL
