MODEL 1
REMARK VINA RESULT:      -7.7      0.000      0.000
REMARK  Name = 
REMARK  10 active torsions:
REMARK  status: ('A' for Active; 'I' for Inactive)
REMARK    1  A    between atoms: C_1  and  C_2
REMARK    2  A    between atoms: C_2  and  C_3
REMARK    3  A    between atoms: C_2  and  N_4
REMARK    4  A    between atoms: C_5  and  C_7
REMARK    5  A    between atoms: C_7  and  C_8
REMARK    6  A    between atoms: C_12  and  N_13
REMARK    7  A    between atoms: N_13  and  C_14
REMARK    8  A    between atoms: C_14  and  C_15
REMARK    9  A    between atoms: C_22  and  C_24
REMARK   10  A    between atoms: C_24  and  C_25
REMARK                            x       y       z     vdW  Elec       q    Type
REMARK                         _______ _______ _______ _____ _____    ______ ____
ROOT
ATOM      1  N   UNL     1      -0.292  11.335  19.151  0.00  0.00    +0.000 N 
ATOM      2  C   UNL     1       0.385  12.447  18.624  0.00  0.00    +0.000 C 
ATOM      3  O   UNL     1      -0.230  13.453  18.258  0.00  0.00    +0.000 OA
ENDROOT
BRANCH   1   8
ATOM      4  C   UNL     1       1.835   8.279  19.114  0.00  0.00    +0.000 A 
ATOM      5  C   UNL     1       1.803   7.928  20.472  0.00  0.00    +0.000 A 
ATOM      6  C   UNL     1       1.117   8.722  21.387  0.00  0.00    +0.000 A 
ATOM      7  C   UNL     1       0.434   9.859  20.952  0.00  0.00    +0.000 A 
ATOM      8  C   UNL     1       0.388  10.177  19.593  0.00  0.00    +0.000 A 
ATOM      9  C   UNL     1       1.073   9.375  18.668  0.00  0.00    +0.000 A 
BRANCH   4  10
ATOM     10  C   UNL     1       2.731   7.521  18.156  0.00  0.00    +0.000 C 
BRANCH  10  12
ATOM     11  N   UNL     1       2.055   5.147  18.338  0.00  0.00    +0.000 N 
ATOM     12  C   UNL     1       3.061   6.075  18.466  0.00  0.00    +0.000 C 
ATOM     13  O   UNL     1       4.198   5.767  18.827  0.00  0.00    +0.000 OA
ATOM     14  H   UNL     1       1.152   5.440  17.979  0.00  0.00    +0.000 HD
BRANCH  11  16
ATOM     15  C   UNL     1       1.090   3.100  19.244  0.00  0.00    +0.000 C 
ATOM     16  C   UNL     1       2.294   3.731  18.557  0.00  0.00    +0.000 C 
ATOM     17  C   UNL     1       2.620   3.024  17.242  0.00  0.00    +0.000 C 
ENDBRANCH  11  16
ENDBRANCH  10  12
ENDBRANCH   4  10
ENDBRANCH   1   8
BRANCH   1  18
ATOM     18  C   UNL     1      -1.758  11.443  19.237  0.00  0.00    +0.000 C 
BRANCH  18  19
ATOM     19  C   UNL     1      -2.526  10.940  18.040  0.00  0.00    +0.000 A 
ATOM     20  C   UNL     1      -1.950   9.997  17.175  0.00  0.00    +0.000 A 
ATOM     21  C   UNL     1      -2.540   9.731  15.942  0.00  0.00    +0.000 A 
ATOM     22  C   UNL     1      -3.726  10.371  15.599  0.00  0.00    +0.000 A 
ATOM     23  F   UNL     1      -4.246  10.185  14.375  0.00  0.00    +0.000 F 
ATOM     24  C   UNL     1      -4.364  11.225  16.488  0.00  0.00    +0.000 A 
ATOM     25  C   UNL     1      -3.772  11.503  17.719  0.00  0.00    +0.000 A 
ENDBRANCH  18  19
ENDBRANCH   1  18
BRANCH   2  26
ATOM     26  C   UNL     1       1.905  12.410  18.532  0.00  0.00    +0.000 C 
BRANCH  26  27
ATOM     27  C   UNL     1       2.536  13.385  19.481  0.00  0.00    +0.000 A 
ATOM     28  C   UNL     1       2.431  13.471  20.856  0.00  0.00    +0.000 A 
ATOM     29  C   UNL     1       3.204  14.540  21.396  0.00  0.00    +0.000 A 
ATOM     30  C   UNL     1       3.848  15.257  20.413  0.00  0.00    +0.000 A 
ATOM     31  S   UNL     1       3.519  14.645  18.853  0.00  0.00    +0.000 S 
ENDBRANCH  26  27
ENDBRANCH   2  26
TORSDOF 8
ENDMDL
MODEL 2
REMARK VINA RESULT:      -7.5      4.650      7.888
REMARK  Name = 
REMARK  10 active torsions:
REMARK  status: ('A' for Active; 'I' for Inactive)
REMARK    1  A    between atoms: C_1  and  C_2
REMARK    2  A    between atoms: C_2  and  C_3
REMARK    3  A    between atoms: C_2  and  N_4
REMARK    4  A    between atoms: C_5  and  C_7
REMARK    5  A    between atoms: C_7  and  C_8
REMARK    6  A    between atoms: C_12  and  N_13
REMARK    7  A    between atoms: N_13  and  C_14
REMARK    8  A    between atoms: C_14  and  C_15
REMARK    9  A    between atoms: C_22  and  C_24
REMARK   10  A    between atoms: C_24  and  C_25
REMARK                            x       y       z     vdW  Elec       q    Type
REMARK                         _______ _______ _______ _____ _____    ______ ____
ROOT
ATOM      1  N   UNL     1       2.944   5.641  17.649  0.00  0.00    +0.000 N 
ATOM      2  C   UNL     1       1.953   4.648  17.606  0.00  0.00    +0.000 C 
ATOM      3  O   UNL     1       0.778   4.930  17.352  0.00  0.00    +0.000 OA
ENDROOT
BRANCH   1   8
ATOM      4  C   UNL     1       6.473   4.560  17.156  0.00  0.00    +0.000 A 
ATOM      5  C   UNL     1       7.004   4.831  18.426  0.00  0.00    +0.000 A 
ATOM      6  C   UNL     1       6.206   5.402  19.415  0.00  0.00    +0.000 A 
ATOM      7  C   UNL     1       4.864   5.684  19.153  0.00  0.00    +0.000 A 
ATOM      8  C   UNL     1       4.300   5.345  17.921  0.00  0.00    +0.000 A 
ATOM      9  C   UNL     1       5.100   4.764  16.926  0.00  0.00    +0.000 A 
BRANCH   4  10
ATOM     10  C   UNL     1       7.386   4.114  16.033  0.00  0.00    +0.000 C 
BRANCH  10  12
ATOM     11  N   UNL     1       6.508   3.444  13.819  0.00  0.00    +0.000 N 
ATOM     12  C   UNL     1       7.000   4.456  14.608  0.00  0.00    +0.000 C 
ATOM     13  O   UNL     1       7.141   5.607  14.191  0.00  0.00    +0.000 OA
ATOM     14  H   UNL     1       6.353   2.528  14.226  0.00  0.00    +0.000 HD
BRANCH  11  16
ATOM     15  C   UNL     1       6.947   2.947  11.474  0.00  0.00    +0.000 C 
ATOM     16  C   UNL     1       6.057   3.692  12.459  0.00  0.00    +0.000 C 
ATOM     17  C   UNL     1       4.590   3.299  12.292  0.00  0.00    +0.000 C 
ENDBRANCH  11  16
ENDBRANCH  10  12
ENDBRANCH   4  10
ENDBRANCH   1   8
BRANCH   1  18
ATOM     18  C   UNL     1       2.501   7.019  17.378  0.00  0.00    +0.000 C 
BRANCH  18  19
ATOM     19  C   UNL     1       2.088   7.827  18.583  0.00  0.00    +0.000 A 
ATOM     20  C   UNL     1       2.013   7.224  19.848  0.00  0.00    +0.000 A 
ATOM     21  C   UNL     1       1.389   7.887  20.901  0.00  0.00    +0.000 A 
ATOM     22  C   UNL     1       0.884   9.167  20.700  0.00  0.00    +0.000 A 
ATOM     23  F   UNL     1       0.203   9.771  21.686  0.00  0.00    +0.000 F 
ATOM     24  C   UNL     1       1.046   9.819  19.486  0.00  0.00    +0.000 A 
ATOM     25  C   UNL     1       1.661   9.156  18.425  0.00  0.00    +0.000 A 
ENDBRANCH  18  19
ENDBRANCH   1  18
BRANCH   2  26
ATOM     26  C   UNL     1       2.350   3.198  17.852  0.00  0.00    +0.000 C 
BRANCH  26  27
ATOM     27  C   UNL     1       2.432   2.893  19.319  0.00  0.00    +0.000 A 
ATOM     28  C   UNL     1       3.477   2.368  20.054  0.00  0.00    +0.000 A 
ATOM     29  C   UNL     1       3.160   2.242  21.438  0.00  0.00    +0.000 A 
ATOM     30  C   UNL     1       1.872   2.643  21.710  0.00  0.00    +0.000 A 
ATOM     31  S   UNL     1       1.052   3.165  20.306  0.00  0.00    +0.000 S 
ENDBRANCH  26  27
ENDBRANCH   2  26
TORSDOF 8
ENDMDL
MODEL 3
REMARK VINA RESULT:      -7.5      3.668      8.012
REMARK  Name = 
REMARK  10 active torsions:
REMARK  status: ('A' for Active; 'I' for Inactive)
REMARK    1  A    between atoms: C_1  and  C_2
REMARK    2  A    between atoms: C_2  and  C_3
REMARK    3  A    between atoms: C_2  and  N_4
REMARK    4  A    between atoms: C_5  and  C_7
REMARK    5  A    between atoms: C_7  and  C_8
REMARK    6  A    between atoms: C_12  and  N_13
REMARK    7  A    between atoms: N_13  and  C_14
REMARK    8  A    between atoms: C_14  and  C_15
REMARK    9  A    between atoms: C_22  and  C_24
REMARK   10  A    between atoms: C_24  and  C_25
REMARK                            x       y       z     vdW  Elec       q    Type
REMARK                         _______ _______ _______ _____ _____    ______ ____
ROOT
ATOM      1  N   UNL     1       2.895   5.603  17.662  0.00  0.00    +0.000 N 
ATOM      2  C   UNL     1       4.093   5.637  16.932  0.00  0.00    +0.000 C 
ATOM      3  O   UNL     1       4.435   4.686  16.221  0.00  0.00    +0.000 OA
ENDROOT
BRANCH   1   8
ATOM      4  C   UNL     1       1.626   8.957  18.664  0.00  0.00    +0.000 A 
ATOM      5  C   UNL     1       1.556   8.799  20.056  0.00  0.00    +0.000 A 
ATOM      6  C   UNL     1       1.888   7.580  20.643  0.00  0.00    +0.000 A 
ATOM      7  C   UNL     1       2.318   6.516  19.848  0.00  0.00    +0.000 A 
ATOM      8  C   UNL     1       2.472   6.683  18.470  0.00  0.00    +0.000 A 
ATOM      9  C   UNL     1       2.144   7.911  17.878  0.00  0.00    +0.000 A 
BRANCH   4  10
ATOM     10  C   UNL     1       1.091  10.217  18.017  0.00  0.00    +0.000 C 
BRANCH  10  12
ATOM     11  N   UNL     1      -1.199  10.409  17.097  0.00  0.00    +0.000 N 
ATOM     12  C   UNL     1      -0.378  10.552  18.191  0.00  0.00    +0.000 C 
ATOM     13  O   UNL     1      -0.795  10.945  19.280  0.00  0.00    +0.000 OA
ATOM     14  H   UNL     1      -0.820  10.023  16.239  0.00  0.00    +0.000 HD
BRANCH  11  16
ATOM     15  C   UNL     1      -3.181  11.011  15.814  0.00  0.00    +0.000 C 
ATOM     16  C   UNL     1      -2.630  10.649  17.186  0.00  0.00    +0.000 C 
ATOM     17  C   UNL     1      -3.350   9.437  17.775  0.00  0.00    +0.000 C 
ENDBRANCH  11  16
ENDBRANCH  10  12
ENDBRANCH   4  10
ENDBRANCH   1   8
BRANCH   1  18
ATOM     18  C   UNL     1       2.084   4.381  17.530  0.00  0.00    +0.000 C 
BRANCH  18  19
ATOM     19  C   UNL     1       1.971   3.528  18.768  0.00  0.00    +0.000 A 
ATOM     20  C   UNL     1       0.725   3.338  19.385  0.00  0.00    +0.000 A 
ATOM     21  C   UNL     1       0.656   2.778  20.659  0.00  0.00    +0.000 A 
ATOM     22  C   UNL     1       1.825   2.368  21.290  0.00  0.00    +0.000 A 
ATOM     23  F   UNL     1       1.769   1.913  22.552  0.00  0.00    +0.000 F 
ATOM     24  C   UNL     1       3.053   2.451  20.649  0.00  0.00    +0.000 A 
ATOM     25  C   UNL     1       3.130   3.020  19.379  0.00  0.00    +0.000 A 
ENDBRANCH  18  19
ENDBRANCH   1  18
BRANCH   2  26
ATOM     26  C   UNL     1       4.967   6.883  17.005  0.00  0.00    +0.000 C 
BRANCH  26  27
ATOM     27  C   UNL     1       6.185   6.650  17.849  0.00  0.00    +0.000 A 
ATOM     28  C   UNL     1       6.417   5.693  18.818  0.00  0.00    +0.000 A 
ATOM     29  C   UNL     1       7.720   5.798  19.387  0.00  0.00    +0.000 A 
ATOM     30  C   UNL     1       8.429   6.852  18.858  0.00  0.00    +0.000 A 
ATOM     31  S   UNL     1       7.528   7.708  17.687  0.00  0.00    +0.000 S 
ENDBRANCH  26  27
ENDBRANCH   2  26
TORSDOF 8
ENDMDL
MODEL 4
REMARK VINA RESULT:      -7.5      4.300      9.157
REMARK  Name = 
REMARK  10 active torsions:
REMARK  status: ('A' for Active; 'I' for Inactive)
REMARK    1  A    between atoms: C_1  and  C_2
REMARK    2  A    between atoms: C_2  and  C_3
REMARK    3  A    between atoms: C_2  and  N_4
REMARK    4  A    between atoms: C_5  and  C_7
REMARK    5  A    between atoms: C_7  and  C_8
REMARK    6  A    between atoms: C_12  and  N_13
REMARK    7  A    between atoms: N_13  and  C_14
REMARK    8  A    between atoms: C_14  and  C_15
REMARK    9  A    between atoms: C_22  and  C_24
REMARK   10  A    between atoms: C_24  and  C_25
REMARK                            x       y       z     vdW  Elec       q    Type
REMARK                         _______ _______ _______ _____ _____    ______ ____
ROOT
ATOM      1  N   UNL     1       3.364   5.256  17.527  0.00  0.00    +0.000 N 
ATOM      2  C   UNL     1       2.721   4.014  17.405  0.00  0.00    +0.000 C 
ATOM      3  O   UNL     1       3.208   3.108  16.722  0.00  0.00    +0.000 OA
ENDROOT
BRANCH   1   8
ATOM      4  C   UNL     1       1.779   8.492  18.465  0.00  0.00    +0.000 A 
ATOM      5  C   UNL     1       1.720   8.354  19.860  0.00  0.00    +0.000 A 
ATOM      6  C   UNL     1       2.165   7.183  20.470  0.00  0.00    +0.000 A 
ATOM      7  C   UNL     1       2.698   6.151  19.696  0.00  0.00    +0.000 A 
ATOM      8  C   UNL     1       2.838   6.306  18.315  0.00  0.00    +0.000 A 
ATOM      9  C   UNL     1       2.396   7.486  17.699  0.00  0.00    +0.000 A 
BRANCH   4  10
ATOM     10  C   UNL     1       1.127   9.683  17.793  0.00  0.00    +0.000 C 
BRANCH  10  12
ATOM     11  N   UNL     1       0.328  11.554  19.202  0.00  0.00    +0.000 N 
ATOM     12  C   UNL     1       0.009  10.402  18.523  0.00  0.00    +0.000 C 
ATOM     13  O   UNL     1      -1.134   9.946  18.501  0.00  0.00    +0.000 OA
ATOM     14  H   UNL     1       1.271  11.923  19.139  0.00  0.00    +0.000 HD
BRANCH  11  16
ATOM     15  C   UNL     1      -0.696  12.010  21.365  0.00  0.00    +0.000 C 
ATOM     16  C   UNL     1      -0.688  12.342  19.880  0.00  0.00    +0.000 C 
ATOM     17  C   UNL     1      -0.466  13.836  19.643  0.00  0.00    +0.000 C 
ENDBRANCH  11  16
ENDBRANCH  10  12
ENDBRANCH   4  10
ENDBRANCH   1   8
BRANCH   1  18
ATOM     18  C   UNL     1       4.635   5.408  16.799  0.00  0.00    +0.000 C 
BRANCH  18  19
ATOM     19  C   UNL     1       5.730   6.141  17.530  0.00  0.00    +0.000 A 
ATOM     20  C   UNL     1       6.144   7.410  17.098  0.00  0.00    +0.000 A 
ATOM     21  C   UNL     1       7.316   7.971  17.599  0.00  0.00    +0.000 A 
ATOM     22  C   UNL     1       8.044   7.283  18.564  0.00  0.00    +0.000 A 
ATOM     23  F   UNL     1       9.220   7.779  18.981  0.00  0.00    +0.000 F 
ATOM     24  C   UNL     1       7.592   6.077  19.080  0.00  0.00    +0.000 A 
ATOM     25  C   UNL     1       6.425   5.506  18.574  0.00  0.00    +0.000 A 
ENDBRANCH  18  19
ENDBRANCH   1  18
BRANCH   2  26
ATOM     26  C   UNL     1       1.414   3.783  18.155  0.00  0.00    +0.000 C 
BRANCH  26  27
ATOM     27  C   UNL     1       1.661   3.268  19.542  0.00  0.00    +0.000 A 
ATOM     28  C   UNL     1       0.823   3.256  20.640  0.00  0.00    +0.000 A 
ATOM     29  C   UNL     1       1.432   2.661  21.783  0.00  0.00    +0.000 A 
ATOM     30  C   UNL     1       2.726   2.268  21.531  0.00  0.00    +0.000 A 
ATOM     31  S   UNL     1       3.203   2.617  19.929  0.00  0.00    +0.000 S 
ENDBRANCH  26  27
ENDBRANCH   2  26
TORSDOF 8
ENDMDL
MODEL 5
REMARK VINA RESULT:      -7.4      3.662      8.258
REMARK  Name = 
REMARK  10 active torsions:
REMARK  status: ('A' for Active; 'I' for Inactive)
REMARK    1  A    between atoms: C_1  and  C_2
REMARK    2  A    between atoms: C_2  and  C_3
REMARK    3  A    between atoms: C_2  and  N_4
REMARK    4  A    between atoms: C_5  and  C_7
REMARK    5  A    between atoms: C_7  and  C_8
REMARK    6  A    between atoms: C_12  and  N_13
REMARK    7  A    between atoms: N_13  and  C_14
REMARK    8  A    between atoms: C_14  and  C_15
REMARK    9  A    between atoms: C_22  and  C_24
REMARK   10  A    between atoms: C_24  and  C_25
REMARK                            x       y       z     vdW  Elec       q    Type
REMARK                         _______ _______ _______ _____ _____    ______ ____
ROOT
ATOM      1  N   UNL     1       3.521   5.001  17.282  0.00  0.00    +0.000 N 
ATOM      2  C   UNL     1       4.668   5.146  16.484  0.00  0.00    +0.000 C 
ATOM      3  O   UNL     1       5.081   4.215  15.786  0.00  0.00    +0.000 OA
ENDROOT
BRANCH   1   8
ATOM      4  C   UNL     1       1.810   8.160  18.258  0.00  0.00    +0.000 A 
ATOM      5  C   UNL     1       1.944   8.103  19.653  0.00  0.00    +0.000 A 
ATOM      6  C   UNL     1       2.559   7.009  20.257  0.00  0.00    +0.000 A 
ATOM      7  C   UNL     1       3.070   5.974  19.472  0.00  0.00    +0.000 A 
ATOM      8  C   UNL     1       3.017   6.054  18.079  0.00  0.00    +0.000 A 
ATOM      9  C   UNL     1       2.403   7.158  17.468  0.00  0.00    +0.000 A 
BRANCH   4  10
ATOM     10  C   UNL     1       0.981   9.256  17.621  0.00  0.00    +0.000 C 
BRANCH  10  12
ATOM     11  N   UNL     1       1.338  11.530  18.528  0.00  0.00    +0.000 N 
ATOM     12  C   UNL     1       0.531  10.418  18.484  0.00  0.00    +0.000 C 
ATOM     13  O   UNL     1      -0.520  10.341  19.121  0.00  0.00    +0.000 OA
ATOM     14  H   UNL     1       2.162  11.570  17.938  0.00  0.00    +0.000 HD
BRANCH  11  16
ATOM     15  C   UNL     1       1.526  12.636  20.692  0.00  0.00    +0.000 C 
ATOM     16  C   UNL     1       0.958  12.714  19.282  0.00  0.00    +0.000 C 
ATOM     17  C   UNL     1       1.415  13.985  18.566  0.00  0.00    +0.000 C 
ENDBRANCH  11  16
ENDBRANCH  10  12
ENDBRANCH   4  10
ENDBRANCH   1   8
BRANCH   1  18
ATOM     18  C   UNL     1       2.854   3.689  17.234  0.00  0.00    +0.000 C 
BRANCH  18  19
ATOM     19  C   UNL     1       2.371   3.147  18.556  0.00  0.00    +0.000 A 
ATOM     20  C   UNL     1       1.010   3.205  18.889  0.00  0.00    +0.000 A 
ATOM     21  C   UNL     1       0.600   2.952  20.196  0.00  0.00    +0.000 A 
ATOM     22  C   UNL     1       1.545   2.597  21.153  0.00  0.00    +0.000 A 
ATOM     23  F   UNL     1       1.165   2.443  22.431  0.00  0.00    +0.000 F 
ATOM     24  C   UNL     1       2.881   2.432  20.814  0.00  0.00    +0.000 A 
ATOM     25  C   UNL     1       3.298   2.694  19.511  0.00  0.00    +0.000 A 
ENDBRANCH  18  19
ENDBRANCH   1  18
BRANCH   2  26
ATOM     26  C   UNL     1       5.391   6.487  16.468  0.00  0.00    +0.000 C 
BRANCH  26  27
ATOM     27  C   UNL     1       6.487   6.531  17.491  0.00  0.00    +0.000 A 
ATOM     28  C   UNL     1       6.808   5.620  18.480  0.00  0.00    +0.000 A 
ATOM     29  C   UNL     1       7.941   6.024  19.245  0.00  0.00    +0.000 A 
ATOM     30  C   UNL     1       8.428   7.245  18.839  0.00  0.00    +0.000 A 
ATOM     31  S   UNL     1       7.524   7.899  17.546  0.00  0.00    +0.000 S 
ENDBRANCH  26  27
ENDBRANCH   2  26
TORSDOF 8
ENDMDL
MODEL 6
REMARK VINA RESULT:      -7.4      1.125      1.339
REMARK  Name = 
REMARK  10 active torsions:
REMARK  status: ('A' for Active; 'I' for Inactive)
REMARK    1  A    between atoms: C_1  and  C_2
REMARK    2  A    between atoms: C_2  and  C_3
REMARK    3  A    between atoms: C_2  and  N_4
REMARK    4  A    between atoms: C_5  and  C_7
REMARK    5  A    between atoms: C_7  and  C_8
REMARK    6  A    between atoms: C_12  and  N_13
REMARK    7  A    between atoms: N_13  and  C_14
REMARK    8  A    between atoms: C_14  and  C_15
REMARK    9  A    between atoms: C_22  and  C_24
REMARK   10  A    between atoms: C_24  and  C_25
REMARK                            x       y       z     vdW  Elec       q    Type
REMARK                         _______ _______ _______ _____ _____    ______ ____
ROOT
ATOM      1  N   UNL     1      -0.251  11.319  19.115  0.00  0.00    +0.000 N 
ATOM      2  C   UNL     1       0.425  12.460  18.656  0.00  0.00    +0.000 C 
ATOM      3  O   UNL     1      -0.190  13.483  18.341  0.00  0.00    +0.000 OA
ENDROOT
BRANCH   1   8
ATOM      4  C   UNL     1       1.970   8.335  18.958  0.00  0.00    +0.000 A 
ATOM      5  C   UNL     1       1.844   7.852  20.269  0.00  0.00    +0.000 A 
ATOM      6  C   UNL     1       1.063   8.536  21.198  0.00  0.00    +0.000 A 
ATOM      7  C   UNL     1       0.379   9.693  20.819  0.00  0.00    +0.000 A 
ATOM      8  C   UNL     1       0.429  10.140  19.498  0.00  0.00    +0.000 A 
ATOM      9  C   UNL     1       1.210   9.450  18.559  0.00  0.00    +0.000 A 
BRANCH   4  10
ATOM     10  C   UNL     1       2.962   7.696  18.008  0.00  0.00    +0.000 C 
BRANCH  10  12
ATOM     11  N   UNL     1       4.222   5.581  17.758  0.00  0.00    +0.000 N 
ATOM     12  C   UNL     1       2.995   6.184  17.906  0.00  0.00    +0.000 C 
ATOM     13  O   UNL     1       1.946   5.540  17.948  0.00  0.00    +0.000 OA
ATOM     14  H   UNL     1       5.062   6.149  17.791  0.00  0.00    +0.000 HD
BRANCH  11  16
ATOM     15  C   UNL     1       5.276   3.735  16.567  0.00  0.00    +0.000 C 
ATOM     16  C   UNL     1       4.356   4.134  17.712  0.00  0.00    +0.000 C 
ATOM     17  C   UNL     1       4.861   3.591  19.048  0.00  0.00    +0.000 C 
ENDBRANCH  11  16
ENDBRANCH  10  12
ENDBRANCH   4  10
ENDBRANCH   1   8
BRANCH   1  18
ATOM     18  C   UNL     1      -1.718  11.417  19.193  0.00  0.00    +0.000 C 
BRANCH  18  19
ATOM     19  C   UNL     1      -2.476  10.947  17.977  0.00  0.00    +0.000 A 
ATOM     20  C   UNL     1      -1.912   9.993  17.116  0.00  0.00    +0.000 A 
ATOM     21  C   UNL     1      -2.483   9.755  15.869  0.00  0.00    +0.000 A 
ATOM     22  C   UNL     1      -3.640  10.434  15.506  0.00  0.00    +0.000 A 
ATOM     23  F   UNL     1      -4.140  10.274  14.271  0.00  0.00    +0.000 F 
ATOM     24  C   UNL     1      -4.270  11.301  16.388  0.00  0.00    +0.000 A 
ATOM     25  C   UNL     1      -3.697  11.552  17.634  0.00  0.00    +0.000 A 
ENDBRANCH  18  19
ENDBRANCH   1  18
BRANCH   2  26
ATOM     26  C   UNL     1       1.947  12.434  18.574  0.00  0.00    +0.000 C 
BRANCH  26  27
ATOM     27  C   UNL     1       2.552  13.645  19.221  0.00  0.00    +0.000 A 
ATOM     28  C   UNL     1       2.659  13.969  20.560  0.00  0.00    +0.000 A 
ATOM     29  C   UNL     1       3.319  15.215  20.767  0.00  0.00    +0.000 A 
ATOM     30  C   UNL     1       3.666  15.818  19.580  0.00  0.00    +0.000 A 
ATOM     31  S   UNL     1       3.195  14.888  18.227  0.00  0.00    +0.000 S 
ENDBRANCH  26  27
ENDBRANCH   2  26
TORSDOF 8
ENDMDL
MODEL 7
REMARK VINA RESULT:      -7.3      6.605      9.911
REMARK  Name = 
REMARK  10 active torsions:
REMARK  status: ('A' for Active; 'I' for Inactive)
REMARK    1  A    between atoms: C_1  and  C_2
REMARK    2  A    between atoms: C_2  and  C_3
REMARK    3  A    between atoms: C_2  and  N_4
REMARK    4  A    between atoms: C_5  and  C_7
REMARK    5  A    between atoms: C_7  and  C_8
REMARK    6  A    between atoms: C_12  and  N_13
REMARK    7  A    between atoms: N_13  and  C_14
REMARK    8  A    between atoms: C_14  and  C_15
REMARK    9  A    between atoms: C_22  and  C_24
REMARK   10  A    between atoms: C_24  and  C_25
REMARK                            x       y       z     vdW  Elec       q    Type
REMARK                         _______ _______ _______ _____ _____    ______ ____
ROOT
ATOM      1  N   UNL     1       5.066   5.387  17.045  0.00  0.00    +0.000 N 
ATOM      2  C   UNL     1       5.157   4.352  16.101  0.00  0.00    +0.000 C 
ATOM      3  O   UNL     1       4.143   3.858  15.597  0.00  0.00    +0.000 OA
ENDROOT
BRANCH   1   8
ATOM      4  C   UNL     1       7.681   7.905  17.874  0.00  0.00    +0.000 A 
ATOM      5  C   UNL     1       8.424   7.197  18.830  0.00  0.00    +0.000 A 
ATOM      6  C   UNL     1       8.033   5.918  19.219  0.00  0.00    +0.000 A 
ATOM      7  C   UNL     1       6.912   5.323  18.637  0.00  0.00    +0.000 A 
ATOM      8  C   UNL     1       6.210   5.982  17.626  0.00  0.00    +0.000 A 
ATOM      9  C   UNL     1       6.605   7.268  17.228  0.00  0.00    +0.000 A 
BRANCH   4  10
ATOM     10  C   UNL     1       7.999   9.359  17.591  0.00  0.00    +0.000 C 
BRANCH  10  12
ATOM     11  N   UNL     1       9.841  10.977  17.931  0.00  0.00    +0.000 N 
ATOM     12  C   UNL     1       8.974  10.077  18.504  0.00  0.00    +0.000 C 
ATOM     13  O   UNL     1       8.975   9.839  19.712  0.00  0.00    +0.000 OA
ATOM     14  H   UNL     1       9.759  11.184  16.941  0.00  0.00    +0.000 HD
BRANCH  11  16
ATOM     15  C   UNL     1      11.911  12.261  17.865  0.00  0.00    +0.000 C 
ATOM     16  C   UNL     1      10.769  11.755  18.735  0.00  0.00    +0.000 C 
ATOM     17  C   UNL     1      10.049  12.906  19.436  0.00  0.00    +0.000 C 
ENDBRANCH  11  16
ENDBRANCH  10  12
ENDBRANCH   4  10
ENDBRANCH   1   8
BRANCH   1  18
ATOM     18  C   UNL     1       3.708   5.838  17.392  0.00  0.00    +0.000 C 
BRANCH  18  19
ATOM     19  C   UNL     1       3.075   5.164  18.582  0.00  0.00    +0.000 A 
ATOM     20  C   UNL     1       2.265   5.897  19.463  0.00  0.00    +0.000 A 
ATOM     21  C   UNL     1       1.898   5.352  20.691  0.00  0.00    +0.000 A 
ATOM     22  C   UNL     1       2.299   4.060  21.013  0.00  0.00    +0.000 A 
ATOM     23  F   UNL     1       2.024   3.567  22.231  0.00  0.00    +0.000 F 
ATOM     24  C   UNL     1       3.009   3.283  20.108  0.00  0.00    +0.000 A 
ATOM     25  C   UNL     1       3.389   3.827  18.883  0.00  0.00    +0.000 A 
ENDBRANCH  18  19
ENDBRANCH   1  18
BRANCH   2  26
ATOM     26  C   UNL     1       6.534   3.855  15.679  0.00  0.00    +0.000 C 
BRANCH  26  27
ATOM     27  C   UNL     1       6.876   4.302  14.288  0.00  0.00    +0.000 A 
ATOM     28  C   UNL     1       7.665   5.355  13.869  0.00  0.00    +0.000 A 
ATOM     29  C   UNL     1       7.753   5.438  12.448  0.00  0.00    +0.000 A 
ATOM     30  C   UNL     1       7.002   4.466  11.828  0.00  0.00    +0.000 A 
ATOM     31  S   UNL     1       6.196   3.464  12.952  0.00  0.00    +0.000 S 
ENDBRANCH  26  27
ENDBRANCH   2  26
TORSDOF 8
ENDMDL
MODEL 8
REMARK VINA RESULT:      -7.3      0.927      1.440
REMARK  Name = 
REMARK  10 active torsions:
REMARK  status: ('A' for Active; 'I' for Inactive)
REMARK    1  A    between atoms: C_1  and  C_2
REMARK    2  A    between atoms: C_2  and  C_3
REMARK    3  A    between atoms: C_2  and  N_4
REMARK    4  A    between atoms: C_5  and  C_7
REMARK    5  A    between atoms: C_7  and  C_8
REMARK    6  A    between atoms: C_12  and  N_13
REMARK    7  A    between atoms: N_13  and  C_14
REMARK    8  A    between atoms: C_14  and  C_15
REMARK    9  A    between atoms: C_22  and  C_24
REMARK   10  A    between atoms: C_24  and  C_25
REMARK                            x       y       z     vdW  Elec       q    Type
REMARK                         _______ _______ _______ _____ _____    ______ ____
ROOT
ATOM      1  N   UNL     1      -0.403  11.257  19.372  0.00  0.00    +0.000 N 
ATOM      2  C   UNL     1       0.300  12.368  18.879  0.00  0.00    +0.000 C 
ATOM      3  O   UNL     1      -0.295  13.329  18.381  0.00  0.00    +0.000 OA
ENDROOT
BRANCH   1   8
ATOM      4  C   UNL     1       1.657   8.177  19.736  0.00  0.00    +0.000 A 
ATOM      5  C   UNL     1       1.616   8.004  21.128  0.00  0.00    +0.000 A 
ATOM      6  C   UNL     1       0.945   8.924  21.931  0.00  0.00    +0.000 A 
ATOM      7  C   UNL     1       0.288  10.009  21.350  0.00  0.00    +0.000 A 
ATOM      8  C   UNL     1       0.251  10.151  19.961  0.00  0.00    +0.000 A 
ATOM      9  C   UNL     1       0.920   9.223  19.150  0.00  0.00    +0.000 A 
BRANCH   4  10
ATOM     10  C   UNL     1       2.538   7.283  18.888  0.00  0.00    +0.000 C 
BRANCH  10  12
ATOM     11  N   UNL     1       1.738   4.965  19.219  0.00  0.00    +0.000 N 
ATOM     12  C   UNL     1       2.776   5.858  19.345  0.00  0.00    +0.000 C 
ATOM     13  O   UNL     1       3.867   5.537  19.818  0.00  0.00    +0.000 OA
ATOM     14  H   UNL     1       0.880   5.261  18.766  0.00  0.00    +0.000 HD
BRANCH  11  16
ATOM     15  C   UNL     1       1.606   3.372  21.058  0.00  0.00    +0.000 C 
ATOM     16  C   UNL     1       1.894   3.564  19.575  0.00  0.00    +0.000 C 
ATOM     17  C   UNL     1       0.994   2.680  18.713  0.00  0.00    +0.000 C 
ENDBRANCH  11  16
ENDBRANCH  10  12
ENDBRANCH   4  10
ENDBRANCH   1   8
BRANCH   1  18
ATOM     18  C   UNL     1      -1.870  11.308  19.257  0.00  0.00    +0.000 C 
BRANCH  18  19
ATOM     19  C   UNL     1      -2.431  11.080  17.876  0.00  0.00    +0.000 A 
ATOM     20  C   UNL     1      -3.628  11.700  17.487  0.00  0.00    +0.000 A 
ATOM     21  C   UNL     1      -4.280  11.292  16.326  0.00  0.00    +0.000 A 
ATOM     22  C   UNL     1      -3.710  10.300  15.535  0.00  0.00    +0.000 A 
ATOM     23  F   UNL     1      -4.381   9.842  14.466  0.00  0.00    +0.000 F 
ATOM     24  C   UNL     1      -2.474   9.753  15.849  0.00  0.00    +0.000 A 
ATOM     25  C   UNL     1      -1.823  10.150  17.015  0.00  0.00    +0.000 A 
ENDBRANCH  18  19
ENDBRANCH   1  18
BRANCH   2  26
ATOM     26  C   UNL     1       1.820  12.390  18.990  0.00  0.00    +0.000 C 
BRANCH  26  27
ATOM     27  C   UNL     1       2.332  13.778  19.235  0.00  0.00    +0.000 A 
ATOM     28  C   UNL     1       2.920  14.669  18.358  0.00  0.00    +0.000 A 
ATOM     29  C   UNL     1       3.258  15.905  18.983  0.00  0.00    +0.000 A 
ATOM     30  C   UNL     1       2.948  15.907  20.323  0.00  0.00    +0.000 A 
ATOM     31  S   UNL     1       2.256  14.427  20.824  0.00  0.00    +0.000 S 
ENDBRANCH  26  27
ENDBRANCH   2  26
TORSDOF 8
ENDMDL
MODEL 9
REMARK VINA RESULT:      -7.3      3.821      8.224
REMARK  Name = 
REMARK  10 active torsions:
REMARK  status: ('A' for Active; 'I' for Inactive)
REMARK    1  A    between atoms: C_1  and  C_2
REMARK    2  A    between atoms: C_2  and  C_3
REMARK    3  A    between atoms: C_2  and  N_4
REMARK    4  A    between atoms: C_5  and  C_7
REMARK    5  A    between atoms: C_7  and  C_8
REMARK    6  A    between atoms: C_12  and  N_13
REMARK    7  A    between atoms: N_13  and  C_14
REMARK    8  A    between atoms: C_14  and  C_15
REMARK    9  A    between atoms: C_22  and  C_24
REMARK   10  A    between atoms: C_24  and  C_25
REMARK                            x       y       z     vdW  Elec       q    Type
REMARK                         _______ _______ _______ _____ _____    ______ ____
ROOT
ATOM      1  N   UNL     1       3.347   5.151  17.390  0.00  0.00    +0.000 N 
ATOM      2  C   UNL     1       4.500   5.285  16.600  0.00  0.00    +0.000 C 
ATOM      3  O   UNL     1       4.897   4.357  15.888  0.00  0.00    +0.000 OA
ENDROOT
BRANCH   1   8
ATOM      4  C   UNL     1       1.815   8.390  18.401  0.00  0.00    +0.000 A 
ATOM      5  C   UNL     1       1.820   8.252  19.797  0.00  0.00    +0.000 A 
ATOM      6  C   UNL     1       2.291   7.080  20.385  0.00  0.00    +0.000 A 
ATOM      7  C   UNL     1       2.784   6.046  19.587  0.00  0.00    +0.000 A 
ATOM      8  C   UNL     1       2.860   6.201  18.201  0.00  0.00    +0.000 A 
ATOM      9  C   UNL     1       2.393   7.382  17.606  0.00  0.00    +0.000 A 
BRANCH   4  10
ATOM     10  C   UNL     1       1.135   9.582  17.760  0.00  0.00    +0.000 C 
BRANCH  10  12
ATOM     11  N   UNL     1      -0.070  11.228  19.162  0.00  0.00    +0.000 N 
ATOM     12  C   UNL     1       1.100  10.891  18.524  0.00  0.00    +0.000 C 
ATOM     13  O   UNL     1       2.096  11.615  18.551  0.00  0.00    +0.000 OA
ATOM     14  H   UNL     1      -0.842  10.570  19.162  0.00  0.00    +0.000 HD
BRANCH  11  16
ATOM     15  C   UNL     1      -0.613  13.603  19.094  0.00  0.00    +0.000 C 
ATOM     16  C   UNL     1      -0.177  12.434  19.966  0.00  0.00    +0.000 C 
ATOM     17  C   UNL     1      -1.136  12.224  21.138  0.00  0.00    +0.000 C 
ENDBRANCH  11  16
ENDBRANCH  10  12
ENDBRANCH   4  10
ENDBRANCH   1   8
BRANCH   1  18
ATOM     18  C   UNL     1       2.654   3.854  17.318  0.00  0.00    +0.000 C 
BRANCH  18  19
ATOM     19  C   UNL     1       2.266   3.240  18.640  0.00  0.00    +0.000 A 
ATOM     20  C   UNL     1       0.919   3.194  19.031  0.00  0.00    +0.000 A 
ATOM     21  C   UNL     1       0.585   2.874  20.344  0.00  0.00    +0.000 A 
ATOM     22  C   UNL     1       1.592   2.555  21.248  0.00  0.00    +0.000 A 
ATOM     23  F   UNL     1       1.280   2.335  22.535  0.00  0.00    +0.000 F 
ATOM     24  C   UNL     1       2.920   2.492  20.850  0.00  0.00    +0.000 A 
ATOM     25  C   UNL     1       3.262   2.822  19.539  0.00  0.00    +0.000 A 
ENDBRANCH  18  19
ENDBRANCH   1  18
BRANCH   2  26
ATOM     26  C   UNL     1       5.251   6.611  16.609  0.00  0.00    +0.000 C 
BRANCH  26  27
ATOM     27  C   UNL     1       6.391   6.589  17.583  0.00  0.00    +0.000 A 
ATOM     28  C   UNL     1       6.692   5.668  18.569  0.00  0.00    +0.000 A 
ATOM     29  C   UNL     1       7.882   6.000  19.279  0.00  0.00    +0.000 A 
ATOM     30  C   UNL     1       8.434   7.180  18.836  0.00  0.00    +0.000 A 
ATOM     31  S   UNL     1       7.522   7.882  17.575  0.00  0.00    +0.000 S 
ENDBRANCH  26  27
ENDBRANCH   2  26
TORSDOF 8
ENDMDL
