MODEL 1
REMARK VINA RESULT:      -7.9      0.000      0.000
REMARK  Name = 
REMARK  6 active torsions:
REMARK  status: ('A' for Active; 'I' for Inactive)
REMARK    1  A    between atoms: C_2  and  O_3
REMARK    2  A    between atoms: C_2  and  C_4
REMARK    3  A    between atoms: C_10  and  C_11
REMARK    4  A    between atoms: N_16  and  C_17
REMARK    5  A    between atoms: C_17  and  C_18
REMARK    6  A    between atoms: C_18  and  O_19
REMARK                            x       y       z     vdW  Elec       q    Type
REMARK                         _______ _______ _______ _____ _____    ______ ____
ROOT
ATOM      1  C   UNL     1       3.363   5.429  19.299  0.00  0.00    +0.000 C 
ATOM      2  O   UNL     1       2.957   6.509  19.740  0.00  0.00    +0.000 OA
ATOM      3  N   UNL     1       3.803   5.329  17.993  0.00  0.00    +0.000 N 
ATOM      4  C   UNL     1       4.015   6.547  17.195  0.00  0.00    +0.000 C 
ATOM      5  C   UNL     1       5.518   6.736  16.866  0.00  0.00    +0.000 C 
ATOM      6  N   UNL     1       6.222   5.544  16.320  0.00  0.00    +0.000 NA
ATOM      7  C   UNL     1       5.892   4.358  17.160  0.00  0.00    +0.000 C 
ATOM      8  C   UNL     1       4.376   4.143  17.366  0.00  0.00    +0.000 C 
ENDROOT
BRANCH   1  15
ATOM      9  C   UNL     1       3.109   2.877  19.298  0.00  0.00    +0.000 C 
ATOM     10  C   UNL     1       1.794   2.293  19.868  0.00  0.00    +0.000 C 
ATOM     11  C   UNL     1       0.662   3.277  19.653  0.00  0.00    +0.000 C 
ATOM     12  C   UNL     1       0.857   4.313  20.476  0.00  0.00    +0.000 C 
ATOM     13  C   UNL     1       2.153   4.052  21.197  0.00  0.00    +0.000 C 
ATOM     14  C   UNL     1       1.991   2.535  21.364  0.00  0.00    +0.000 C 
ATOM     15  C   UNL     1       3.330   4.166  20.178  0.00  0.00    +0.000 C 
BRANCH   9  17
ATOM     16  O   UNL     1       5.124   1.978  20.327  0.00  0.00    +0.000 OA
ATOM     17  C   UNL     1       4.252   1.897  19.473  0.00  0.00    +0.000 C 
BRANCH  17  18
ATOM     18  O   UNL     1       4.215   0.861  18.611  0.00  0.00    +0.000 OA
ATOM     19  H   UNL     1       4.701   0.072  18.913  0.00  0.00    +0.000 HD
ENDBRANCH  17  18
ENDBRANCH   9  17
ENDBRANCH   1  15
BRANCH   6  20
ATOM     20  C   UNL     1       5.908   5.254  14.904  0.00  0.00    +0.000 C 
BRANCH  20  21
ATOM     21  C   UNL     1       7.079   4.679  14.093  0.00  0.00    +0.000 C 
BRANCH  21  22
ATOM     22  O   UNL     1       8.083   5.665  13.875  0.00  0.00    +0.000 OA
ATOM     23  H   UNL     1       8.439   5.876  14.759  0.00  0.00    +0.000 HD
ENDBRANCH  21  22
ENDBRANCH  20  21
ENDBRANCH   6  20
TORSDOF 6
ENDMDL
MODEL 2
REMARK VINA RESULT:      -7.9      2.028      2.898
REMARK  Name = 
REMARK  6 active torsions:
REMARK  status: ('A' for Active; 'I' for Inactive)
REMARK    1  A    between atoms: C_2  and  O_3
REMARK    2  A    between atoms: C_2  and  C_4
REMARK    3  A    between atoms: C_10  and  C_11
REMARK    4  A    between atoms: N_16  and  C_17
REMARK    5  A    between atoms: C_17  and  C_18
REMARK    6  A    between atoms: C_18  and  O_19
REMARK                            x       y       z     vdW  Elec       q    Type
REMARK                         _______ _______ _______ _____ _____    ______ ____
ROOT
ATOM      1  C   UNL     1       4.194   3.536  18.315  0.00  0.00    +0.000 C 
ATOM      2  O   UNL     1       4.008   2.516  17.643  0.00  0.00    +0.000 OA
ATOM      3  N   UNL     1       5.290   4.343  18.071  0.00  0.00    +0.000 N 
ATOM      4  C   UNL     1       6.104   4.127  16.864  0.00  0.00    +0.000 C 
ATOM      5  C   UNL     1       5.981   5.330  15.894  0.00  0.00    +0.000 C 
ATOM      6  N   UNL     1       6.166   6.677  16.497  0.00  0.00    +0.000 NA
ATOM      7  C   UNL     1       5.351   6.769  17.740  0.00  0.00    +0.000 C 
ATOM      8  C   UNL     1       5.592   5.608  18.731  0.00  0.00    +0.000 C 
ENDROOT
BRANCH   1  15
ATOM      9  C   UNL     1       2.452   2.620  19.960  0.00  0.00    +0.000 C 
ATOM     10  C   UNL     1       0.977   3.024  19.730  0.00  0.00    +0.000 C 
ATOM     11  C   UNL     1       0.735   3.259  18.253  0.00  0.00    +0.000 C 
ATOM     12  C   UNL     1       1.363   4.388  17.909  0.00  0.00    +0.000 C 
ATOM     13  C   UNL     1       2.077   4.876  19.141  0.00  0.00    +0.000 C 
ATOM     14  C   UNL     1       1.003   4.488  20.167  0.00  0.00    +0.000 C 
ATOM     15  C   UNL     1       3.244   3.893  19.472  0.00  0.00    +0.000 C 
BRANCH   9  17
ATOM     16  O   UNL     1       1.886   2.460  22.322  0.00  0.00    +0.000 OA
ATOM     17  C   UNL     1       2.713   2.348  21.429  0.00  0.00    +0.000 C 
BRANCH  17  18
ATOM     18  O   UNL     1       3.963   1.914  21.686  0.00  0.00    +0.000 OA
ATOM     19  H   UNL     1       4.329   2.229  22.533  0.00  0.00    +0.000 HD
ENDBRANCH  17  18
ENDBRANCH   9  17
ENDBRANCH   1  15
BRANCH   6  20
ATOM     20  C   UNL     1       7.574   7.015  16.798  0.00  0.00    +0.000 C 
BRANCH  20  21
ATOM     21  C   UNL     1       7.760   8.247  17.697  0.00  0.00    +0.000 C 
BRANCH  21  22
ATOM     22  O   UNL     1       8.602   7.947  18.805  0.00  0.00    +0.000 OA
ATOM     23  H   UNL     1       8.266   8.490  19.544  0.00  0.00    +0.000 HD
ENDBRANCH  21  22
ENDBRANCH  20  21
ENDBRANCH   6  20
TORSDOF 6
ENDMDL
MODEL 3
REMARK VINA RESULT:      -7.7      2.326      6.166
REMARK  Name = 
REMARK  6 active torsions:
REMARK  status: ('A' for Active; 'I' for Inactive)
REMARK    1  A    between atoms: C_2  and  O_3
REMARK    2  A    between atoms: C_2  and  C_4
REMARK    3  A    between atoms: C_10  and  C_11
REMARK    4  A    between atoms: N_16  and  C_17
REMARK    5  A    between atoms: C_17  and  C_18
REMARK    6  A    between atoms: C_18  and  O_19
REMARK                            x       y       z     vdW  Elec       q    Type
REMARK                         _______ _______ _______ _____ _____    ______ ____
ROOT
ATOM      1  C   UNL     1       4.373   6.191  17.868  0.00  0.00    +0.000 C 
ATOM      2  O   UNL     1       4.020   7.030  17.033  0.00  0.00    +0.000 OA
ATOM      3  N   UNL     1       3.444   5.607  18.708  0.00  0.00    +0.000 N 
ATOM      4  C   UNL     1       2.007   5.799  18.457  0.00  0.00    +0.000 C 
ATOM      5  C   UNL     1       1.333   4.461  18.059  0.00  0.00    +0.000 C 
ATOM      6  N   UNL     1       1.628   3.295  18.934  0.00  0.00    +0.000 NA
ATOM      7  C   UNL     1       3.096   3.228  19.176  0.00  0.00    +0.000 C 
ATOM      8  C   UNL     1       3.706   4.554  19.683  0.00  0.00    +0.000 C 
ENDROOT
BRANCH   1  15
ATOM      9  C   UNL     1       6.758   6.712  17.082  0.00  0.00    +0.000 C 
ATOM     10  C   UNL     1       7.458   5.661  16.187  0.00  0.00    +0.000 C 
ATOM     11  C   UNL     1       6.421   4.911  15.375  0.00  0.00    +0.000 C 
ATOM     12  C   UNL     1       5.740   4.119  16.210  0.00  0.00    +0.000 C 
ATOM     13  C   UNL     1       6.278   4.386  17.590  0.00  0.00    +0.000 C 
ATOM     14  C   UNL     1       7.753   4.560  17.204  0.00  0.00    +0.000 C 
ATOM     15  C   UNL     1       5.860   5.826  18.027  0.00  0.00    +0.000 C 
BRANCH   9  17
ATOM     16  O   UNL     1       8.151   8.634  17.624  0.00  0.00    +0.000 OA
ATOM     17  C   UNL     1       7.778   7.499  17.883  0.00  0.00    +0.000 C 
BRANCH  17  18
ATOM     18  O   UNL     1       8.232   6.846  18.972  0.00  0.00    +0.000 OA
ATOM     19  H   UNL     1       9.198   6.888  19.089  0.00  0.00    +0.000 HD
ENDBRANCH  17  18
ENDBRANCH   9  17
ENDBRANCH   1  15
BRANCH   6  20
ATOM     20  C   UNL     1       0.911   3.315  20.228  0.00  0.00    +0.000 C 
BRANCH  20  21
ATOM     21  C   UNL     1       1.527   2.425  21.317  0.00  0.00    +0.000 C 
BRANCH  21  22
ATOM     22  O   UNL     1       2.091   3.211  22.361  0.00  0.00    +0.000 OA
ATOM     23  H   UNL     1       1.648   2.918  23.179  0.00  0.00    +0.000 HD
ENDBRANCH  21  22
ENDBRANCH  20  21
ENDBRANCH   6  20
TORSDOF 6
ENDMDL
MODEL 4
REMARK VINA RESULT:      -7.6      2.349      3.447
REMARK  Name = 
REMARK  6 active torsions:
REMARK  status: ('A' for Active; 'I' for Inactive)
REMARK    1  A    between atoms: C_2  and  O_3
REMARK    2  A    between atoms: C_2  and  C_4
REMARK    3  A    between atoms: C_10  and  C_11
REMARK    4  A    between atoms: N_16  and  C_17
REMARK    5  A    between atoms: C_17  and  C_18
REMARK    6  A    between atoms: C_18  and  O_19
REMARK                            x       y       z     vdW  Elec       q    Type
REMARK                         _______ _______ _______ _____ _____    ______ ____
ROOT
ATOM      1  C   UNL     1       4.703   4.214  19.383  0.00  0.00    +0.000 C 
ATOM      2  O   UNL     1       5.378   3.253  19.765  0.00  0.00    +0.000 OA
ATOM      3  N   UNL     1       5.312   5.415  19.070  0.00  0.00    +0.000 N 
ATOM      4  C   UNL     1       6.777   5.487  18.959  0.00  0.00    +0.000 C 
ATOM      5  C   UNL     1       7.206   5.782  17.499  0.00  0.00    +0.000 C 
ATOM      6  N   UNL     1       6.508   6.912  16.829  0.00  0.00    +0.000 NA
ATOM      7  C   UNL     1       5.041   6.779  17.054  0.00  0.00    +0.000 C 
ATOM      8  C   UNL     1       4.651   6.602  18.538  0.00  0.00    +0.000 C 
ENDROOT
BRANCH   1  15
ATOM      9  C   UNL     1       2.651   2.869  20.130  0.00  0.00    +0.000 C 
ATOM     10  C   UNL     1       1.927   2.021  19.057  0.00  0.00    +0.000 C 
ATOM     11  C   UNL     1       2.921   1.574  18.004  0.00  0.00    +0.000 C 
ATOM     12  C   UNL     1       3.269   2.647  17.286  0.00  0.00    +0.000 C 
ATOM     13  C   UNL     1       2.557   3.824  17.899  0.00  0.00    +0.000 C 
ATOM     14  C   UNL     1       1.240   3.111  18.237  0.00  0.00    +0.000 C 
ATOM     15  C   UNL     1       3.170   4.109  19.306  0.00  0.00    +0.000 C 
BRANCH   9  17
ATOM     16  O   UNL     1       1.254   2.583  22.103  0.00  0.00    +0.000 OA
ATOM     17  C   UNL     1       1.683   3.303  21.214  0.00  0.00    +0.000 C 
BRANCH  17  18
ATOM     18  O   UNL     1       1.348   4.608  21.150  0.00  0.00    +0.000 OA
ATOM     19  H   UNL     1       1.575   5.118  21.949  0.00  0.00    +0.000 HD
ENDBRANCH  17  18
ENDBRANCH   9  17
ENDBRANCH   1  15
BRANCH   6  20
ATOM     20  C   UNL     1       6.961   8.249  17.273  0.00  0.00    +0.000 C 
BRANCH  20  21
ATOM     21  C   UNL     1       8.286   8.252  18.049  0.00  0.00    +0.000 C 
BRANCH  21  22
ATOM     22  O   UNL     1       8.682   9.579  18.377  0.00  0.00    +0.000 OA
ATOM     23  H   UNL     1       9.458   9.768  17.816  0.00  0.00    +0.000 HD
ENDBRANCH  21  22
ENDBRANCH  20  21
ENDBRANCH   6  20
TORSDOF 6
ENDMDL
MODEL 5
REMARK VINA RESULT:      -7.4      2.012      3.548
REMARK  Name = 
REMARK  6 active torsions:
REMARK  status: ('A' for Active; 'I' for Inactive)
REMARK    1  A    between atoms: C_2  and  O_3
REMARK    2  A    between atoms: C_2  and  C_4
REMARK    3  A    between atoms: C_10  and  C_11
REMARK    4  A    between atoms: N_16  and  C_17
REMARK    5  A    between atoms: C_17  and  C_18
REMARK    6  A    between atoms: C_18  and  O_19
REMARK                            x       y       z     vdW  Elec       q    Type
REMARK                         _______ _______ _______ _____ _____    ______ ____
ROOT
ATOM      1  C   UNL     1       2.942   3.962  17.464  0.00  0.00    +0.000 C 
ATOM      2  O   UNL     1       2.611   3.059  16.689  0.00  0.00    +0.000 OA
ATOM      3  N   UNL     1       4.237   4.446  17.461  0.00  0.00    +0.000 N 
ATOM      4  C   UNL     1       5.160   4.061  16.382  0.00  0.00    +0.000 C 
ATOM      5  C   UNL     1       5.529   5.287  15.508  0.00  0.00    +0.000 C 
ATOM      6  N   UNL     1       5.956   6.508  16.241  0.00  0.00    +0.000 NA
ATOM      7  C   UNL     1       4.992   6.773  17.346  0.00  0.00    +0.000 C 
ATOM      8  C   UNL     1       4.743   5.555  18.263  0.00  0.00    +0.000 C 
ENDROOT
BRANCH   1  15
ATOM      9  C   UNL     1       2.680   5.270  19.654  0.00  0.00    +0.000 C 
ATOM     10  C   UNL     1       2.236   4.479  20.907  0.00  0.00    +0.000 C 
ATOM     11  C   UNL     1       2.722   3.047  20.805  0.00  0.00    +0.000 C 
ATOM     12  C   UNL     1       2.006   2.438  19.853  0.00  0.00    +0.000 C 
ATOM     13  C   UNL     1       1.085   3.479  19.275  0.00  0.00    +0.000 C 
ATOM     14  C   UNL     1       0.766   4.218  20.582  0.00  0.00    +0.000 C 
ATOM     15  C   UNL     1       1.935   4.523  18.484  0.00  0.00    +0.000 C 
BRANCH   9  17
ATOM     16  O   UNL     1       2.002   7.444  18.792  0.00  0.00    +0.000 OA
ATOM     17  C   UNL     1       2.233   6.717  19.747  0.00  0.00    +0.000 C 
BRANCH  17  18
ATOM     18  O   UNL     1       2.059   7.150  21.011  0.00  0.00    +0.000 OA
ATOM     19  H   UNL     1       1.359   7.821  21.111  0.00  0.00    +0.000 HD
ENDBRANCH  17  18
ENDBRANCH   9  17
ENDBRANCH   1  15
BRANCH   6  20
ATOM     20  C   UNL     1       7.329   6.436  16.786  0.00  0.00    +0.000 C 
BRANCH  20  21
ATOM     21  C   UNL     1       7.733   7.626  17.669  0.00  0.00    +0.000 C 
BRANCH  21  22
ATOM     22  O   UNL     1       8.394   7.184  18.850  0.00  0.00    +0.000 OA
ATOM     23  H   UNL     1       9.337   7.106  18.610  0.00  0.00    +0.000 HD
ENDBRANCH  21  22
ENDBRANCH  20  21
ENDBRANCH   6  20
TORSDOF 6
ENDMDL
MODEL 6
REMARK VINA RESULT:      -7.4      2.050      3.557
REMARK  Name = 
REMARK  6 active torsions:
REMARK  status: ('A' for Active; 'I' for Inactive)
REMARK    1  A    between atoms: C_2  and  O_3
REMARK    2  A    between atoms: C_2  and  C_4
REMARK    3  A    between atoms: C_10  and  C_11
REMARK    4  A    between atoms: N_16  and  C_17
REMARK    5  A    between atoms: C_17  and  C_18
REMARK    6  A    between atoms: C_18  and  O_19
REMARK                            x       y       z     vdW  Elec       q    Type
REMARK                         _______ _______ _______ _____ _____    ______ ____
ROOT
ATOM      1  C   UNL     1       5.027   5.619  18.321  0.00  0.00    +0.000 C 
ATOM      2  O   UNL     1       5.694   5.531  19.356  0.00  0.00    +0.000 OA
ATOM      3  N   UNL     1       5.653   5.706  17.091  0.00  0.00    +0.000 N 
ATOM      4  C   UNL     1       7.100   5.456  16.987  0.00  0.00    +0.000 C 
ATOM      5  C   UNL     1       7.380   4.172  16.166  0.00  0.00    +0.000 C 
ATOM      6  N   UNL     1       6.666   4.060  14.865  0.00  0.00    +0.000 NA
ATOM      7  C   UNL     1       5.228   4.391  15.069  0.00  0.00    +0.000 C 
ATOM      8  C   UNL     1       4.995   5.738  15.790  0.00  0.00    +0.000 C 
ENDROOT
BRANCH   1  15
ATOM      9  C   UNL     1       3.005   5.971  19.859  0.00  0.00    +0.000 C 
ATOM     10  C   UNL     1       2.126   4.737  20.172  0.00  0.00    +0.000 C 
ATOM     11  C   UNL     1       2.974   3.482  20.128  0.00  0.00    +0.000 C 
ATOM     12  C   UNL     1       3.294   3.247  18.851  0.00  0.00    +0.000 C 
ATOM     13  C   UNL     1       2.714   4.380  18.047  0.00  0.00    +0.000 C 
ATOM     14  C   UNL     1       1.408   4.543  18.838  0.00  0.00    +0.000 C 
ATOM     15  C   UNL     1       3.491   5.691  18.386  0.00  0.00    +0.000 C 
BRANCH   9  17
ATOM     16  O   UNL     1       2.033   8.034  19.006  0.00  0.00    +0.000 OA
ATOM     17  C   UNL     1       2.186   7.246  19.928  0.00  0.00    +0.000 C 
BRANCH  17  18
ATOM     18  O   UNL     1       1.577   7.434  21.116  0.00  0.00    +0.000 OA
ATOM     19  H   UNL     1       1.987   8.124  21.669  0.00  0.00    +0.000 HD
ENDBRANCH  17  18
ENDBRANCH   9  17
ENDBRANCH   1  15
BRANCH   6  20
ATOM     20  C   UNL     1       7.227   4.912  13.794  0.00  0.00    +0.000 C 
BRANCH  20  21
ATOM     21  C   UNL     1       6.972   4.402  12.368  0.00  0.00    +0.000 C 
BRANCH  21  22
ATOM     22  O   UNL     1       6.725   3.000  12.364  0.00  0.00    +0.000 OA
ATOM     23  H   UNL     1       5.763   2.902  12.492  0.00  0.00    +0.000 HD
ENDBRANCH  21  22
ENDBRANCH  20  21
ENDBRANCH   6  20
TORSDOF 6
ENDMDL
MODEL 7
REMARK VINA RESULT:      -7.3      1.673      3.208
REMARK  Name = 
REMARK  6 active torsions:
REMARK  status: ('A' for Active; 'I' for Inactive)
REMARK    1  A    between atoms: C_2  and  O_3
REMARK    2  A    between atoms: C_2  and  C_4
REMARK    3  A    between atoms: C_10  and  C_11
REMARK    4  A    between atoms: N_16  and  C_17
REMARK    5  A    between atoms: C_17  and  C_18
REMARK    6  A    between atoms: C_18  and  O_19
REMARK                            x       y       z     vdW  Elec       q    Type
REMARK                         _______ _______ _______ _____ _____    ______ ____
ROOT
ATOM      1  C   UNL     1       4.918   4.631  18.365  0.00  0.00    +0.000 C 
ATOM      2  O   UNL     1       5.530   4.171  19.334  0.00  0.00    +0.000 OA
ATOM      3  N   UNL     1       5.608   5.119  17.271  0.00  0.00    +0.000 N 
ATOM      4  C   UNL     1       7.054   4.877  17.149  0.00  0.00    +0.000 C 
ATOM      5  C   UNL     1       7.359   3.948  15.947  0.00  0.00    +0.000 C 
ATOM      6  N   UNL     1       6.712   4.314  14.658  0.00  0.00    +0.000 NA
ATOM      7  C   UNL     1       5.270   4.598  14.902  0.00  0.00    +0.000 C 
ATOM      8  C   UNL     1       5.018   5.619  16.033  0.00  0.00    +0.000 C 
ENDROOT
BRANCH   1  15
ATOM      9  C   UNL     1       2.819   4.390  19.818  0.00  0.00    +0.000 C 
ATOM     10  C   UNL     1       1.908   3.168  19.554  0.00  0.00    +0.000 C 
ATOM     11  C   UNL     1       2.740   2.013  19.035  0.00  0.00    +0.000 C 
ATOM     12  C   UNL     1       3.128   2.313  17.791  0.00  0.00    +0.000 C 
ATOM     13  C   UNL     1       2.608   3.695  17.500  0.00  0.00    +0.000 C 
ATOM     14  C   UNL     1       1.262   3.564  18.227  0.00  0.00    +0.000 C 
ATOM     15  C   UNL     1       3.382   4.724  18.384  0.00  0.00    +0.000 C 
BRANCH   9  17
ATOM     16  O   UNL     1       0.892   5.465  20.848  0.00  0.00    +0.000 OA
ATOM     17  C   UNL     1       2.013   5.551  20.368  0.00  0.00    +0.000 C 
BRANCH  17  18
ATOM     18  O   UNL     1       2.665   6.731  20.328  0.00  0.00    +0.000 OA
ATOM     19  H   UNL     1       2.089   7.509  20.437  0.00  0.00    +0.000 HD
ENDBRANCH  17  18
ENDBRANCH   9  17
ENDBRANCH   1  15
BRANCH   6  20
ATOM     20  C   UNL     1       7.339   5.466  13.975  0.00  0.00    +0.000 C 
BRANCH  20  21
ATOM     21  C   UNL     1       7.787   5.191  12.531  0.00  0.00    +0.000 C 
BRANCH  21  22
ATOM     22  O   UNL     1       7.103   4.065  11.991  0.00  0.00    +0.000 OA
ATOM     23  H   UNL     1       7.779   3.367  11.899  0.00  0.00    +0.000 HD
ENDBRANCH  21  22
ENDBRANCH  20  21
ENDBRANCH   6  20
TORSDOF 6
ENDMDL
MODEL 8
REMARK VINA RESULT:      -7.2      1.713      2.894
REMARK  Name = 
REMARK  6 active torsions:
REMARK  status: ('A' for Active; 'I' for Inactive)
REMARK    1  A    between atoms: C_2  and  O_3
REMARK    2  A    between atoms: C_2  and  C_4
REMARK    3  A    between atoms: C_10  and  C_11
REMARK    4  A    between atoms: N_16  and  C_17
REMARK    5  A    between atoms: C_17  and  C_18
REMARK    6  A    between atoms: C_18  and  O_19
REMARK                            x       y       z     vdW  Elec       q    Type
REMARK                         _______ _______ _______ _____ _____    ______ ____
ROOT
ATOM      1  C   UNL     1       4.944   4.456  18.698  0.00  0.00    +0.000 C 
ATOM      2  O   UNL     1       5.670   4.195  19.663  0.00  0.00    +0.000 OA
ATOM      3  N   UNL     1       5.480   5.013  17.552  0.00  0.00    +0.000 N 
ATOM      4  C   UNL     1       6.940   5.078  17.381  0.00  0.00    +0.000 C 
ATOM      5  C   UNL     1       7.400   4.165  16.217  0.00  0.00    +0.000 C 
ATOM      6  N   UNL     1       6.651   4.307  14.939  0.00  0.00    +0.000 NA
ATOM      7  C   UNL     1       5.189   4.292  15.229  0.00  0.00    +0.000 C 
ATOM      8  C   UNL     1       4.759   5.301  16.316  0.00  0.00    +0.000 C 
ENDROOT
BRANCH   1  15
ATOM      9  C   UNL     1       3.052   3.414  20.080  0.00  0.00    +0.000 C 
ATOM     10  C   UNL     1       2.376   2.142  19.515  0.00  0.00    +0.000 C 
ATOM     11  C   UNL     1       3.373   1.361  18.682  0.00  0.00    +0.000 C 
ATOM     12  C   UNL     1       3.596   2.049  17.558  0.00  0.00    +0.000 C 
ATOM     13  C   UNL     1       2.798   3.321  17.666  0.00  0.00    +0.000 C 
ATOM     14  C   UNL     1       1.564   2.728  18.362  0.00  0.00    +0.000 C 
ATOM     15  C   UNL     1       3.426   4.220  18.777  0.00  0.00    +0.000 C 
BRANCH   9  17
ATOM     16  O   UNL     1       1.893   5.403  20.872  0.00  0.00    +0.000 OA
ATOM     17  C   UNL     1       2.083   4.198  20.944  0.00  0.00    +0.000 C 
BRANCH  17  18
ATOM     18  O   UNL     1       1.383   3.432  21.805  0.00  0.00    +0.000 OA
ATOM     19  H   UNL     1       0.459   3.714  21.931  0.00  0.00    +0.000 HD
ENDBRANCH  17  18
ENDBRANCH   9  17
ENDBRANCH   1  15
BRANCH   6  20
ATOM     20  C   UNL     1       6.993   5.524  14.171  0.00  0.00    +0.000 C 
BRANCH  20  21
ATOM     21  C   UNL     1       8.006   5.303  13.037  0.00  0.00    +0.000 C 
BRANCH  21  22
ATOM     22  O   UNL     1       9.189   6.064  13.254  0.00  0.00    +0.000 OA
ATOM     23  H   UNL     1       9.924   5.423  13.217  0.00  0.00    +0.000 HD
ENDBRANCH  21  22
ENDBRANCH  20  21
ENDBRANCH   6  20
TORSDOF 6
ENDMDL
MODEL 9
REMARK VINA RESULT:      -7.2      2.385      6.006
REMARK  Name = 
REMARK  6 active torsions:
REMARK  status: ('A' for Active; 'I' for Inactive)
REMARK    1  A    between atoms: C_2  and  O_3
REMARK    2  A    between atoms: C_2  and  C_4
REMARK    3  A    between atoms: C_10  and  C_11
REMARK    4  A    between atoms: N_16  and  C_17
REMARK    5  A    between atoms: C_17  and  C_18
REMARK    6  A    between atoms: C_18  and  O_19
REMARK                            x       y       z     vdW  Elec       q    Type
REMARK                         _______ _______ _______ _____ _____    ______ ____
ROOT
ATOM      1  C   UNL     1       4.372   5.512  18.350  0.00  0.00    +0.000 C 
ATOM      2  O   UNL     1       4.044   6.684  18.141  0.00  0.00    +0.000 OA
ATOM      3  N   UNL     1       3.459   4.612  18.866  0.00  0.00    +0.000 N 
ATOM      4  C   UNL     1       2.036   4.977  18.946  0.00  0.00    +0.000 C 
ATOM      5  C   UNL     1       1.187   4.099  17.992  0.00  0.00    +0.000 C 
ATOM      6  N   UNL     1       1.424   2.632  18.069  0.00  0.00    +0.000 NA
ATOM      7  C   UNL     1       2.891   2.376  18.043  0.00  0.00    +0.000 C 
ATOM      8  C   UNL     1       3.685   3.188  19.091  0.00  0.00    +0.000 C 
ENDROOT
BRANCH   1  15
ATOM      9  C   UNL     1       6.762   6.282  17.826  0.00  0.00    +0.000 C 
ATOM     10  C   UNL     1       7.305   5.997  16.406  0.00  0.00    +0.000 C 
ATOM     11  C   UNL     1       6.160   5.986  15.413  0.00  0.00    +0.000 C 
ATOM     12  C   UNL     1       5.437   4.883  15.633  0.00  0.00    +0.000 C 
ATOM     13  C   UNL     1       6.060   4.188  16.814  0.00  0.00    +0.000 C 
ATOM     14  C   UNL     1       7.528   4.487  16.475  0.00  0.00    +0.000 C 
ATOM     15  C   UNL     1       5.817   5.049  18.094  0.00  0.00    +0.000 C 
BRANCH   9  17
ATOM     16  O   UNL     1       8.227   5.405  19.561  0.00  0.00    +0.000 OA
ATOM     17  C   UNL     1       7.893   6.330  18.834  0.00  0.00    +0.000 C 
BRANCH  17  18
ATOM     18  O   UNL     1       8.562   7.500  18.844  0.00  0.00    +0.000 OA
ATOM     19  H   UNL     1       9.337   7.512  19.433  0.00  0.00    +0.000 HD
ENDBRANCH  17  18
ENDBRANCH   9  17
ENDBRANCH   1  15
BRANCH   6  20
ATOM     20  C   UNL     1       0.826   1.986  19.257  0.00  0.00    +0.000 C 
BRANCH  20  21
ATOM     21  C   UNL     1       0.566   2.932  20.440  0.00  0.00    +0.000 C 
BRANCH  21  22
ATOM     22  O   UNL     1       1.345   2.559  21.572  0.00  0.00    +0.000 OA
ATOM     23  H   UNL     1       1.390   3.357  22.133  0.00  0.00    +0.000 HD
ENDBRANCH  21  22
ENDBRANCH  20  21
ENDBRANCH   6  20
TORSDOF 6
ENDMDL
