MODEL 1
REMARK VINA RESULT:      -7.7      0.000      0.000
REMARK  Name = 
REMARK  3 active torsions:
REMARK  status: ('A' for Active; 'I' for Inactive)
REMARK    1  A    between atoms: C_9  and  C_10
REMARK    2  A    between atoms: C_17  and  N_18
REMARK    3  A    between atoms: C_21  and  N_22
REMARK                            x       y       z     vdW  Elec       q    Type
REMARK                         _______ _______ _______ _____ _____    ______ ____
ROOT
ATOM      1  O   UNL     1       2.321  16.672  21.775  0.00  0.00    +0.000 OA
ATOM      2  S   UNL     1       2.497  16.117  20.447  0.00  0.00    +0.000 S 
ATOM      3  O   UNL     1       3.337  16.799  19.478  0.00  0.00    +0.000 OA
ATOM      4  C   UNL     1       0.886  15.887  19.731  0.00  0.00    +0.000 C 
ATOM      5  C   UNL     1       0.994  15.015  18.498  0.00  0.00    +0.000 C 
ATOM      6  N   UNL     1       1.621  13.744  18.835  0.00  0.00    +0.000 N 
ATOM      7  C   UNL     1       0.911  12.567  18.842  0.00  0.00    +0.000 A 
ATOM      8  N   UNL     1      -0.389  12.569  18.533  0.00  0.00    +0.000 NA
ATOM      9  C   UNL     1      -1.035  11.383  18.480  0.00  0.00    +0.000 A 
ATOM     10  C   UNL     1      -0.386  10.194  18.754  0.00  0.00    +0.000 A 
ATOM     11  C   UNL     1       0.959  10.266  19.041  0.00  0.00    +0.000 A 
ATOM     12  N   UNL     1       1.582  11.447  19.117  0.00  0.00    +0.000 NA
ATOM     13  C   UNL     1       3.009  13.759  19.288  0.00  0.00    +0.000 C 
ATOM     14  C   UNL     1       3.092  14.454  20.628  0.00  0.00    +0.000 C 
ENDROOT
BRANCH   9  15
ATOM     15  C   UNL     1      -2.433  11.441  18.012  0.00  0.00    +0.000 A 
ATOM     16  C   UNL     1      -2.831  11.082  16.716  0.00  0.00    +0.000 A 
ATOM     17  C   UNL     1      -4.165  11.198  16.323  0.00  0.00    +0.000 A 
ATOM     18  C   UNL     1      -5.084  11.679  17.237  0.00  0.00    +0.000 A 
ATOM     19  N   UNL     1      -4.761  12.028  18.497  0.00  0.00    +0.000 NA
ATOM     20  C   UNL     1      -3.456  11.895  18.850  0.00  0.00    +0.000 A 
ENDBRANCH   9  15
BRANCH  11  21
ATOM     21  N   UNL     1       1.720   9.090  19.094  0.00  0.00    +0.000 N 
ATOM     22  C   UNL     1       1.226   8.135  20.096  0.00  0.00    +0.000 C 
ATOM     23  C   UNL     1       2.361   7.160  20.385  0.00  0.00    +0.000 C 
ATOM     24  C   UNL     1       2.816   6.376  19.131  0.00  0.00    +0.000 C 
ATOM     25  C   UNL     1       3.051   7.396  17.973  0.00  0.00    +0.000 C 
ATOM     26  C   UNL     1       1.934   8.436  17.799  0.00  0.00    +0.000 C 
BRANCH  24  27
ATOM     27  N   UNL     1       1.934   5.264  18.685  0.00  0.00    +0.000 NA
ATOM     28  C   UNL     1       1.440   4.356  19.751  0.00  0.00    +0.000 C 
ATOM     29  C   UNL     1       2.500   3.396  20.319  0.00  0.00    +0.000 C 
ATOM     30  O   UNL     1       3.042   2.572  19.282  0.00  0.00    +0.000 OA
ATOM     31  C   UNL     1       3.627   3.383  18.259  0.00  0.00    +0.000 C 
ATOM     32  C   UNL     1       2.612   4.392  17.678  0.00  0.00    +0.000 C 
ENDBRANCH  24  27
ENDBRANCH  11  21
TORSDOF 3
ENDMDL
MODEL 2
REMARK VINA RESULT:      -7.6      2.277      3.031
REMARK  Name = 
REMARK  3 active torsions:
REMARK  status: ('A' for Active; 'I' for Inactive)
REMARK    1  A    between atoms: C_9  and  C_10
REMARK    2  A    between atoms: C_17  and  N_18
REMARK    3  A    between atoms: C_21  and  N_22
REMARK                            x       y       z     vdW  Elec       q    Type
REMARK                         _______ _______ _______ _____ _____    ______ ____
ROOT
ATOM      1  O   UNL     1       4.567  16.468  19.563  0.00  0.00    +0.000 OA
ATOM      2  S   UNL     1       3.566  15.905  18.676  0.00  0.00    +0.000 S 
ATOM      3  O   UNL     1       3.397  16.441  17.337  0.00  0.00    +0.000 OA
ATOM      4  C   UNL     1       1.998  15.968  19.510  0.00  0.00    +0.000 C 
ATOM      5  C   UNL     1       0.993  15.105  18.777  0.00  0.00    +0.000 C 
ATOM      6  N   UNL     1       1.491  13.740  18.666  0.00  0.00    +0.000 N 
ATOM      7  C   UNL     1       0.927  12.705  19.374  0.00  0.00    +0.000 A 
ATOM      8  N   UNL     1      -0.106  12.938  20.188  0.00  0.00    +0.000 NA
ATOM      9  C   UNL     1      -0.679  11.883  20.811  0.00  0.00    +0.000 A 
ATOM     10  C   UNL     1      -0.208  10.596  20.633  0.00  0.00    +0.000 A 
ATOM     11  C   UNL     1       0.844  10.429  19.760  0.00  0.00    +0.000 A 
ATOM     12  N   UNL     1       1.420  11.482  19.171  0.00  0.00    +0.000 NA
ATOM     13  C   UNL     1       2.693  13.507  17.870  0.00  0.00    +0.000 C 
ATOM     14  C   UNL     1       3.876  14.162  18.544  0.00  0.00    +0.000 C 
ENDROOT
BRANCH   9  15
ATOM     15  C   UNL     1      -1.890  12.190  21.595  0.00  0.00    +0.000 A 
ATOM     16  C   UNL     1      -2.007  11.936  22.969  0.00  0.00    +0.000 A 
ATOM     17  C   UNL     1      -3.197  12.212  23.646  0.00  0.00    +0.000 A 
ATOM     18  C   UNL     1      -4.257  12.738  22.931  0.00  0.00    +0.000 A 
ATOM     19  N   UNL     1      -4.198  13.013  21.613  0.00  0.00    +0.000 NA
ATOM     20  C   UNL     1      -3.023  12.740  20.988  0.00  0.00    +0.000 A 
ENDBRANCH   9  15
BRANCH  11  21
ATOM     21  N   UNL     1       1.212   9.137  19.357  0.00  0.00    +0.000 N 
ATOM     22  C   UNL     1       2.057   9.133  18.155  0.00  0.00    +0.000 C 
ATOM     23  C   UNL     1       1.991   7.730  17.564  0.00  0.00    +0.000 C 
ATOM     24  C   UNL     1       2.502   6.641  18.538  0.00  0.00    +0.000 C 
ATOM     25  C   UNL     1       1.806   6.851  19.919  0.00  0.00    +0.000 C 
ATOM     26  C   UNL     1       1.792   8.304  20.415  0.00  0.00    +0.000 C 
BRANCH  24  27
ATOM     27  N   UNL     1       3.977   6.536  18.701  0.00  0.00    +0.000 NA
ATOM     28  C   UNL     1       4.768   6.462  17.446  0.00  0.00    +0.000 C 
ATOM     29  C   UNL     1       4.672   5.117  16.704  0.00  0.00    +0.000 C 
ATOM     30  O   UNL     1       5.113   4.045  17.544  0.00  0.00    +0.000 OA
ATOM     31  C   UNL     1       4.326   3.994  18.737  0.00  0.00    +0.000 C 
ATOM     32  C   UNL     1       4.359   5.334  19.504  0.00  0.00    +0.000 C 
ENDBRANCH  24  27
ENDBRANCH  11  21
TORSDOF 3
ENDMDL
MODEL 3
REMARK VINA RESULT:      -7.0      2.783      3.469
REMARK  Name = 
REMARK  3 active torsions:
REMARK  status: ('A' for Active; 'I' for Inactive)
REMARK    1  A    between atoms: C_9  and  C_10
REMARK    2  A    between atoms: C_17  and  N_18
REMARK    3  A    between atoms: C_21  and  N_22
REMARK                            x       y       z     vdW  Elec       q    Type
REMARK                         _______ _______ _______ _____ _____    ______ ____
ROOT
ATOM      1  O   UNL     1       4.883  16.320  19.004  0.00  0.00    +0.000 OA
ATOM      2  S   UNL     1       3.705  15.787  18.347  0.00  0.00    +0.000 S 
ATOM      3  O   UNL     1       3.328  16.267  17.028  0.00  0.00    +0.000 OA
ATOM      4  C   UNL     1       2.322  16.004  19.442  0.00  0.00    +0.000 C 
ATOM      5  C   UNL     1       1.149  15.179  18.954  0.00  0.00    +0.000 C 
ATOM      6  N   UNL     1       1.533  13.779  18.841  0.00  0.00    +0.000 N 
ATOM      7  C   UNL     1       1.046  12.823  19.700  0.00  0.00    +0.000 A 
ATOM      8  N   UNL     1       0.195  13.169  20.670  0.00  0.00    +0.000 NA
ATOM      9  C   UNL     1      -0.319  12.190  21.449  0.00  0.00    +0.000 A 
ATOM     10  C   UNL     1       0.032  10.866  21.270  0.00  0.00    +0.000 A 
ATOM     11  C   UNL     1       0.895  10.580  20.234  0.00  0.00    +0.000 A 
ATOM     12  N   UNL     1       1.418  11.559  19.488  0.00  0.00    +0.000 NA
ATOM     13  C   UNL     1       2.553  13.421  17.859  0.00  0.00    +0.000 C 
ATOM     14  C   UNL     1       3.878  14.022  18.269  0.00  0.00    +0.000 C 
ENDROOT
BRANCH   9  15
ATOM     15  C   UNL     1      -1.345  12.621  22.417  0.00  0.00    +0.000 A 
ATOM     16  C   UNL     1      -1.377  13.898  22.995  0.00  0.00    +0.000 A 
ATOM     17  C   UNL     1      -2.353  14.230  23.936  0.00  0.00    +0.000 A 
ATOM     18  C   UNL     1      -3.285  13.271  24.288  0.00  0.00    +0.000 A 
ATOM     19  N   UNL     1      -3.310  12.033  23.757  0.00  0.00    +0.000 NA
ATOM     20  C   UNL     1      -2.351  11.746  22.838  0.00  0.00    +0.000 A 
ENDBRANCH   9  15
BRANCH  11  21
ATOM     21  N   UNL     1       1.103   9.247  19.853  0.00  0.00    +0.000 N 
ATOM     22  C   UNL     1       1.939   9.121  18.651  0.00  0.00    +0.000 C 
ATOM     23  C   UNL     1       1.703   7.727  18.084  0.00  0.00    +0.000 C 
ATOM     24  C   UNL     1       2.081   6.601  19.076  0.00  0.00    +0.000 C 
ATOM     25  C   UNL     1       1.417   6.915  20.453  0.00  0.00    +0.000 C 
ATOM     26  C   UNL     1       1.580   8.368  20.925  0.00  0.00    +0.000 C 
BRANCH  24  27
ATOM     27  N   UNL     1       3.533   6.320  19.241  0.00  0.00    +0.000 NA
ATOM     28  C   UNL     1       4.338   6.298  17.994  0.00  0.00    +0.000 C 
ATOM     29  C   UNL     1       4.116   5.059  17.108  0.00  0.00    +0.000 C 
ATOM     30  O   UNL     1       4.424   3.862  17.828  0.00  0.00    +0.000 OA
ATOM     31  C   UNL     1       3.609   3.766  19.001  0.00  0.00    +0.000 C 
ATOM     32  C   UNL     1       3.767   5.004  19.911  0.00  0.00    +0.000 C 
ENDBRANCH  24  27
ENDBRANCH  11  21
TORSDOF 3
ENDMDL
MODEL 4
REMARK VINA RESULT:      -6.9      1.068      1.162
REMARK  Name = 
REMARK  3 active torsions:
REMARK  status: ('A' for Active; 'I' for Inactive)
REMARK    1  A    between atoms: C_9  and  C_10
REMARK    2  A    between atoms: C_17  and  N_18
REMARK    3  A    between atoms: C_21  and  N_22
REMARK                            x       y       z     vdW  Elec       q    Type
REMARK                         _______ _______ _______ _____ _____    ______ ____
ROOT
ATOM      1  O   UNL     1       0.109  16.086  22.919  0.00  0.00    +0.000 OA
ATOM      2  S   UNL     1       0.713  15.819  21.627  0.00  0.00    +0.000 S 
ATOM      3  O   UNL     1       1.643  16.773  21.049  0.00  0.00    +0.000 OA
ATOM      4  C   UNL     1      -0.595  15.529  20.460  0.00  0.00    +0.000 C 
ATOM      5  C   UNL     1      -0.025  14.927  19.192  0.00  0.00    +0.000 C 
ATOM      6  N   UNL     1       0.703  13.705  19.501  0.00  0.00    +0.000 N 
ATOM      7  C   UNL     1       0.230  12.467  19.133  0.00  0.00    +0.000 A 
ATOM      8  N   UNL     1      -0.927  12.366  18.472  0.00  0.00    +0.000 NA
ATOM      9  C   UNL     1      -1.324  11.139  18.064  0.00  0.00    +0.000 A 
ATOM     10  C   UNL     1      -0.572  10.010  18.331  0.00  0.00    +0.000 A 
ATOM     11  C   UNL     1       0.622  10.195  18.994  0.00  0.00    +0.000 A 
ATOM     12  N   UNL     1       0.990  11.409  19.417  0.00  0.00    +0.000 NA
ATOM     13  C   UNL     1       1.905  13.807  20.325  0.00  0.00    +0.000 C 
ATOM     14  C   UNL     1       1.520  14.240  21.721  0.00  0.00    +0.000 C 
ENDROOT
BRANCH   9  15
ATOM     15  C   UNL     1      -2.542  11.109  17.233  0.00  0.00    +0.000 A 
ATOM     16  C   UNL     1      -2.568  10.639  15.913  0.00  0.00    +0.000 A 
ATOM     17  C   UNL     1      -3.747  10.675  15.166  0.00  0.00    +0.000 A 
ATOM     18  C   UNL     1      -4.887  11.188  15.757  0.00  0.00    +0.000 A 
ATOM     19  N   UNL     1      -4.924  11.643  17.024  0.00  0.00    +0.000 NA
ATOM     20  C   UNL     1      -3.762  11.586  17.724  0.00  0.00    +0.000 A 
ENDBRANCH   9  15
BRANCH  11  21
ATOM     21  N   UNL     1       1.535   9.135  19.086  0.00  0.00    +0.000 N 
ATOM     22  C   UNL     1       1.106   8.092  20.029  0.00  0.00    +0.000 C 
ATOM     23  C   UNL     1       2.342   7.277  20.388  0.00  0.00    +0.000 C 
ATOM     24  C   UNL     1       2.996   6.600  19.159  0.00  0.00    +0.000 C 
ATOM     25  C   UNL     1       3.170   7.675  18.041  0.00  0.00    +0.000 C 
ATOM     26  C   UNL     1       1.934   8.554  17.800  0.00  0.00    +0.000 C 
BRANCH  24  27
ATOM     27  N   UNL     1       2.315   5.389  18.627  0.00  0.00    +0.000 NA
ATOM     28  C   UNL     1       1.991   4.333  19.619  0.00  0.00    +0.000 C 
ATOM     29  C   UNL     1       3.204   3.530  20.120  0.00  0.00    +0.000 C 
ATOM     30  O   UNL     1       3.872   2.891  19.028  0.00  0.00    +0.000 OA
ATOM     31  C   UNL     1       4.302   3.864  18.072  0.00  0.00    +0.000 C 
ATOM     32  C   UNL     1       3.126   4.724  17.561  0.00  0.00    +0.000 C 
ENDBRANCH  24  27
ENDBRANCH  11  21
TORSDOF 3
ENDMDL
MODEL 5
REMARK VINA RESULT:      -6.7      3.827      9.472
REMARK  Name = 
REMARK  3 active torsions:
REMARK  status: ('A' for Active; 'I' for Inactive)
REMARK    1  A    between atoms: C_9  and  C_10
REMARK    2  A    between atoms: C_17  and  N_18
REMARK    3  A    between atoms: C_21  and  N_22
REMARK                            x       y       z     vdW  Elec       q    Type
REMARK                         _______ _______ _______ _____ _____    ______ ____
ROOT
ATOM      1  O   UNL     1       6.176   4.161  13.197  0.00  0.00    +0.000 OA
ATOM      2  S   UNL     1       6.557   4.845  14.419  0.00  0.00    +0.000 S 
ATOM      3  O   UNL     1       7.918   5.322  14.591  0.00  0.00    +0.000 OA
ATOM      4  C   UNL     1       6.154   3.786  15.788  0.00  0.00    +0.000 C 
ATOM      5  C   UNL     1       6.221   4.573  17.080  0.00  0.00    +0.000 C 
ATOM      6  N   UNL     1       5.336   5.727  17.012  0.00  0.00    +0.000 N 
ATOM      7  C   UNL     1       4.182   5.799  17.756  0.00  0.00    +0.000 A 
ATOM      8  N   UNL     1       3.850   4.793  18.571  0.00  0.00    +0.000 NA
ATOM      9  C   UNL     1       2.747   4.932  19.341  0.00  0.00    +0.000 A 
ATOM     10  C   UNL     1       1.965   6.070  19.283  0.00  0.00    +0.000 A 
ATOM     11  C   UNL     1       2.382   7.076  18.439  0.00  0.00    +0.000 A 
ATOM     12  N   UNL     1       3.459   6.916  17.663  0.00  0.00    +0.000 NA
ATOM     13  C   UNL     1       5.636   6.770  16.035  0.00  0.00    +0.000 C 
ATOM     14  C   UNL     1       5.453   6.218  14.639  0.00  0.00    +0.000 C 
ENDROOT
BRANCH   9  15
ATOM     15  C   UNL     1       2.505   3.844  20.307  0.00  0.00    +0.000 A 
ATOM     16  C   UNL     1       1.272   3.629  20.938  0.00  0.00    +0.000 A 
ATOM     17  C   UNL     1       1.120   2.605  21.875  0.00  0.00    +0.000 A 
ATOM     18  C   UNL     1       2.213   1.810  22.168  0.00  0.00    +0.000 A 
ATOM     19  N   UNL     1       3.417   1.963  21.585  0.00  0.00    +0.000 NA
ATOM     20  C   UNL     1       3.528   2.963  20.672  0.00  0.00    +0.000 A 
ENDBRANCH   9  15
BRANCH  11  21
ATOM     21  N   UNL     1       1.773   8.337  18.510  0.00  0.00    +0.000 N 
ATOM     22  C   UNL     1       1.386   8.708  19.878  0.00  0.00    +0.000 C 
ATOM     23  C   UNL     1       0.353   9.822  19.765  0.00  0.00    +0.000 C 
ATOM     24  C   UNL     1       0.896  11.078  19.042  0.00  0.00    +0.000 C 
ATOM     25  C   UNL     1       1.579  10.623  17.714  0.00  0.00    +0.000 C 
ATOM     26  C   UNL     1       2.520   9.417  17.858  0.00  0.00    +0.000 C 
BRANCH  24  27
ATOM     27  N   UNL     1       1.803  11.957  19.828  0.00  0.00    +0.000 NA
ATOM     28  C   UNL     1       1.205  12.610  21.020  0.00  0.00    +0.000 C 
ATOM     29  C   UNL     1       0.232  13.759  20.703  0.00  0.00    +0.000 C 
ATOM     30  O   UNL     1       0.888  14.782  19.948  0.00  0.00    +0.000 OA
ATOM     31  C   UNL     1       1.408  14.242  18.729  0.00  0.00    +0.000 C 
ATOM     32  C   UNL     1       2.366  13.059  18.989  0.00  0.00    +0.000 C 
ENDBRANCH  24  27
ENDBRANCH  11  21
TORSDOF 3
ENDMDL
MODEL 6
REMARK VINA RESULT:      -6.7      5.277      8.210
REMARK  Name = 
REMARK  3 active torsions:
REMARK  status: ('A' for Active; 'I' for Inactive)
REMARK    1  A    between atoms: C_9  and  C_10
REMARK    2  A    between atoms: C_17  and  N_18
REMARK    3  A    between atoms: C_21  and  N_22
REMARK                            x       y       z     vdW  Elec       q    Type
REMARK                         _______ _______ _______ _____ _____    ______ ____
ROOT
ATOM      1  O   UNL     1      -6.424  12.043  24.517  0.00  0.00    +0.000 OA
ATOM      2  S   UNL     1      -6.149  13.075  23.534  0.00  0.00    +0.000 S 
ATOM      3  O   UNL     1      -6.916  14.308  23.540  0.00  0.00    +0.000 OA
ATOM      4  C   UNL     1      -6.276  12.340  21.920  0.00  0.00    +0.000 C 
ATOM      5  C   UNL     1      -5.683  13.274  20.885  0.00  0.00    +0.000 C 
ATOM      6  N   UNL     1      -4.303  13.589  21.227  0.00  0.00    +0.000 N 
ATOM      7  C   UNL     1      -3.246  13.108  20.490  0.00  0.00    +0.000 A 
ATOM      8  N   UNL     1      -3.474  12.331  19.427  0.00  0.00    +0.000 NA
ATOM      9  C   UNL     1      -2.414  11.938  18.685  0.00  0.00    +0.000 A 
ATOM     10  C   UNL     1      -1.124  12.308  19.015  0.00  0.00    +0.000 A 
ATOM     11  C   UNL     1      -0.968  13.130  20.110  0.00  0.00    +0.000 A 
ATOM     12  N   UNL     1      -2.020  13.490  20.852  0.00  0.00    +0.000 NA
ATOM     13  C   UNL     1      -4.051  14.338  22.455  0.00  0.00    +0.000 C 
ATOM     14  C   UNL     1      -4.426  13.488  23.648  0.00  0.00    +0.000 C 
ENDROOT
BRANCH   9  15
ATOM     15  C   UNL     1      -2.741  11.189  17.458  0.00  0.00    +0.000 A 
ATOM     16  C   UNL     1      -1.944  10.155  16.946  0.00  0.00    +0.000 A 
ATOM     17  C   UNL     1      -2.288   9.512  15.756  0.00  0.00    +0.000 A 
ATOM     18  C   UNL     1      -3.430   9.919  15.091  0.00  0.00    +0.000 A 
ATOM     19  N   UNL     1      -4.239  10.898  15.541  0.00  0.00    +0.000 NA
ATOM     20  C   UNL     1      -3.879  11.497  16.706  0.00  0.00    +0.000 A 
ENDBRANCH   9  15
BRANCH  11  21
ATOM     21  N   UNL     1       0.276  13.728  20.356  0.00  0.00    +0.000 N 
ATOM     22  C   UNL     1       1.120  13.805  19.155  0.00  0.00    +0.000 C 
ATOM     23  C   UNL     1       2.553  14.017  19.626  0.00  0.00    +0.000 C 
ATOM     24  C   UNL     1       2.732  15.317  20.446  0.00  0.00    +0.000 C 
ATOM     25  C   UNL     1       1.623  15.364  21.543  0.00  0.00    +0.000 C 
ATOM     26  C   UNL     1       0.212  15.023  21.041  0.00  0.00    +0.000 C 
BRANCH  24  27
ATOM     27  N   UNL     1       2.766  16.589  19.674  0.00  0.00    +0.000 NA
ATOM     28  C   UNL     1       3.638  16.600  18.472  0.00  0.00    +0.000 C 
ATOM     29  C   UNL     1       5.146  16.647  18.774  0.00  0.00    +0.000 C 
ATOM     30  O   UNL     1       5.471  17.812  19.539  0.00  0.00    +0.000 OA
ATOM     31  C   UNL     1       4.736  17.819  20.766  0.00  0.00    +0.000 C 
ATOM     32  C   UNL     1       3.213  17.736  20.522  0.00  0.00    +0.000 C 
ENDBRANCH  24  27
ENDBRANCH  11  21
TORSDOF 3
ENDMDL
MODEL 7
REMARK VINA RESULT:      -6.6      1.457      2.030
REMARK  Name = 
REMARK  3 active torsions:
REMARK  status: ('A' for Active; 'I' for Inactive)
REMARK    1  A    between atoms: C_9  and  C_10
REMARK    2  A    between atoms: C_17  and  N_18
REMARK    3  A    between atoms: C_21  and  N_22
REMARK                            x       y       z     vdW  Elec       q    Type
REMARK                         _______ _______ _______ _____ _____    ______ ____
ROOT
ATOM      1  O   UNL     1       3.362  16.319  21.133  0.00  0.00    +0.000 OA
ATOM      2  S   UNL     1       3.093  15.756  19.823  0.00  0.00    +0.000 S 
ATOM      3  O   UNL     1       3.727  16.322  18.645  0.00  0.00    +0.000 OA
ATOM      4  C   UNL     1       1.333  15.762  19.575  0.00  0.00    +0.000 C 
ATOM      5  C   UNL     1       0.982  14.895  18.384  0.00  0.00    +0.000 C 
ATOM      6  N   UNL     1       1.495  13.545  18.578  0.00  0.00    +0.000 N 
ATOM      7  C   UNL     1       0.658  12.480  18.811  0.00  0.00    +0.000 A 
ATOM      8  N   UNL     1      -0.664  12.668  18.862  0.00  0.00    +0.000 NA
ATOM      9  C   UNL     1      -1.458  11.585  19.020  0.00  0.00    +0.000 A 
ATOM     10  C   UNL     1      -0.930  10.314  19.145  0.00  0.00    +0.000 A 
ATOM     11  C   UNL     1       0.440  10.193  19.057  0.00  0.00    +0.000 A 
ATOM     12  N   UNL     1       1.217  11.274  18.928  0.00  0.00    +0.000 NA
ATOM     13  C   UNL     1       2.942  13.360  18.640  0.00  0.00    +0.000 C 
ATOM     14  C   UNL     1       3.480  14.024  19.887  0.00  0.00    +0.000 C 
ENDROOT
BRANCH   9  15
ATOM     15  C   UNL     1      -2.908  11.844  18.943  0.00  0.00    +0.000 A 
ATOM     16  C   UNL     1      -3.714  11.425  17.876  0.00  0.00    +0.000 A 
ATOM     17  C   UNL     1      -5.074  11.738  17.843  0.00  0.00    +0.000 A 
ATOM     18  C   UNL     1      -5.608  12.473  18.886  0.00  0.00    +0.000 A 
ATOM     19  N   UNL     1      -4.885  12.892  19.942  0.00  0.00    +0.000 NA
ATOM     20  C   UNL     1      -3.566  12.563  19.946  0.00  0.00    +0.000 A 
ENDBRANCH   9  15
BRANCH  11  21
ATOM     21  N   UNL     1       1.017   8.921  18.939  0.00  0.00    +0.000 N 
ATOM     22  C   UNL     1       1.803   8.763  17.707  0.00  0.00    +0.000 C 
ATOM     23  C   UNL     1       1.966   7.267  17.468  0.00  0.00    +0.000 C 
ATOM     24  C   UNL     1       2.701   6.548  18.625  0.00  0.00    +0.000 C 
ATOM     25  C   UNL     1       2.032   6.970  19.970  0.00  0.00    +0.000 C 
ATOM     26  C   UNL     1       1.776   8.478  20.113  0.00  0.00    +0.000 C 
BRANCH  24  27
ATOM     27  N   UNL     1       4.176   6.730  18.689  0.00  0.00    +0.000 NA
ATOM     28  C   UNL     1       4.872   6.880  17.386  0.00  0.00    +0.000 C 
ATOM     29  C   UNL     1       4.986   5.584  16.565  0.00  0.00    +0.000 C 
ATOM     30  O   UNL     1       5.688   4.579  17.303  0.00  0.00    +0.000 OA
ATOM     31  C   UNL     1       5.015   4.309  18.536  0.00  0.00    +0.000 C 
ATOM     32  C   UNL     1       4.842   5.587  19.386  0.00  0.00    +0.000 C 
ENDBRANCH  24  27
ENDBRANCH  11  21
TORSDOF 3
ENDMDL
MODEL 8
REMARK VINA RESULT:      -6.6      3.472      5.229
REMARK  Name = 
REMARK  3 active torsions:
REMARK  status: ('A' for Active; 'I' for Inactive)
REMARK    1  A    between atoms: C_9  and  C_10
REMARK    2  A    between atoms: C_17  and  N_18
REMARK    3  A    between atoms: C_21  and  N_22
REMARK                            x       y       z     vdW  Elec       q    Type
REMARK                         _______ _______ _______ _____ _____    ______ ____
ROOT
ATOM      1  O   UNL     1      -4.557  14.323  22.518  0.00  0.00    +0.000 OA
ATOM      2  S   UNL     1      -3.321  13.828  23.095  0.00  0.00    +0.000 S 
ATOM      3  O   UNL     1      -3.195  13.690  24.535  0.00  0.00    +0.000 OA
ATOM      4  C   UNL     1      -1.993  14.855  22.510  0.00  0.00    +0.000 C 
ATOM      5  C   UNL     1      -0.665  14.193  22.809  0.00  0.00    +0.000 C 
ATOM      6  N   UNL     1      -0.621  12.864  22.215  0.00  0.00    +0.000 N 
ATOM      7  C   UNL     1       0.187  12.578  21.139  0.00  0.00    +0.000 A 
ATOM      8  N   UNL     1       0.961  13.533  20.615  0.00  0.00    +0.000 NA
ATOM      9  C   UNL     1       1.795  13.195  19.605  0.00  0.00    +0.000 A 
ATOM     10  C   UNL     1       1.844  11.907  19.108  0.00  0.00    +0.000 A 
ATOM     11  C   UNL     1       1.036  10.970  19.715  0.00  0.00    +0.000 A 
ATOM     12  N   UNL     1       0.195  11.321  20.694  0.00  0.00    +0.000 NA
ATOM     13  C   UNL     1      -1.553  11.855  22.712  0.00  0.00    +0.000 C 
ATOM     14  C   UNL     1      -2.965  12.256  22.350  0.00  0.00    +0.000 C 
ENDROOT
BRANCH   9  15
ATOM     15  C   UNL     1       2.711  14.260  19.155  0.00  0.00    +0.000 A 
ATOM     16  C   UNL     1       2.788  14.704  17.827  0.00  0.00    +0.000 A 
ATOM     17  C   UNL     1       3.706  15.689  17.457  0.00  0.00    +0.000 A 
ATOM     18  C   UNL     1       4.539  16.214  18.428  0.00  0.00    +0.000 A 
ATOM     19  N   UNL     1       4.501  15.834  19.720  0.00  0.00    +0.000 NA
ATOM     20  C   UNL     1       3.591  14.880  20.047  0.00  0.00    +0.000 A 
ENDBRANCH   9  15
BRANCH  11  21
ATOM     21  N   UNL     1       1.209   9.610  19.420  0.00  0.00    +0.000 N 
ATOM     22  C   UNL     1       2.062   9.385  18.245  0.00  0.00    +0.000 C 
ATOM     23  C   UNL     1       1.793   7.966  17.760  0.00  0.00    +0.000 C 
ATOM     24  C   UNL     1       2.119   6.893  18.826  0.00  0.00    +0.000 C 
ATOM     25  C   UNL     1       1.441   7.311  20.168  0.00  0.00    +0.000 C 
ATOM     26  C   UNL     1       1.640   8.785  20.553  0.00  0.00    +0.000 C 
BRANCH  24  27
ATOM     27  N   UNL     1       3.558   6.580  19.036  0.00  0.00    +0.000 NA
ATOM     28  C   UNL     1       4.365   6.365  17.808  0.00  0.00    +0.000 C 
ATOM     29  C   UNL     1       4.096   5.031  17.089  0.00  0.00    +0.000 C 
ATOM     30  O   UNL     1       4.355   3.927  17.960  0.00  0.00    +0.000 OA
ATOM     31  C   UNL     1       3.535   4.016  19.130  0.00  0.00    +0.000 C 
ATOM     32  C   UNL     1       3.739   5.354  19.872  0.00  0.00    +0.000 C 
ENDBRANCH  24  27
ENDBRANCH  11  21
TORSDOF 3
ENDMDL
MODEL 9
REMARK VINA RESULT:      -6.6      3.776      9.478
REMARK  Name = 
REMARK  3 active torsions:
REMARK  status: ('A' for Active; 'I' for Inactive)
REMARK    1  A    between atoms: C_9  and  C_10
REMARK    2  A    between atoms: C_17  and  N_18
REMARK    3  A    between atoms: C_21  and  N_22
REMARK                            x       y       z     vdW  Elec       q    Type
REMARK                         _______ _______ _______ _____ _____    ______ ____
ROOT
ATOM      1  O   UNL     1       5.886   4.267  13.198  0.00  0.00    +0.000 OA
ATOM      2  S   UNL     1       6.405   4.800  14.444  0.00  0.00    +0.000 S 
ATOM      3  O   UNL     1       7.822   5.092  14.577  0.00  0.00    +0.000 OA
ATOM      4  C   UNL     1       5.933   3.693  15.752  0.00  0.00    +0.000 C 
ATOM      5  C   UNL     1       6.157   4.360  17.093  0.00  0.00    +0.000 C 
ATOM      6  N   UNL     1       5.422   5.615  17.157  0.00  0.00    +0.000 N 
ATOM      7  C   UNL     1       4.320   5.768  17.967  0.00  0.00    +0.000 A 
ATOM      8  N   UNL     1       3.902   4.749  18.722  0.00  0.00    +0.000 NA
ATOM      9  C   UNL     1       2.861   4.960  19.559  0.00  0.00    +0.000 A 
ATOM     10  C   UNL     1       2.226   6.186  19.628  0.00  0.00    +0.000 A 
ATOM     11  C   UNL     1       2.728   7.197  18.838  0.00  0.00    +0.000 A 
ATOM     12  N   UNL     1       3.740   6.969  17.995  0.00  0.00    +0.000 NA
ATOM     13  C   UNL     1       5.807   6.688  16.245  0.00  0.00    +0.000 C 
ATOM     14  C   UNL     1       5.493   6.276  14.824  0.00  0.00    +0.000 C 
ENDROOT
BRANCH   9  15
ATOM     15  C   UNL     1       2.527   3.836  20.455  0.00  0.00    +0.000 A 
ATOM     16  C   UNL     1       1.256   3.641  21.011  0.00  0.00    +0.000 A 
ATOM     17  C   UNL     1       1.016   2.579  21.885  0.00  0.00    +0.000 A 
ATOM     18  C   UNL     1       2.061   1.726  22.192  0.00  0.00    +0.000 A 
ATOM     19  N   UNL     1       3.299   1.859  21.679  0.00  0.00    +0.000 NA
ATOM     20  C   UNL     1       3.496   2.898  20.826  0.00  0.00    +0.000 A 
ENDBRANCH   9  15
BRANCH  11  21
ATOM     21  N   UNL     1       2.287   8.513  19.034  0.00  0.00    +0.000 N 
ATOM     22  C   UNL     1       1.837   9.155  17.791  0.00  0.00    +0.000 C 
ATOM     23  C   UNL     1       1.840  10.659  18.036  0.00  0.00    +0.000 C 
ATOM     24  C   UNL     1       0.898  11.084  19.187  0.00  0.00    +0.000 C 
ATOM     25  C   UNL     1       1.189  10.176  20.422  0.00  0.00    +0.000 C 
ATOM     26  C   UNL     1       1.297   8.677  20.103  0.00  0.00    +0.000 C 
BRANCH  24  27
ATOM     27  N   UNL     1      -0.558  11.107  18.879  0.00  0.00    +0.000 NA
ATOM     28  C   UNL     1      -1.045  12.285  18.118  0.00  0.00    +0.000 C 
ATOM     29  C   UNL     1      -1.113  13.591  18.929  0.00  0.00    +0.000 C 
ATOM     30  O   UNL     1      -1.973  13.437  20.062  0.00  0.00    +0.000 OA
ATOM     31  C   UNL     1      -1.506  12.375  20.899  0.00  0.00    +0.000 C 
ATOM     32  C   UNL     1      -1.385  11.045  20.123  0.00  0.00    +0.000 C 
ENDBRANCH  24  27
ENDBRANCH  11  21
TORSDOF 3
ENDMDL
