MODEL 1
REMARK VINA RESULT:      -7.7      0.000      0.000
REMARK  Name = 
REMARK  4 active torsions:
REMARK  status: ('A' for Active; 'I' for Inactive)
REMARK    1  A    between atoms: C_1  and  N_2
REMARK    2  A    between atoms: N_6  and  C_7
REMARK    3  A    between atoms: C_7  and  C_8
REMARK    4  A    between atoms: C_20  and  C_21
REMARK                            x       y       z     vdW  Elec       q    Type
REMARK                         _______ _______ _______ _____ _____    ______ ____
ROOT
ATOM      1  C   UNL     1       8.639   8.573  18.788  0.00  0.00    +0.000 C 
ATOM      2  N   UNL     1       8.053   8.310  17.496  0.00  0.00    +0.000 N 
ATOM      3  C   UNL     1       7.302   7.150  17.397  0.00  0.00    +0.000 A 
ATOM      4  N   UNL     1       6.714   6.640  18.472  0.00  0.00    +0.000 NA
ATOM      5  C   UNL     1       5.906   5.612  18.278  0.00  0.00    +0.000 A 
ATOM      6  N   UNL     1       5.303   5.073  19.406  0.00  0.00    +0.000 N 
ATOM      7  N   UNL     1       5.714   5.051  17.099  0.00  0.00    +0.000 NA
ATOM      8  C   UNL     1       6.429   5.552  16.087  0.00  0.00    +0.000 A 
ATOM      9  N   UNL     1       6.372   4.848  14.847  0.00  0.00    +0.000 N 
ATOM     10  C   UNL     1       5.628   3.725  14.582  0.00  0.00    +0.000 A 
ATOM     11  N   UNL     1       5.872   3.287  13.368  0.00  0.00    +0.000 NA
ATOM     12  C   UNL     1       6.796   4.180  12.905  0.00  0.00    +0.000 A 
ATOM     13  C   UNL     1       7.416   4.040  11.573  0.00  0.00    +0.000 C 
ATOM     14  N   UNL     1       7.121   5.162  13.754  0.00  0.00    +0.000 NA
ATOM     15  N   UNL     1       7.224   6.618  16.189  0.00  0.00    +0.000 NA
ATOM     16  H   UNL     1       8.674   8.352  16.695  0.00  0.00    +0.000 HD
ATOM     17  H   UNL     1       6.017   4.517  19.868  0.00  0.00    +0.000 HD
ENDROOT
BRANCH   6  18
ATOM     18  C   UNL     1       4.014   4.361  19.262  0.00  0.00    +0.000 C 
ATOM     19  C   UNL     1       3.367   4.870  17.946  0.00  0.00    +0.000 C 
ATOM     20  C   UNL     1       2.153   4.043  17.509  0.00  0.00    +0.000 C 
ATOM     21  C   UNL     1       2.484   2.559  17.405  0.00  0.00    +0.000 C 
ATOM     22  C   UNL     1       3.100   2.023  18.690  0.00  0.00    +0.000 C 
ATOM     23  C   UNL     1       4.313   2.847  19.118  0.00  0.00    +0.000 C 
BRANCH  18  24
ATOM     24  C   UNL     1       3.042   4.623  20.365  0.00  0.00    +0.000 C 
ATOM     25  N   UNL     1       2.266   4.794  21.216  0.00  0.00    +0.000 NA
ENDBRANCH  18  24
ENDBRANCH   6  18
TORSDOF 2
ENDMDL
MODEL 2
REMARK VINA RESULT:      -7.7      3.112      6.649
REMARK  Name = 
REMARK  4 active torsions:
REMARK  status: ('A' for Active; 'I' for Inactive)
REMARK    1  A    between atoms: C_1  and  N_2
REMARK    2  A    between atoms: N_6  and  C_7
REMARK    3  A    between atoms: C_7  and  C_8
REMARK    4  A    between atoms: C_20  and  C_21
REMARK                            x       y       z     vdW  Elec       q    Type
REMARK                         _______ _______ _______ _____ _____    ______ ____
ROOT
ATOM      1  C   UNL     1       2.276   3.338  21.854  0.00  0.00    +0.000 C 
ATOM      2  N   UNL     1       1.558   4.253  20.998  0.00  0.00    +0.000 N 
ATOM      3  C   UNL     1       2.340   5.081  20.209  0.00  0.00    +0.000 A 
ATOM      4  N   UNL     1       3.561   4.705  19.848  0.00  0.00    +0.000 NA
ATOM      5  C   UNL     1       4.193   5.482  18.986  0.00  0.00    +0.000 A 
ATOM      6  N   UNL     1       5.474   5.093  18.621  0.00  0.00    +0.000 N 
ATOM      7  N   UNL     1       3.697   6.616  18.531  0.00  0.00    +0.000 NA
ATOM      8  C   UNL     1       2.511   6.981  19.029  0.00  0.00    +0.000 A 
ATOM      9  N   UNL     1       2.041   8.285  18.688  0.00  0.00    +0.000 N 
ATOM     10  C   UNL     1       2.673   9.190  17.871  0.00  0.00    +0.000 A 
ATOM     11  N   UNL     1       2.008  10.322  17.838  0.00  0.00    +0.000 NA
ATOM     12  C   UNL     1       0.952  10.077  18.669  0.00  0.00    +0.000 A 
ATOM     13  C   UNL     1      -0.047  11.115  18.987  0.00  0.00    +0.000 C 
ATOM     14  N   UNL     1       0.911   8.847  19.196  0.00  0.00    +0.000 NA
ATOM     15  N   UNL     1       1.786   6.230  19.860  0.00  0.00    +0.000 NA
ATOM     16  H   UNL     1       0.841   4.820  21.436  0.00  0.00    +0.000 HD
ATOM     17  H   UNL     1       6.077   5.342  19.400  0.00  0.00    +0.000 HD
ENDROOT
BRANCH   6  18
ATOM     18  C   UNL     1       6.010   5.520  17.310  0.00  0.00    +0.000 C 
ATOM     19  C   UNL     1       7.056   4.453  16.886  0.00  0.00    +0.000 C 
ATOM     20  C   UNL     1       7.514   4.601  15.431  0.00  0.00    +0.000 C 
ATOM     21  C   UNL     1       6.338   4.613  14.462  0.00  0.00    +0.000 C 
ATOM     22  C   UNL     1       5.303   5.666  14.838  0.00  0.00    +0.000 C 
ATOM     23  C   UNL     1       4.845   5.511  16.287  0.00  0.00    +0.000 C 
BRANCH  18  24
ATOM     24  C   UNL     1       6.707   6.840  17.332  0.00  0.00    +0.000 C 
ATOM     25  N   UNL     1       7.285   7.850  17.348  0.00  0.00    +0.000 NA
ENDBRANCH  18  24
ENDBRANCH   6  18
TORSDOF 2
ENDMDL
MODEL 3
REMARK VINA RESULT:      -7.6      1.008      1.380
REMARK  Name = 
REMARK  4 active torsions:
REMARK  status: ('A' for Active; 'I' for Inactive)
REMARK    1  A    between atoms: C_1  and  N_2
REMARK    2  A    between atoms: N_6  and  C_7
REMARK    3  A    between atoms: C_7  and  C_8
REMARK    4  A    between atoms: C_20  and  C_21
REMARK                            x       y       z     vdW  Elec       q    Type
REMARK                         _______ _______ _______ _____ _____    ______ ____
ROOT
ATOM      1  C   UNL     1       8.626   8.675  18.735  0.00  0.00    +0.000 C 
ATOM      2  N   UNL     1       8.007   8.396  17.461  0.00  0.00    +0.000 N 
ATOM      3  C   UNL     1       7.370   7.171  17.353  0.00  0.00    +0.000 A 
ATOM      4  N   UNL     1       6.887   6.570  18.435  0.00  0.00    +0.000 NA
ATOM      5  C   UNL     1       6.176   5.474  18.239  0.00  0.00    +0.000 A 
ATOM      6  N   UNL     1       5.683   4.842  19.372  0.00  0.00    +0.000 N 
ATOM      7  N   UNL     1       5.984   4.935  17.051  0.00  0.00    +0.000 NA
ATOM      8  C   UNL     1       6.597   5.536  16.027  0.00  0.00    +0.000 A 
ATOM      9  N   UNL     1       6.550   4.870  14.765  0.00  0.00    +0.000 N 
ATOM     10  C   UNL     1       5.909   3.687  14.492  0.00  0.00    +0.000 A 
ATOM     11  N   UNL     1       6.136   3.315  13.254  0.00  0.00    +0.000 NA
ATOM     12  C   UNL     1       6.945   4.310  12.783  0.00  0.00    +0.000 A 
ATOM     13  C   UNL     1       7.511   4.275  11.421  0.00  0.00    +0.000 C 
ATOM     14  N   UNL     1       7.212   5.292  13.652  0.00  0.00    +0.000 NA
ATOM     15  N   UNL     1       7.288   6.673  16.131  0.00  0.00    +0.000 NA
ATOM     16  H   UNL     1       8.582   8.526  16.636  0.00  0.00    +0.000 HD
ATOM     17  H   UNL     1       6.469   4.346  19.782  0.00  0.00    +0.000 HD
ENDROOT
BRANCH   6  18
ATOM     18  C   UNL     1       4.465   4.010  19.260  0.00  0.00    +0.000 C 
ATOM     19  C   UNL     1       3.334   4.772  20.004  0.00  0.00    +0.000 C 
ATOM     20  C   UNL     1       1.943   4.179  19.758  0.00  0.00    +0.000 C 
ATOM     21  C   UNL     1       1.626   4.068  18.272  0.00  0.00    +0.000 C 
ATOM     22  C   UNL     1       2.707   3.305  17.516  0.00  0.00    +0.000 C 
ATOM     23  C   UNL     1       4.091   3.903  17.759  0.00  0.00    +0.000 C 
BRANCH  18  24
ATOM     24  C   UNL     1       4.582   2.662  19.892  0.00  0.00    +0.000 C 
ATOM     25  N   UNL     1       4.710   1.610  20.372  0.00  0.00    +0.000 NA
ENDBRANCH  18  24
ENDBRANCH   6  18
TORSDOF 2
ENDMDL
MODEL 4
REMARK VINA RESULT:      -7.6      2.284      3.065
REMARK  Name = 
REMARK  4 active torsions:
REMARK  status: ('A' for Active; 'I' for Inactive)
REMARK    1  A    between atoms: C_1  and  N_2
REMARK    2  A    between atoms: N_6  and  C_7
REMARK    3  A    between atoms: C_7  and  C_8
REMARK    4  A    between atoms: C_20  and  C_21
REMARK                            x       y       z     vdW  Elec       q    Type
REMARK                         _______ _______ _______ _____ _____    ______ ____
ROOT
ATOM      1  C   UNL     1       1.991   9.755  18.595  0.00  0.00    +0.000 C 
ATOM      2  N   UNL     1       2.392   8.959  17.460  0.00  0.00    +0.000 N 
ATOM      3  C   UNL     1       2.943   7.722  17.753  0.00  0.00    +0.000 A 
ATOM      4  N   UNL     1       2.624   7.098  18.881  0.00  0.00    +0.000 NA
ATOM      5  C   UNL     1       3.080   5.866  19.029  0.00  0.00    +0.000 A 
ATOM      6  N   UNL     1       2.756   5.221  20.215  0.00  0.00    +0.000 N 
ATOM      7  N   UNL     1       3.867   5.273  18.153  0.00  0.00    +0.000 NA
ATOM      8  C   UNL     1       4.234   6.009  17.100  0.00  0.00    +0.000 A 
ATOM      9  N   UNL     1       5.225   5.451  16.236  0.00  0.00    +0.000 N 
ATOM     10  C   UNL     1       5.814   4.218  16.363  0.00  0.00    +0.000 A 
ATOM     11  N   UNL     1       6.742   4.054  15.448  0.00  0.00    +0.000 NA
ATOM     12  C   UNL     1       6.701   5.235  14.763  0.00  0.00    +0.000 A 
ATOM     13  C   UNL     1       7.636   5.528  13.660  0.00  0.00    +0.000 C 
ATOM     14  N   UNL     1       5.783   6.112  15.185  0.00  0.00    +0.000 NA
ATOM     15  N   UNL     1       3.778   7.237  16.850  0.00  0.00    +0.000 NA
ATOM     16  H   UNL     1       2.983   9.411  16.771  0.00  0.00    +0.000 HD
ATOM     17  H   UNL     1       3.369   5.612  20.924  0.00  0.00    +0.000 HD
ENDROOT
BRANCH   6  18
ATOM     18  C   UNL     1       2.704   3.743  20.239  0.00  0.00    +0.000 C 
ATOM     19  C   UNL     1       1.884   3.304  18.996  0.00  0.00    +0.000 C 
ATOM     20  C   UNL     1       1.958   1.798  18.724  0.00  0.00    +0.000 C 
ATOM     21  C   UNL     1       3.397   1.310  18.615  0.00  0.00    +0.000 C 
ATOM     22  C   UNL     1       4.225   1.706  19.831  0.00  0.00    +0.000 C 
ATOM     23  C   UNL     1       4.152   3.208  20.096  0.00  0.00    +0.000 C 
BRANCH  18  24
ATOM     24  C   UNL     1       2.028   3.172  21.442  0.00  0.00    +0.000 C 
ATOM     25  N   UNL     1       1.497   2.694  22.360  0.00  0.00    +0.000 NA
ENDBRANCH  18  24
ENDBRANCH   6  18
TORSDOF 2
ENDMDL
MODEL 5
REMARK VINA RESULT:      -7.5      1.083      1.854
REMARK  Name = 
REMARK  4 active torsions:
REMARK  status: ('A' for Active; 'I' for Inactive)
REMARK    1  A    between atoms: C_1  and  N_2
REMARK    2  A    between atoms: N_6  and  C_7
REMARK    3  A    between atoms: C_7  and  C_8
REMARK    4  A    between atoms: C_20  and  C_21
REMARK                            x       y       z     vdW  Elec       q    Type
REMARK                         _______ _______ _______ _____ _____    ______ ____
ROOT
ATOM      1  C   UNL     1       8.591   8.205  18.951  0.00  0.00    +0.000 C 
ATOM      2  N   UNL     1       8.013   8.030  17.640  0.00  0.00    +0.000 N 
ATOM      3  C   UNL     1       7.251   6.886  17.463  0.00  0.00    +0.000 A 
ATOM      4  N   UNL     1       6.648   6.317  18.500  0.00  0.00    +0.000 NA
ATOM      5  C   UNL     1       5.831   5.313  18.235  0.00  0.00    +0.000 A 
ATOM      6  N   UNL     1       5.213   4.711  19.323  0.00  0.00    +0.000 N 
ATOM      7  N   UNL     1       5.643   4.829  17.023  0.00  0.00    +0.000 NA
ATOM      8  C   UNL     1       6.372   5.383  16.049  0.00  0.00    +0.000 A 
ATOM      9  N   UNL     1       6.317   4.759  14.767  0.00  0.00    +0.000 N 
ATOM     10  C   UNL     1       5.564   3.663  14.426  0.00  0.00    +0.000 A 
ATOM     11  N   UNL     1       5.813   3.299  13.189  0.00  0.00    +0.000 NA
ATOM     12  C   UNL     1       6.751   4.209  12.790  0.00  0.00    +0.000 A 
ATOM     13  C   UNL     1       7.380   4.146  11.458  0.00  0.00    +0.000 C 
ATOM     14  N   UNL     1       7.078   5.133  13.702  0.00  0.00    +0.000 NA
ATOM     15  N   UNL     1       7.177   6.432  16.223  0.00  0.00    +0.000 NA
ATOM     16  H   UNL     1       8.641   8.115  16.848  0.00  0.00    +0.000 HD
ATOM     17  H   UNL     1       5.917   4.120  19.755  0.00  0.00    +0.000 HD
ENDROOT
BRANCH   6  18
ATOM     18  C   UNL     1       3.917   4.024  19.125  0.00  0.00    +0.000 C 
ATOM     19  C   UNL     1       3.388   3.655  20.538  0.00  0.00    +0.000 C 
ATOM     20  C   UNL     1       1.933   3.175  20.531  0.00  0.00    +0.000 C 
ATOM     21  C   UNL     1       1.005   4.179  19.857  0.00  0.00    +0.000 C 
ATOM     22  C   UNL     1       1.486   4.545  18.458  0.00  0.00    +0.000 C 
ATOM     23  C   UNL     1       2.935   5.029  18.471  0.00  0.00    +0.000 C 
BRANCH  18  24
ATOM     24  C   UNL     1       4.008   2.757  18.340  0.00  0.00    +0.000 C 
ATOM     25  N   UNL     1       4.047   1.757  17.748  0.00  0.00    +0.000 NA
ENDBRANCH  18  24
ENDBRANCH   6  18
TORSDOF 2
ENDMDL
MODEL 6
REMARK VINA RESULT:      -7.2      2.831      4.990
REMARK  Name = 
REMARK  4 active torsions:
REMARK  status: ('A' for Active; 'I' for Inactive)
REMARK    1  A    between atoms: C_1  and  N_2
REMARK    2  A    between atoms: N_6  and  C_7
REMARK    3  A    between atoms: C_7  and  C_8
REMARK    4  A    between atoms: C_20  and  C_21
REMARK                            x       y       z     vdW  Elec       q    Type
REMARK                         _______ _______ _______ _____ _____    ______ ____
ROOT
ATOM      1  C   UNL     1       6.706   4.785  14.249  0.00  0.00    +0.000 C 
ATOM      2  N   UNL     1       6.444   5.883  15.150  0.00  0.00    +0.000 N 
ATOM      3  C   UNL     1       5.437   5.675  16.079  0.00  0.00    +0.000 A 
ATOM      4  N   UNL     1       5.140   4.445  16.480  0.00  0.00    +0.000 NA
ATOM      5  C   UNL     1       4.266   4.335  17.465  0.00  0.00    +0.000 A 
ATOM      6  N   UNL     1       3.947   3.047  17.872  0.00  0.00    +0.000 N 
ATOM      7  N   UNL     1       3.650   5.367  18.008  0.00  0.00    +0.000 NA
ATOM      8  C   UNL     1       3.919   6.561  17.472  0.00  0.00    +0.000 A 
ATOM      9  N   UNL     1       3.133   7.663  17.924  0.00  0.00    +0.000 N 
ATOM     10  C   UNL     1       2.147   7.623  18.878  0.00  0.00    +0.000 A 
ATOM     11  N   UNL     1       1.568   8.796  18.992  0.00  0.00    +0.000 NA
ATOM     12  C   UNL     1       2.232   9.551  18.067  0.00  0.00    +0.000 A 
ATOM     13  C   UNL     1       1.865  10.955  17.799  0.00  0.00    +0.000 C 
ATOM     14  N   UNL     1       3.208   8.919  17.404  0.00  0.00    +0.000 NA
ATOM     15  N   UNL     1       4.826   6.764  16.515  0.00  0.00    +0.000 NA
ATOM     16  H   UNL     1       6.301   6.795  14.729  0.00  0.00    +0.000 HD
ATOM     17  H   UNL     1       3.312   2.679  17.170  0.00  0.00    +0.000 HD
ENDROOT
BRANCH   6  18
ATOM     18  C   UNL     1       3.475   2.826  19.257  0.00  0.00    +0.000 C 
ATOM     19  C   UNL     1       3.281   4.230  19.892  0.00  0.00    +0.000 C 
ATOM     20  C   UNL     1       2.544   4.190  21.234  0.00  0.00    +0.000 C 
ATOM     21  C   UNL     1       1.210   3.460  21.129  0.00  0.00    +0.000 C 
ATOM     22  C   UNL     1       1.369   2.069  20.530  0.00  0.00    +0.000 C 
ATOM     23  C   UNL     1       2.100   2.114  19.189  0.00  0.00    +0.000 C 
BRANCH  18  24
ATOM     24  C   UNL     1       4.436   2.077  20.121  0.00  0.00    +0.000 C 
ATOM     25  N   UNL     1       5.213   1.504  20.770  0.00  0.00    +0.000 NA
ENDBRANCH  18  24
ENDBRANCH   6  18
TORSDOF 2
ENDMDL
MODEL 7
REMARK VINA RESULT:      -7.2      1.022      1.309
REMARK  Name = 
REMARK  4 active torsions:
REMARK  status: ('A' for Active; 'I' for Inactive)
REMARK    1  A    between atoms: C_1  and  N_2
REMARK    2  A    between atoms: N_6  and  C_7
REMARK    3  A    between atoms: C_7  and  C_8
REMARK    4  A    between atoms: C_20  and  C_21
REMARK                            x       y       z     vdW  Elec       q    Type
REMARK                         _______ _______ _______ _____ _____    ______ ____
ROOT
ATOM      1  C   UNL     1       8.601   8.209  18.957  0.00  0.00    +0.000 C 
ATOM      2  N   UNL     1       8.078   8.043  17.622  0.00  0.00    +0.000 N 
ATOM      3  C   UNL     1       7.223   6.968  17.436  0.00  0.00    +0.000 A 
ATOM      4  N   UNL     1       6.518   6.491  18.455  0.00  0.00    +0.000 NA
ATOM      5  C   UNL     1       5.626   5.557  18.175  0.00  0.00    +0.000 A 
ATOM      6  N   UNL     1       4.899   5.050  19.244  0.00  0.00    +0.000 N 
ATOM      7  N   UNL     1       5.457   5.052  16.968  0.00  0.00    +0.000 NA
ATOM      8  C   UNL     1       6.284   5.505  16.021  0.00  0.00    +0.000 A 
ATOM      9  N   UNL     1       6.238   4.845  14.755  0.00  0.00    +0.000 N 
ATOM     10  C   UNL     1       5.405   3.812  14.406  0.00  0.00    +0.000 A 
ATOM     11  N   UNL     1       5.683   3.385  13.195  0.00  0.00    +0.000 NA
ATOM     12  C   UNL     1       6.720   4.193  12.822  0.00  0.00    +0.000 A 
ATOM     13  C   UNL     1       7.409   4.028  11.528  0.00  0.00    +0.000 C 
ATOM     14  N   UNL     1       7.084   5.113  13.723  0.00  0.00    +0.000 NA
ATOM     15  N   UNL     1       7.173   6.481  16.208  0.00  0.00    +0.000 NA
ATOM     16  H   UNL     1       8.752   8.044  16.864  0.00  0.00    +0.000 HD
ATOM     17  H   UNL     1       5.523   4.412  19.730  0.00  0.00    +0.000 HD
ENDROOT
BRANCH   6  18
ATOM     18  C   UNL     1       3.558   4.478  18.995  0.00  0.00    +0.000 C 
ATOM     19  C   UNL     1       3.758   3.271  18.039  0.00  0.00    +0.000 C 
ATOM     20  C   UNL     1       2.504   2.403  17.890  0.00  0.00    +0.000 C 
ATOM     21  C   UNL     1       1.973   1.935  19.240  0.00  0.00    +0.000 C 
ATOM     22  C   UNL     1       1.744   3.099  20.195  0.00  0.00    +0.000 C 
ATOM     23  C   UNL     1       2.999   3.958  20.345  0.00  0.00    +0.000 C 
BRANCH  18  24
ATOM     24  C   UNL     1       2.603   5.416  18.333  0.00  0.00    +0.000 C 
ATOM     25  N   UNL     1       1.881   6.145  17.785  0.00  0.00    +0.000 NA
ENDBRANCH  18  24
ENDBRANCH   6  18
TORSDOF 2
ENDMDL
MODEL 8
REMARK VINA RESULT:      -7.1      2.951      6.620
REMARK  Name = 
REMARK  4 active torsions:
REMARK  status: ('A' for Active; 'I' for Inactive)
REMARK    1  A    between atoms: C_1  and  N_2
REMARK    2  A    between atoms: N_6  and  C_7
REMARK    3  A    between atoms: C_7  and  C_8
REMARK    4  A    between atoms: C_20  and  C_21
REMARK                            x       y       z     vdW  Elec       q    Type
REMARK                         _______ _______ _______ _____ _____    ______ ____
ROOT
ATOM      1  C   UNL     1       1.698   2.713  21.975  0.00  0.00    +0.000 C 
ATOM      2  N   UNL     1       1.114   3.683  21.080  0.00  0.00    +0.000 N 
ATOM      3  C   UNL     1       2.010   4.469  20.372  0.00  0.00    +0.000 A 
ATOM      4  N   UNL     1       3.229   4.017  20.105  0.00  0.00    +0.000 NA
ATOM      5  C   UNL     1       3.979   4.762  19.311  0.00  0.00    +0.000 A 
ATOM      6  N   UNL     1       5.258   4.294  19.045  0.00  0.00    +0.000 N 
ATOM      7  N   UNL     1       3.596   5.932  18.838  0.00  0.00    +0.000 NA
ATOM      8  C   UNL     1       2.400   6.367  19.244  0.00  0.00    +0.000 A 
ATOM      9  N   UNL     1       2.044   7.704  18.889  0.00  0.00    +0.000 N 
ATOM     10  C   UNL     1       2.798   8.575  18.143  0.00  0.00    +0.000 A 
ATOM     11  N   UNL     1       2.213   9.749  18.075  0.00  0.00    +0.000 NA
ATOM     12  C   UNL     1       1.078   9.563  18.813  0.00  0.00    +0.000 A 
ATOM     13  C   UNL     1       0.125  10.660  19.067  0.00  0.00    +0.000 C 
ATOM     14  N   UNL     1       0.914   8.333  19.314  0.00  0.00    +0.000 NA
ATOM     15  N   UNL     1       1.562   5.656  19.999  0.00  0.00    +0.000 NA
ATOM     16  H   UNL     1       0.401   4.291  21.468  0.00  0.00    +0.000 HD
ATOM     17  H   UNL     1       5.809   4.494  19.874  0.00  0.00    +0.000 HD
ENDROOT
BRANCH   6  18
ATOM     18  C   UNL     1       5.927   4.701  17.789  0.00  0.00    +0.000 C 
ATOM     19  C   UNL     1       5.263   3.888  16.646  0.00  0.00    +0.000 C 
ATOM     20  C   UNL     1       5.653   4.380  15.248  0.00  0.00    +0.000 C 
ATOM     21  C   UNL     1       5.382   5.869  15.073  0.00  0.00    +0.000 C 
ATOM     22  C   UNL     1       6.039   6.699  16.169  0.00  0.00    +0.000 C 
ATOM     23  C   UNL     1       5.643   6.208  17.560  0.00  0.00    +0.000 C 
BRANCH  18  24
ATOM     24  C   UNL     1       7.391   4.409  17.751  0.00  0.00    +0.000 C 
ATOM     25  N   UNL     1       8.527   4.161  17.754  0.00  0.00    +0.000 NA
ENDBRANCH  18  24
ENDBRANCH   6  18
TORSDOF 2
ENDMDL
MODEL 9
REMARK VINA RESULT:      -6.9      9.651     12.642
REMARK  Name = 
REMARK  4 active torsions:
REMARK  status: ('A' for Active; 'I' for Inactive)
REMARK    1  A    between atoms: C_1  and  N_2
REMARK    2  A    between atoms: N_6  and  C_7
REMARK    3  A    between atoms: C_7  and  C_8
REMARK    4  A    between atoms: C_20  and  C_21
REMARK                            x       y       z     vdW  Elec       q    Type
REMARK                         _______ _______ _______ _____ _____    ______ ____
ROOT
ATOM      1  C   UNL     1      -3.422   9.958  14.760  0.00  0.00    +0.000 C 
ATOM      2  N   UNL     1      -4.157  10.857  15.618  0.00  0.00    +0.000 N 
ATOM      3  C   UNL     1      -3.533  11.206  16.805  0.00  0.00    +0.000 A 
ATOM      4  N   UNL     1      -2.208  11.190  16.894  0.00  0.00    +0.000 NA
ATOM      5  C   UNL     1      -1.681  11.665  18.009  0.00  0.00    +0.000 A 
ATOM      6  N   UNL     1      -0.296  11.635  18.104  0.00  0.00    +0.000 N 
ATOM      7  N   UNL     1      -2.400  12.084  19.032  0.00  0.00    +0.000 NA
ATOM      8  C   UNL     1      -3.726  11.961  18.907  0.00  0.00    +0.000 A 
ATOM      9  N   UNL     1      -4.511  12.240  20.067  0.00  0.00    +0.000 N 
ATOM     10  C   UNL     1      -4.041  12.654  21.288  0.00  0.00    +0.000 A 
ATOM     11  N   UNL     1      -5.023  12.737  22.156  0.00  0.00    +0.000 NA
ATOM     12  C   UNL     1      -6.108  12.353  21.420  0.00  0.00    +0.000 A 
ATOM     13  C   UNL     1      -7.452  12.236  22.017  0.00  0.00    +0.000 C 
ATOM     14  N   UNL     1      -5.859  12.061  20.138  0.00  0.00    +0.000 NA
ATOM     15  N   UNL     1      -4.337  11.543  17.798  0.00  0.00    +0.000 NA
ATOM     16  H   UNL     1      -5.117  10.604  15.829  0.00  0.00    +0.000 HD
ATOM     17  H   UNL     1      -0.050  10.671  18.310  0.00  0.00    +0.000 HD
ENDROOT
BRANCH   6  18
ATOM     18  C   UNL     1       0.386  12.612  18.981  0.00  0.00    +0.000 C 
ATOM     19  C   UNL     1       1.863  12.682  18.506  0.00  0.00    +0.000 C 
ATOM     20  C   UNL     1       2.645  13.840  19.134  0.00  0.00    +0.000 C 
ATOM     21  C   UNL     1       1.949  15.179  18.920  0.00  0.00    +0.000 C 
ATOM     22  C   UNL     1       0.502  15.150  19.397  0.00  0.00    +0.000 C 
ATOM     23  C   UNL     1      -0.275  13.997  18.764  0.00  0.00    +0.000 C 
BRANCH  18  24
ATOM     24  C   UNL     1       0.401  12.234  20.425  0.00  0.00    +0.000 C 
ATOM     25  N   UNL     1       0.374  11.941  21.551  0.00  0.00    +0.000 NA
ENDBRANCH  18  24
ENDBRANCH   6  18
TORSDOF 2
ENDMDL
