MODEL 1
REMARK VINA RESULT:      -6.7      0.000      0.000
REMARK  Name = 
REMARK  3 active torsions:
REMARK  status: ('A' for Active; 'I' for Inactive)
REMARK    1  A    between atoms: C_2  and  C_11
REMARK    2  A    between atoms: N_3  and  C_4
REMARK    3  A    between atoms: C_7  and  O_8
REMARK                            x       y       z     vdW  Elec       q    Type
REMARK                         _______ _______ _______ _____ _____    ______ ____
ROOT
ATOM      1  O   UNL     1       4.900   4.635  15.733  0.00  0.00    +0.000 OA
ATOM      2  C   UNL     1       4.962   4.849  16.942  0.00  0.00    +0.000 C 
ATOM      3  N   UNL     1       3.981   4.415  17.809  0.00  0.00    +0.000 N 
ATOM      4  H   UNL     1       4.129   4.573  18.799  0.00  0.00    +0.000 HD
ENDROOT
BRANCH   3   5
ATOM      5  C   UNL     1       2.859   3.607  17.329  0.00  0.00    +0.000 C 
ATOM      6  C   UNL     1       1.507   4.136  17.809  0.00  0.00    +0.000 C 
ATOM      7  C   UNL     1       1.296   3.952  19.306  0.00  0.00    +0.000 C 
ATOM      8  C   UNL     1       1.598   2.538  19.804  0.00  0.00    +0.000 C 
ATOM      9  C   UNL     1       2.853   1.898  19.210  0.00  0.00    +0.000 C 
ATOM     10  C   UNL     1       3.007   2.129  17.712  0.00  0.00    +0.000 C 
BRANCH   8  11
ATOM     11  O   UNL     1       1.732   2.578  21.226  0.00  0.00    +0.000 OA
ATOM     12  H   UNL     1       2.601   2.201  21.455  0.00  0.00    +0.000 HD
ENDBRANCH   8  11
ENDBRANCH   3   5
BRANCH   2  13
ATOM     13  C   UNL     1       6.075   5.571  17.523  0.00  0.00    +0.000 A 
ATOM     14  C   UNL     1       7.000   5.150  18.462  0.00  0.00    +0.000 A 
ATOM     15  C   UNL     1       7.863   6.243  18.713  0.00  0.00    +0.000 A 
ATOM     16  C   UNL     1       7.416   7.266  17.909  0.00  0.00    +0.000 A 
ATOM     17 BR   UNL     1       8.179   8.968  17.846  0.00  0.00    +0.000 Br
ATOM     18  O   UNL     1       6.336   6.870  17.176  0.00  0.00    +0.000 OA
ENDBRANCH   2  13
TORSDOF 3
ENDMDL
MODEL 2
REMARK VINA RESULT:      -6.6      2.811      3.554
REMARK  Name = 
REMARK  3 active torsions:
REMARK  status: ('A' for Active; 'I' for Inactive)
REMARK    1  A    between atoms: C_2  and  C_11
REMARK    2  A    between atoms: N_3  and  C_4
REMARK    3  A    between atoms: C_7  and  O_8
REMARK                            x       y       z     vdW  Elec       q    Type
REMARK                         _______ _______ _______ _____ _____    ______ ____
ROOT
ATOM      1  O   UNL     1       6.634   4.386  18.669  0.00  0.00    +0.000 OA
ATOM      2  C   UNL     1       5.804   4.332  17.763  0.00  0.00    +0.000 C 
ATOM      3  N   UNL     1       4.459   4.163  18.019  0.00  0.00    +0.000 N 
ATOM      4  H   UNL     1       3.827   4.190  17.226  0.00  0.00    +0.000 HD
ENDROOT
BRANCH   3   5
ATOM      5  C   UNL     1       3.955   4.122  19.391  0.00  0.00    +0.000 C 
ATOM      6  C   UNL     1       3.860   2.698  19.939  0.00  0.00    +0.000 C 
ATOM      7  C   UNL     1       2.765   1.877  19.270  0.00  0.00    +0.000 C 
ATOM      8  C   UNL     1       1.412   2.586  19.205  0.00  0.00    +0.000 C 
ATOM      9  C   UNL     1       1.476   4.068  18.833  0.00  0.00    +0.000 C 
ATOM     10  C   UNL     1       2.600   4.826  19.529  0.00  0.00    +0.000 C 
BRANCH   8  11
ATOM     11  O   UNL     1       0.590   1.909  18.254  0.00  0.00    +0.000 OA
ATOM     12  H   UNL     1       0.310   2.559  17.584  0.00  0.00    +0.000 HD
ENDBRANCH   8  11
ENDBRANCH   3   5
BRANCH   2  13
ATOM     13  C   UNL     1       6.197   4.445  16.374  0.00  0.00    +0.000 A 
ATOM     14  C   UNL     1       7.150   5.265  15.796  0.00  0.00    +0.000 A 
ATOM     15  C   UNL     1       7.127   5.010  14.403  0.00  0.00    +0.000 A 
ATOM     16  C   UNL     1       6.162   4.048  14.215  0.00  0.00    +0.000 A 
ATOM     17 BR   UNL     1       5.688   3.341  12.554  0.00  0.00    +0.000 Br
ATOM     18  O   UNL     1       5.594   3.690  15.403  0.00  0.00    +0.000 OA
ENDBRANCH   2  13
TORSDOF 3
ENDMDL
MODEL 3
REMARK VINA RESULT:      -6.4      3.847      5.638
REMARK  Name = 
REMARK  3 active torsions:
REMARK  status: ('A' for Active; 'I' for Inactive)
REMARK    1  A    between atoms: C_2  and  C_11
REMARK    2  A    between atoms: N_3  and  C_4
REMARK    3  A    between atoms: C_7  and  O_8
REMARK                            x       y       z     vdW  Elec       q    Type
REMARK                         _______ _______ _______ _____ _____    ______ ____
ROOT
ATOM      1  O   UNL     1       2.705   5.683  20.035  0.00  0.00    +0.000 OA
ATOM      2  C   UNL     1       3.032   6.385  19.080  0.00  0.00    +0.000 C 
ATOM      3  N   UNL     1       4.031   6.005  18.208  0.00  0.00    +0.000 N 
ATOM      4  H   UNL     1       4.205   6.605  17.409  0.00  0.00    +0.000 HD
ENDROOT
BRANCH   3   5
ATOM      5  C   UNL     1       4.689   4.706  18.339  0.00  0.00    +0.000 C 
ATOM      6  C   UNL     1       6.151   4.829  18.771  0.00  0.00    +0.000 C 
ATOM      7  C   UNL     1       7.040   5.426  17.689  0.00  0.00    +0.000 C 
ATOM      8  C   UNL     1       6.873   4.768  16.318  0.00  0.00    +0.000 C 
ATOM      9  C   UNL     1       5.429   4.462  15.920  0.00  0.00    +0.000 C 
ATOM     10  C   UNL     1       4.593   3.878  17.052  0.00  0.00    +0.000 C 
BRANCH   8  11
ATOM     11  O   UNL     1       7.449   5.625  15.331  0.00  0.00    +0.000 OA
ATOM     12  H   UNL     1       7.187   6.540  15.539  0.00  0.00    +0.000 HD
ENDBRANCH   8  11
ENDBRANCH   3   5
BRANCH   2  13
ATOM     13  C   UNL     1       2.382   7.653  18.821  0.00  0.00    +0.000 A 
ATOM     14  C   UNL     1       2.424   8.444  17.686  0.00  0.00    +0.000 A 
ATOM     15  C   UNL     1       1.641   9.593  17.953  0.00  0.00    +0.000 A 
ATOM     16  C   UNL     1       1.167   9.433  19.234  0.00  0.00    +0.000 A 
ATOM     17 BR   UNL     1       0.085  10.670  20.119  0.00  0.00    +0.000 Br
ATOM     18  O   UNL     1       1.603   8.257  19.771  0.00  0.00    +0.000 OA
ENDBRANCH   2  13
TORSDOF 3
ENDMDL
MODEL 4
REMARK VINA RESULT:      -6.4      2.719      3.429
REMARK  Name = 
REMARK  3 active torsions:
REMARK  status: ('A' for Active; 'I' for Inactive)
REMARK    1  A    between atoms: C_2  and  C_11
REMARK    2  A    between atoms: N_3  and  C_4
REMARK    3  A    between atoms: C_7  and  O_8
REMARK                            x       y       z     vdW  Elec       q    Type
REMARK                         _______ _______ _______ _____ _____    ______ ____
ROOT
ATOM      1  O   UNL     1       7.197   4.579  18.061  0.00  0.00    +0.000 OA
ATOM      2  C   UNL     1       6.298   4.283  17.276  0.00  0.00    +0.000 C 
ATOM      3  N   UNL     1       5.057   3.872  17.715  0.00  0.00    +0.000 N 
ATOM      4  H   UNL     1       4.346   3.703  17.011  0.00  0.00    +0.000 HD
ENDROOT
BRANCH   3   5
ATOM      5  C   UNL     1       4.734   3.848  19.141  0.00  0.00    +0.000 C 
ATOM      6  C   UNL     1       4.308   2.460  19.623  0.00  0.00    +0.000 C 
ATOM      7  C   UNL     1       2.953   2.033  19.076  0.00  0.00    +0.000 C 
ATOM      8  C   UNL     1       1.858   3.088  19.242  0.00  0.00    +0.000 C 
ATOM      9  C   UNL     1       2.292   4.523  18.940  0.00  0.00    +0.000 C 
ATOM     10  C   UNL     1       3.661   4.880  19.507  0.00  0.00    +0.000 C 
BRANCH   8  11
ATOM     11  O   UNL     1       0.768   2.749  18.384  0.00  0.00    +0.000 OA
ATOM     12  H   UNL     1       0.884   1.823  18.103  0.00  0.00    +0.000 HD
ENDBRANCH   8  11
ENDBRANCH   3   5
BRANCH   2  13
ATOM     13  C   UNL     1       6.496   4.354  15.843  0.00  0.00    +0.000 A 
ATOM     14  C   UNL     1       5.864   3.649  14.834  0.00  0.00    +0.000 A 
ATOM     15  C   UNL     1       6.442   4.067  13.611  0.00  0.00    +0.000 A 
ATOM     16  C   UNL     1       7.392   5.003  13.948  0.00  0.00    +0.000 A 
ATOM     17 BR   UNL     1       8.487   5.881  12.717  0.00  0.00    +0.000 Br
ATOM     18  O   UNL     1       7.432   5.193  15.298  0.00  0.00    +0.000 OA
ENDBRANCH   2  13
TORSDOF 3
ENDMDL
MODEL 5
REMARK VINA RESULT:      -6.3      2.745      3.477
REMARK  Name = 
REMARK  3 active torsions:
REMARK  status: ('A' for Active; 'I' for Inactive)
REMARK    1  A    between atoms: C_2  and  C_11
REMARK    2  A    between atoms: N_3  and  C_4
REMARK    3  A    between atoms: C_7  and  O_8
REMARK                            x       y       z     vdW  Elec       q    Type
REMARK                         _______ _______ _______ _____ _____    ______ ____
ROOT
ATOM      1  O   UNL     1       6.142   4.115  19.034  0.00  0.00    +0.000 OA
ATOM      2  C   UNL     1       5.180   4.395  18.321  0.00  0.00    +0.000 C 
ATOM      3  N   UNL     1       3.888   4.374  18.803  0.00  0.00    +0.000 N 
ATOM      4  H   UNL     1       3.151   4.676  18.174  0.00  0.00    +0.000 HD
ENDROOT
BRANCH   3   5
ATOM      5  C   UNL     1       3.616   4.095  20.212  0.00  0.00    +0.000 C 
ATOM      6  C   UNL     1       3.408   2.605  20.486  0.00  0.00    +0.000 C 
ATOM      7  C   UNL     1       2.112   2.068  19.893  0.00  0.00    +0.000 C 
ATOM      8  C   UNL     1       0.883   2.915  20.225  0.00  0.00    +0.000 C 
ATOM      9  C   UNL     1       1.097   4.427  20.137  0.00  0.00    +0.000 C 
ATOM     10  C   UNL     1       2.417   4.894  20.738  0.00  0.00    +0.000 C 
BRANCH   8  11
ATOM     11  O   UNL     1      -0.173   2.549  19.336  0.00  0.00    +0.000 OA
ATOM     12  H   UNL     1      -0.822   2.026  19.841  0.00  0.00    +0.000 HD
ENDBRANCH   8  11
ENDBRANCH   3   5
BRANCH   2  13
ATOM     13  C   UNL     1       5.355   4.763  16.931  0.00  0.00    +0.000 A 
ATOM     14  C   UNL     1       5.189   5.994  16.322  0.00  0.00    +0.000 A 
ATOM     15  C   UNL     1       5.456   5.815  14.943  0.00  0.00    +0.000 A 
ATOM     16  C   UNL     1       5.773   4.484  14.795  0.00  0.00    +0.000 A 
ATOM     17 BR   UNL     1       6.199   3.679  13.165  0.00  0.00    +0.000 Br
ATOM     18  O   UNL     1       5.723   3.835  15.993  0.00  0.00    +0.000 OA
ENDBRANCH   2  13
TORSDOF 3
ENDMDL
MODEL 6
REMARK VINA RESULT:      -6.3      3.369      4.142
REMARK  Name = 
REMARK  3 active torsions:
REMARK  status: ('A' for Active; 'I' for Inactive)
REMARK    1  A    between atoms: C_2  and  C_11
REMARK    2  A    between atoms: N_3  and  C_4
REMARK    3  A    between atoms: C_7  and  O_8
REMARK                            x       y       z     vdW  Elec       q    Type
REMARK                         _______ _______ _______ _____ _____    ______ ____
ROOT
ATOM      1  O   UNL     1       5.330   6.668  16.037  0.00  0.00    +0.000 OA
ATOM      2  C   UNL     1       5.364   5.448  15.888  0.00  0.00    +0.000 C 
ATOM      3  N   UNL     1       4.879   4.585  16.848  0.00  0.00    +0.000 N 
ATOM      4  H   UNL     1       4.884   3.595  16.630  0.00  0.00    +0.000 HD
ENDROOT
BRANCH   3   5
ATOM      5  C   UNL     1       4.227   5.093  18.055  0.00  0.00    +0.000 C 
ATOM      6  C   UNL     1       4.511   4.230  19.284  0.00  0.00    +0.000 C 
ATOM      7  C   UNL     1       3.838   2.865  19.219  0.00  0.00    +0.000 C 
ATOM      8  C   UNL     1       2.353   2.925  18.859  0.00  0.00    +0.000 C 
ATOM      9  C   UNL     1       1.996   3.913  17.748  0.00  0.00    +0.000 C 
ATOM     10  C   UNL     1       2.713   5.253  17.868  0.00  0.00    +0.000 C 
BRANCH   8  11
ATOM     11  O   UNL     1       1.930   1.619  18.464  0.00  0.00    +0.000 OA
ATOM     12  H   UNL     1       0.957   1.593  18.508  0.00  0.00    +0.000 HD
ENDBRANCH   8  11
ENDBRANCH   3   5
BRANCH   2  13
ATOM     13  C   UNL     1       5.918   4.852  14.690  0.00  0.00    +0.000 A 
ATOM     14  C   UNL     1       7.160   5.040  14.110  0.00  0.00    +0.000 A 
ATOM     15  C   UNL     1       7.194   4.247  12.937  0.00  0.00    +0.000 A 
ATOM     16  C   UNL     1       5.971   3.620  12.874  0.00  0.00    +0.000 A 
ATOM     17 BR   UNL     1       5.453   2.457  11.509  0.00  0.00    +0.000 Br
ATOM     18  O   UNL     1       5.189   3.972  13.935  0.00  0.00    +0.000 OA
ENDBRANCH   2  13
TORSDOF 3
ENDMDL
MODEL 7
REMARK VINA RESULT:      -6.3      3.635      4.598
REMARK  Name = 
REMARK  3 active torsions:
REMARK  status: ('A' for Active; 'I' for Inactive)
REMARK    1  A    between atoms: C_2  and  C_11
REMARK    2  A    between atoms: N_3  and  C_4
REMARK    3  A    between atoms: C_7  and  O_8
REMARK                            x       y       z     vdW  Elec       q    Type
REMARK                         _______ _______ _______ _____ _____    ______ ____
ROOT
ATOM      1  O   UNL     1       7.262   5.889  16.039  0.00  0.00    +0.000 OA
ATOM      2  C   UNL     1       6.378   5.122  15.662  0.00  0.00    +0.000 C 
ATOM      3  N   UNL     1       5.366   4.711  16.504  0.00  0.00    +0.000 N 
ATOM      4  H   UNL     1       4.638   4.127  16.108  0.00  0.00    +0.000 HD
ENDROOT
BRANCH   3   5
ATOM      5  C   UNL     1       5.260   5.238  17.864  0.00  0.00    +0.000 C 
ATOM      6  C   UNL     1       5.151   4.133  18.916  0.00  0.00    +0.000 C 
ATOM      7  C   UNL     1       3.826   3.386  18.856  0.00  0.00    +0.000 C 
ATOM      8  C   UNL     1       2.601   4.302  18.821  0.00  0.00    +0.000 C 
ATOM      9  C   UNL     1       2.735   5.525  17.913  0.00  0.00    +0.000 C 
ATOM     10  C   UNL     1       4.089   6.217  18.013  0.00  0.00    +0.000 C 
BRANCH   8  11
ATOM     11  O   UNL     1       1.474   3.535  18.395  0.00  0.00    +0.000 OA
ATOM     12  H   UNL     1       1.160   3.907  17.551  0.00  0.00    +0.000 HD
ENDBRANCH   8  11
ENDBRANCH   3   5
BRANCH   2  13
ATOM     13  C   UNL     1       6.353   4.609  14.308  0.00  0.00    +0.000 A 
ATOM     14  C   UNL     1       7.369   4.556  13.371  0.00  0.00    +0.000 A 
ATOM     15  C   UNL     1       6.820   3.990  12.195  0.00  0.00    +0.000 A 
ATOM     16  C   UNL     1       5.502   3.729  12.487  0.00  0.00    +0.000 A 
ATOM     17 BR   UNL     1       4.283   2.989  11.281  0.00  0.00    +0.000 Br
ATOM     18  O   UNL     1       5.205   4.093  13.767  0.00  0.00    +0.000 OA
ENDBRANCH   2  13
TORSDOF 3
ENDMDL
MODEL 8
REMARK VINA RESULT:      -6.3      3.162      5.981
REMARK  Name = 
REMARK  3 active torsions:
REMARK  status: ('A' for Active; 'I' for Inactive)
REMARK    1  A    between atoms: C_2  and  C_11
REMARK    2  A    between atoms: N_3  and  C_4
REMARK    3  A    between atoms: C_7  and  O_8
REMARK                            x       y       z     vdW  Elec       q    Type
REMARK                         _______ _______ _______ _____ _____    ______ ____
ROOT
ATOM      1  O   UNL     1       2.948   6.756  18.215  0.00  0.00    +0.000 OA
ATOM      2  C   UNL     1       3.099   5.560  17.971  0.00  0.00    +0.000 C 
ATOM      3  N   UNL     1       4.021   5.119  17.045  0.00  0.00    +0.000 N 
ATOM      4  H   UNL     1       4.134   4.116  16.941  0.00  0.00    +0.000 HD
ENDROOT
BRANCH   3   5
ATOM      5  C   UNL     1       4.917   6.058  16.371  0.00  0.00    +0.000 C 
ATOM      6  C   UNL     1       5.761   5.388  15.286  0.00  0.00    +0.000 C 
ATOM      7  C   UNL     1       6.809   4.440  15.851  0.00  0.00    +0.000 C 
ATOM      8  C   UNL     1       7.650   5.046  16.976  0.00  0.00    +0.000 C 
ATOM      9  C   UNL     1       6.867   5.878  17.991  0.00  0.00    +0.000 C 
ATOM     10  C   UNL     1       5.828   6.797  17.359  0.00  0.00    +0.000 C 
BRANCH   8  11
ATOM     11  O   UNL     1       8.315   3.987  17.666  0.00  0.00    +0.000 OA
ATOM     12  H   UNL     1       8.078   4.048  18.609  0.00  0.00    +0.000 HD
ENDBRANCH   8  11
ENDBRANCH   3   5
BRANCH   2  13
ATOM     13  C   UNL     1       2.314   4.549  18.647  0.00  0.00    +0.000 A 
ATOM     14  C   UNL     1       1.269   3.782  18.165  0.00  0.00    +0.000 A 
ATOM     15  C   UNL     1       0.826   2.965  19.234  0.00  0.00    +0.000 A 
ATOM     16  C   UNL     1       1.631   3.281  20.304  0.00  0.00    +0.000 A 
ATOM     17 BR   UNL     1       1.479   2.514  21.999  0.00  0.00    +0.000 Br
ATOM     18  O   UNL     1       2.543   4.236  19.961  0.00  0.00    +0.000 OA
ENDBRANCH   2  13
TORSDOF 3
ENDMDL
MODEL 9
REMARK VINA RESULT:      -6.2      3.762      4.444
REMARK  Name = 
REMARK  3 active torsions:
REMARK  status: ('A' for Active; 'I' for Inactive)
REMARK    1  A    between atoms: C_2  and  C_11
REMARK    2  A    between atoms: N_3  and  C_4
REMARK    3  A    between atoms: C_7  and  O_8
REMARK                            x       y       z     vdW  Elec       q    Type
REMARK                         _______ _______ _______ _____ _____    ______ ____
ROOT
ATOM      1  O   UNL     1       4.234   7.131  17.084  0.00  0.00    +0.000 OA
ATOM      2  C   UNL     1       3.428   6.852  17.970  0.00  0.00    +0.000 C 
ATOM      3  N   UNL     1       3.372   5.594  18.530  0.00  0.00    +0.000 N 
ATOM      4  H   UNL     1       2.724   5.454  19.298  0.00  0.00    +0.000 HD
ENDROOT
BRANCH   3   5
ATOM      5  C   UNL     1       4.329   4.557  18.146  0.00  0.00    +0.000 C 
ATOM      6  C   UNL     1       3.846   3.722  16.960  0.00  0.00    +0.000 C 
ATOM      7  C   UNL     1       2.666   2.825  17.307  0.00  0.00    +0.000 C 
ATOM      8  C   UNL     1       2.870   1.998  18.578  0.00  0.00    +0.000 C 
ATOM      9  C   UNL     1       3.518   2.750  19.740  0.00  0.00    +0.000 C 
ATOM     10  C   UNL     1       4.685   3.637  19.321  0.00  0.00    +0.000 C 
BRANCH   8  11
ATOM     11  O   UNL     1       1.600   1.502  19.004  0.00  0.00    +0.000 OA
ATOM     12  H   UNL     1       1.543   0.564  18.745  0.00  0.00    +0.000 HD
ENDBRANCH   8  11
ENDBRANCH   3   5
BRANCH   2  13
ATOM     13  C   UNL     1       2.493   7.837  18.473  0.00  0.00    +0.000 A 
ATOM     14  C   UNL     1       1.921   8.916  17.824  0.00  0.00    +0.000 A 
ATOM     15  C   UNL     1       1.100   9.581  18.767  0.00  0.00    +0.000 A 
ATOM     16  C   UNL     1       1.219   8.864  19.936  0.00  0.00    +0.000 A 
ATOM     17 BR   UNL     1       0.360   9.305  21.533  0.00  0.00    +0.000 Br
ATOM     18  O   UNL     1       2.055   7.800  19.771  0.00  0.00    +0.000 OA
ENDBRANCH   2  13
TORSDOF 3
ENDMDL
