MODEL 1
REMARK VINA RESULT:      -8.8      0.000      0.000
REMARK  Name = 
REMARK  6 active torsions:
REMARK  status: ('A' for Active; 'I' for Inactive)
REMARK    1  A    between atoms: O5*_1  and  C5*_2
REMARK    2  A    between atoms: C5*_2  and  C4*_3
REMARK    3  A    between atoms: C1*_5  and  N_6
REMARK    4  A    between atoms: C_10  and  C_11
REMARK    5  A    between atoms: C2*_21  and  O2*_22
REMARK    6  A    between atoms: C3*_23  and  O3*_24
REMARK                            x       y       z     vdW  Elec       q    Type
REMARK                         _______ _______ _______ _____ _____    ______ ____
ROOT
ATOM      1  N   UNL     1       4.167   4.082  18.377  0.00  0.00    +0.000 N 
ATOM      2  C   UNL     1       3.356   4.052  17.261  0.00  0.00    +0.000 A 
ATOM      3  C   UNL     1       4.153   4.195  16.149  0.00  0.00    +0.000 A 
ATOM      4  C   UNL     1       5.495   4.365  16.593  0.00  0.00    +0.000 A 
ATOM      5  C   UNL     1       6.754   4.533  15.995  0.00  0.00    +0.000 A 
ATOM      6  N   UNL     1       7.856   4.634  16.793  0.00  0.00    +0.000 NA
ATOM      7  C   UNL     1       7.677   4.618  18.121  0.00  0.00    +0.000 A 
ATOM      8  N   UNL     1       6.525   4.481  18.793  0.00  0.00    +0.000 NA
ATOM      9  C   UNL     1       5.463   4.329  17.984  0.00  0.00    +0.000 A 
ENDROOT
BRANCH   5  10
ATOM     10  C   UNL     1       6.941   4.585  14.541  0.00  0.00    +0.000 A 
ATOM     11  C   UNL     1       6.265   3.714  13.685  0.00  0.00    +0.000 A 
ATOM     12  C   UNL     1       6.503   3.783  12.314  0.00  0.00    +0.000 A 
ATOM     13  C   UNL     1       7.419   4.709  11.828  0.00  0.00    +0.000 A 
ATOM     14  C   UNL     1       8.049   5.542  12.736  0.00  0.00    +0.000 A 
ATOM     15  N   UNL     1       7.827   5.503  14.067  0.00  0.00    +0.000 NA
ENDBRANCH   5  10
BRANCH   1  18
ATOM     16  C4* UNL     1       2.150   2.117  20.272  0.00  0.00    +0.000 C 
ATOM     17  O4* UNL     1       3.515   2.385  19.888  0.00  0.00    +0.000 OA
ATOM     18  C1* UNL     1       3.666   3.815  19.719  0.00  0.00    +0.000 C 
ATOM     19  C2* UNL     1       2.368   4.509  20.154  0.00  0.00    +0.000 C 
ATOM     20  C3* UNL     1       1.643   3.409  20.913  0.00  0.00    +0.000 C 
BRANCH  19  21
ATOM     21  O2* UNL     1       2.635   5.642  20.997  0.00  0.00    +0.000 OA
ATOM     22  H2* UNL     1       2.967   5.269  21.841  0.00  0.00    +0.000 HD
ENDBRANCH  19  21
BRANCH  20  23
ATOM     23  O3* UNL     1       2.064   3.496  22.293  0.00  0.00    +0.000 OA
ATOM     24  H3* UNL     1       2.566   4.325  22.407  0.00  0.00    +0.000 HD
ENDBRANCH  20  23
BRANCH  16  25
ATOM     25  C5* UNL     1       1.393   1.611  19.042  0.00  0.00    +0.000 C 
BRANCH  25  26
ATOM     26  O5* UNL     1       0.223   2.370  18.792  0.00  0.00    +0.000 OA
ATOM     27  H5* UNL     1      -0.006   2.819  19.626  0.00  0.00    +0.000 HD
ENDBRANCH  25  26
ENDBRANCH  16  25
ENDBRANCH   1  18
TORSDOF 6
ENDMDL
MODEL 2
REMARK VINA RESULT:      -7.5      4.238      7.562
REMARK  Name = 
REMARK  6 active torsions:
REMARK  status: ('A' for Active; 'I' for Inactive)
REMARK    1  A    between atoms: O5*_1  and  C5*_2
REMARK    2  A    between atoms: C5*_2  and  C4*_3
REMARK    3  A    between atoms: C1*_5  and  N_6
REMARK    4  A    between atoms: C_10  and  C_11
REMARK    5  A    between atoms: C2*_21  and  O2*_22
REMARK    6  A    between atoms: C3*_23  and  O3*_24
REMARK                            x       y       z     vdW  Elec       q    Type
REMARK                         _______ _______ _______ _____ _____    ______ ____
ROOT
ATOM      1  N   UNL     1       2.612   5.489  19.355  0.00  0.00    +0.000 N 
ATOM      2  C   UNL     1       2.134   5.242  20.626  0.00  0.00    +0.000 A 
ATOM      3  C   UNL     1       1.546   6.394  21.093  0.00  0.00    +0.000 A 
ATOM      4  C   UNL     1       1.707   7.400  20.099  0.00  0.00    +0.000 A 
ATOM      5  C   UNL     1       1.335   8.744  19.939  0.00  0.00    +0.000 A 
ATOM      6  N   UNL     1       1.660   9.385  18.779  0.00  0.00    +0.000 NA
ATOM      7  C   UNL     1       2.368   8.712  17.863  0.00  0.00    +0.000 A 
ATOM      8  N   UNL     1       2.787   7.440  17.921  0.00  0.00    +0.000 NA
ATOM      9  C   UNL     1       2.407   6.816  19.049  0.00  0.00    +0.000 A 
ENDROOT
BRANCH   5  10
ATOM     10  C   UNL     1       0.590   9.489  20.960  0.00  0.00    +0.000 A 
ATOM     11  C   UNL     1       0.555   9.069  22.291  0.00  0.00    +0.000 A 
ATOM     12  C   UNL     1      -0.194   9.794  23.216  0.00  0.00    +0.000 A 
ATOM     13  C   UNL     1      -0.902  10.912  22.790  0.00  0.00    +0.000 A 
ATOM     14  C   UNL     1      -0.818  11.270  21.457  0.00  0.00    +0.000 A 
ATOM     15  N   UNL     1      -0.090  10.592  20.544  0.00  0.00    +0.000 NA
ENDBRANCH   5  10
BRANCH   1  18
ATOM     16  C4* UNL     1       2.203   2.334  18.171  0.00  0.00    +0.000 C 
ATOM     17  O4* UNL     1       2.084   3.738  17.858  0.00  0.00    +0.000 OA
ATOM     18  C1* UNL     1       3.169   4.442  18.508  0.00  0.00    +0.000 C 
ATOM     19  C2* UNL     1       4.111   3.418  19.155  0.00  0.00    +0.000 C 
ATOM     20  C3* UNL     1       3.678   2.113  18.505  0.00  0.00    +0.000 C 
BRANCH  19  21
ATOM     21  O2* UNL     1       5.487   3.717  18.870  0.00  0.00    +0.000 OA
ATOM     22  H2* UNL     1       5.839   4.138  19.683  0.00  0.00    +0.000 HD
ENDBRANCH  19  21
BRANCH  20  23
ATOM     23  O3* UNL     1       4.460   1.960  17.298  0.00  0.00    +0.000 OA
ATOM     24  H3* UNL     1       5.402   2.059  17.531  0.00  0.00    +0.000 HD
ENDBRANCH  20  23
BRANCH  16  25
ATOM     25  C5* UNL     1       1.186   1.995  19.263  0.00  0.00    +0.000 C 
BRANCH  25  26
ATOM     26  O5* UNL     1       0.014   2.784  19.157  0.00  0.00    +0.000 OA
ATOM     27  H5* UNL     1       0.252   3.685  19.442  0.00  0.00    +0.000 HD
ENDBRANCH  25  26
ENDBRANCH  16  25
ENDBRANCH   1  18
TORSDOF 6
ENDMDL
MODEL 3
REMARK VINA RESULT:      -7.4      4.789      8.113
REMARK  Name = 
REMARK  6 active torsions:
REMARK  status: ('A' for Active; 'I' for Inactive)
REMARK    1  A    between atoms: O5*_1  and  C5*_2
REMARK    2  A    between atoms: C5*_2  and  C4*_3
REMARK    3  A    between atoms: C1*_5  and  N_6
REMARK    4  A    between atoms: C_10  and  C_11
REMARK    5  A    between atoms: C2*_21  and  O2*_22
REMARK    6  A    between atoms: C3*_23  and  O3*_24
REMARK                            x       y       z     vdW  Elec       q    Type
REMARK                         _______ _______ _______ _____ _____    ______ ____
ROOT
ATOM      1  N   UNL     1       2.691   6.458  18.723  0.00  0.00    +0.000 N 
ATOM      2  C   UNL     1       2.357   5.981  19.974  0.00  0.00    +0.000 A 
ATOM      3  C   UNL     1       1.671   6.970  20.640  0.00  0.00    +0.000 A 
ATOM      4  C   UNL     1       1.618   8.111  19.791  0.00  0.00    +0.000 A 
ATOM      5  C   UNL     1       1.067   9.401  19.851  0.00  0.00    +0.000 A 
ATOM      6  N   UNL     1       1.209  10.229  18.776  0.00  0.00    +0.000 NA
ATOM      7  C   UNL     1       1.916   9.787  17.727  0.00  0.00    +0.000 A 
ATOM      8  N   UNL     1       2.496   8.589  17.575  0.00  0.00    +0.000 NA
ATOM      9  C   UNL     1       2.294   7.773  18.624  0.00  0.00    +0.000 A 
ENDROOT
BRANCH   5  10
ATOM     10  C   UNL     1       0.323   9.894  21.015  0.00  0.00    +0.000 A 
ATOM     11  C   UNL     1       0.312   9.196  22.224  0.00  0.00    +0.000 A 
ATOM     12  C   UNL     1      -0.437   9.690  23.290  0.00  0.00    +0.000 A 
ATOM     13  C   UNL     1      -1.168  10.862  23.123  0.00  0.00    +0.000 A 
ATOM     14  C   UNL     1      -1.106  11.500  21.898  0.00  0.00    +0.000 A 
ATOM     15  N   UNL     1      -0.379  11.049  20.854  0.00  0.00    +0.000 NA
ENDBRANCH   5  10
BRANCH   1  18
ATOM     16  C4* UNL     1       3.915   3.378  17.993  0.00  0.00    +0.000 C 
ATOM     17  O4* UNL     1       2.792   4.271  17.834  0.00  0.00    +0.000 OA
ATOM     18  C1* UNL     1       3.301   5.620  17.700  0.00  0.00    +0.000 C 
ATOM     19  C2* UNL     1       4.833   5.570  17.629  0.00  0.00    +0.000 C 
ATOM     20  C3* UNL     1       5.105   4.098  17.360  0.00  0.00    +0.000 C 
BRANCH  19  21
ATOM     21  O2* UNL     1       5.337   6.400  16.569  0.00  0.00    +0.000 OA
ATOM     22  H2* UNL     1       5.822   7.127  17.013  0.00  0.00    +0.000 HD
ENDBRANCH  19  21
BRANCH  20  23
ATOM     23  O3* UNL     1       5.107   3.922  15.925  0.00  0.00    +0.000 OA
ATOM     24  H3* UNL     1       5.338   4.775  15.513  0.00  0.00    +0.000 HD
ENDBRANCH  20  23
BRANCH  16  25
ATOM     25  C5* UNL     1       4.035   3.013  19.475  0.00  0.00    +0.000 C 
BRANCH  25  26
ATOM     26  O5* UNL     1       5.193   2.240  19.736  0.00  0.00    +0.000 OA
ATOM     27  H5* UNL     1       5.367   2.306  20.693  0.00  0.00    +0.000 HD
ENDBRANCH  25  26
ENDBRANCH  16  25
ENDBRANCH   1  18
TORSDOF 6
ENDMDL
MODEL 4
REMARK VINA RESULT:      -7.4      4.619      7.883
REMARK  Name = 
REMARK  6 active torsions:
REMARK  status: ('A' for Active; 'I' for Inactive)
REMARK    1  A    between atoms: O5*_1  and  C5*_2
REMARK    2  A    between atoms: C5*_2  and  C4*_3
REMARK    3  A    between atoms: C1*_5  and  N_6
REMARK    4  A    between atoms: C_10  and  C_11
REMARK    5  A    between atoms: C2*_21  and  O2*_22
REMARK    6  A    between atoms: C3*_23  and  O3*_24
REMARK                            x       y       z     vdW  Elec       q    Type
REMARK                         _______ _______ _______ _____ _____    ______ ____
ROOT
ATOM      1  N   UNL     1       2.752   6.181  19.264  0.00  0.00    +0.000 N 
ATOM      2  C   UNL     1       2.309   5.845  20.526  0.00  0.00    +0.000 A 
ATOM      3  C   UNL     1       1.583   6.904  21.021  0.00  0.00    +0.000 A 
ATOM      4  C   UNL     1       1.618   7.946  20.052  0.00  0.00    +0.000 A 
ATOM      5  C   UNL     1       1.083   9.239  19.925  0.00  0.00    +0.000 A 
ATOM      6  N   UNL     1       1.327   9.944  18.783  0.00  0.00    +0.000 NA
ATOM      7  C   UNL     1       2.113   9.386  17.852  0.00  0.00    +0.000 A 
ATOM      8  N   UNL     1       2.686   8.175  17.880  0.00  0.00    +0.000 NA
ATOM      9  C   UNL     1       2.385   7.480  18.990  0.00  0.00    +0.000 A 
ENDROOT
BRANCH   5  10
ATOM     10  C   UNL     1       0.252   9.860  20.962  0.00  0.00    +0.000 A 
ATOM     11  C   UNL     1      -0.499  11.008  20.706  0.00  0.00    +0.000 A 
ATOM     12  C   UNL     1      -1.246  11.578  21.735  0.00  0.00    +0.000 A 
ATOM     13  C   UNL     1      -1.217  10.998  22.998  0.00  0.00    +0.000 A 
ATOM     14  C   UNL     1      -0.452   9.860  23.176  0.00  0.00    +0.000 A 
ATOM     15  N   UNL     1       0.270   9.282  22.193  0.00  0.00    +0.000 NA
ENDBRANCH   5  10
BRANCH   1  18
ATOM     16  C4* UNL     1       2.512   3.226  17.612  0.00  0.00    +0.000 C 
ATOM     17  O4* UNL     1       2.471   4.662  17.475  0.00  0.00    +0.000 OA
ATOM     18  C1* UNL     1       3.434   5.233  18.393  0.00  0.00    +0.000 C 
ATOM     19  C2* UNL     1       4.232   4.098  19.049  0.00  0.00    +0.000 C 
ATOM     20  C3* UNL     1       3.901   2.906  18.164  0.00  0.00    +0.000 C 
BRANCH  19  21
ATOM     21  O2* UNL     1       5.641   4.378  19.049  0.00  0.00    +0.000 OA
ATOM     22  H2* UNL     1       6.019   3.824  19.766  0.00  0.00    +0.000 HD
ENDBRANCH  19  21
BRANCH  20  23
ATOM     23  O3* UNL     1       4.882   2.881  17.101  0.00  0.00    +0.000 OA
ATOM     24  H3* UNL     1       5.578   3.531  17.314  0.00  0.00    +0.000 HD
ENDBRANCH  20  23
BRANCH  16  25
ATOM     25  C5* UNL     1       1.313   2.787  18.456  0.00  0.00    +0.000 C 
BRANCH  25  26
ATOM     26  O5* UNL     1       1.420   1.434  18.862  0.00  0.00    +0.000 OA
ATOM     27  H5* UNL     1       1.856   1.433  19.733  0.00  0.00    +0.000 HD
ENDBRANCH  25  26
ENDBRANCH  16  25
ENDBRANCH   1  18
TORSDOF 6
ENDMDL
MODEL 5
REMARK VINA RESULT:      -7.3      5.245      7.621
REMARK  Name = 
REMARK  6 active torsions:
REMARK  status: ('A' for Active; 'I' for Inactive)
REMARK    1  A    between atoms: O5*_1  and  C5*_2
REMARK    2  A    between atoms: C5*_2  and  C4*_3
REMARK    3  A    between atoms: C1*_5  and  N_6
REMARK    4  A    between atoms: C_10  and  C_11
REMARK    5  A    between atoms: C2*_21  and  O2*_22
REMARK    6  A    between atoms: C3*_23  and  O3*_24
REMARK                            x       y       z     vdW  Elec       q    Type
REMARK                         _______ _______ _______ _____ _____    ______ ____
ROOT
ATOM      1  N   UNL     1       3.004   6.892  18.812  0.00  0.00    +0.000 N 
ATOM      2  C   UNL     1       3.108   7.601  17.633  0.00  0.00    +0.000 A 
ATOM      3  C   UNL     1       2.330   8.730  17.742  0.00  0.00    +0.000 A 
ATOM      4  C   UNL     1       1.687   8.695  19.012  0.00  0.00    +0.000 A 
ATOM      5  C   UNL     1       0.811   9.521  19.734  0.00  0.00    +0.000 A 
ATOM      6  N   UNL     1       0.429   9.141  20.988  0.00  0.00    +0.000 NA
ATOM      7  C   UNL     1       0.873   7.966  21.454  0.00  0.00    +0.000 A 
ATOM      8  N   UNL     1       1.693   7.098  20.845  0.00  0.00    +0.000 NA
ATOM      9  C   UNL     1       2.097   7.521  19.636  0.00  0.00    +0.000 A 
ENDROOT
BRANCH   5  10
ATOM     10  C   UNL     1       0.299  10.790  19.206  0.00  0.00    +0.000 A 
ATOM     11  C   UNL     1      -0.973  10.886  18.639  0.00  0.00    +0.000 A 
ATOM     12  C   UNL     1      -1.399  12.108  18.122  0.00  0.00    +0.000 A 
ATOM     13  C   UNL     1      -0.542  13.203  18.170  0.00  0.00    +0.000 A 
ATOM     14  C   UNL     1       0.702  13.032  18.749  0.00  0.00    +0.000 A 
ATOM     15  N   UNL     1       1.133  11.863  19.268  0.00  0.00    +0.000 NA
ENDBRANCH   5  10
BRANCH   1  18
ATOM     16  C4* UNL     1       5.352   4.757  17.608  0.00  0.00    +0.000 C 
ATOM     17  O4* UNL     1       5.114   5.880  18.483  0.00  0.00    +0.000 OA
ATOM     18  C1* UNL     1       3.812   5.712  19.093  0.00  0.00    +0.000 C 
ATOM     19  C2* UNL     1       3.247   4.342  18.696  0.00  0.00    +0.000 C 
ATOM     20  C3* UNL     1       4.471   3.628  18.142  0.00  0.00    +0.000 C 
BRANCH  19  21
ATOM     21  O2* UNL     1       2.703   3.649  19.831  0.00  0.00    +0.000 OA
ATOM     22  H2* UNL     1       1.896   4.148  20.081  0.00  0.00    +0.000 HD
ENDBRANCH  19  21
BRANCH  20  23
ATOM     23  O3* UNL     1       5.111   2.960  19.253  0.00  0.00    +0.000 OA
ATOM     24  H3* UNL     1       5.924   3.451  19.477  0.00  0.00    +0.000 HD
ENDBRANCH  20  23
BRANCH  16  25
ATOM     25  C5* UNL     1       5.103   5.207  16.167  0.00  0.00    +0.000 C 
BRANCH  25  26
ATOM     26  O5* UNL     1       5.856   6.360  15.836  0.00  0.00    +0.000 OA
ATOM     27  H5* UNL     1       5.372   7.127  16.194  0.00  0.00    +0.000 HD
ENDBRANCH  25  26
ENDBRANCH  16  25
ENDBRANCH   1  18
TORSDOF 6
ENDMDL
MODEL 6
REMARK VINA RESULT:      -7.2      5.149      6.779
REMARK  Name = 
REMARK  6 active torsions:
REMARK  status: ('A' for Active; 'I' for Inactive)
REMARK    1  A    between atoms: O5*_1  and  C5*_2
REMARK    2  A    between atoms: C5*_2  and  C4*_3
REMARK    3  A    between atoms: C1*_5  and  N_6
REMARK    4  A    between atoms: C_10  and  C_11
REMARK    5  A    between atoms: C2*_21  and  O2*_22
REMARK    6  A    between atoms: C3*_23  and  O3*_24
REMARK                            x       y       z     vdW  Elec       q    Type
REMARK                         _______ _______ _______ _____ _____    ______ ____
ROOT
ATOM      1  N   UNL     1       1.121   9.058  19.476  0.00  0.00    +0.000 N 
ATOM      2  C   UNL     1       1.603   9.562  18.285  0.00  0.00    +0.000 A 
ATOM      3  C   UNL     1       2.423   8.613  17.720  0.00  0.00    +0.000 A 
ATOM      4  C   UNL     1       2.488   7.506  18.611  0.00  0.00    +0.000 A 
ATOM      5  C   UNL     1       3.107   6.245  18.629  0.00  0.00    +0.000 A 
ATOM      6  N   UNL     1       2.892   5.420  19.694  0.00  0.00    +0.000 NA
ATOM      7  C   UNL     1       2.136   5.874  20.702  0.00  0.00    +0.000 A 
ATOM      8  N   UNL     1       1.516   7.059  20.795  0.00  0.00    +0.000 NA
ATOM      9  C   UNL     1       1.699   7.830  19.710  0.00  0.00    +0.000 A 
ENDROOT
BRANCH   5  10
ATOM     10  C   UNL     1       3.963   5.766  17.539  0.00  0.00    +0.000 A 
ATOM     11  C   UNL     1       4.678   6.650  16.728  0.00  0.00    +0.000 A 
ATOM     12  C   UNL     1       5.451   6.145  15.684  0.00  0.00    +0.000 A 
ATOM     13  C   UNL     1       5.484   4.772  15.465  0.00  0.00    +0.000 A 
ATOM     14  C   UNL     1       4.752   3.958  16.310  0.00  0.00    +0.000 A 
ATOM     15  N   UNL     1       4.005   4.421  17.335  0.00  0.00    +0.000 NA
ENDBRANCH   5  10
BRANCH   1  18
ATOM     16  C4* UNL     1      -0.966  11.730  19.638  0.00  0.00    +0.000 C 
ATOM     17  O4* UNL     1      -0.879  10.314  19.374  0.00  0.00    +0.000 OA
ATOM     18  C1* UNL     1       0.110   9.746  20.267  0.00  0.00    +0.000 C 
ATOM     19  C2* UNL     1       0.576  10.829  21.248  0.00  0.00    +0.000 C 
ATOM     20  C3* UNL     1      -0.480  11.910  21.076  0.00  0.00    +0.000 C 
BRANCH  19  21
ATOM     21  O2* UNL     1       0.610  10.337  22.598  0.00  0.00    +0.000 OA
ATOM     22  H2* UNL     1      -0.287  10.503  22.960  0.00  0.00    +0.000 HD
ENDBRANCH  19  21
BRANCH  20  23
ATOM     23  O3* UNL     1      -1.540  11.621  22.015  0.00  0.00    +0.000 OA
ATOM     24  H3* UNL     1      -1.608  10.652  22.111  0.00  0.00    +0.000 HD
ENDBRANCH  20  23
BRANCH  16  25
ATOM     25  C5* UNL     1      -0.191  12.473  18.547  0.00  0.00    +0.000 C 
BRANCH  25  26
ATOM     26  O5* UNL     1      -1.040  12.911  17.501  0.00  0.00    +0.000 OA
ATOM     27  H5* UNL     1      -1.364  12.112  17.046  0.00  0.00    +0.000 HD
ENDBRANCH  25  26
ENDBRANCH  16  25
ENDBRANCH   1  18
TORSDOF 6
ENDMDL
MODEL 7
REMARK VINA RESULT:      -7.2      5.250      7.736
REMARK  Name = 
REMARK  6 active torsions:
REMARK  status: ('A' for Active; 'I' for Inactive)
REMARK    1  A    between atoms: O5*_1  and  C5*_2
REMARK    2  A    between atoms: C5*_2  and  C4*_3
REMARK    3  A    between atoms: C1*_5  and  N_6
REMARK    4  A    between atoms: C_10  and  C_11
REMARK    5  A    between atoms: C2*_21  and  O2*_22
REMARK    6  A    between atoms: C3*_23  and  O3*_24
REMARK                            x       y       z     vdW  Elec       q    Type
REMARK                         _______ _______ _______ _____ _____    ______ ____
ROOT
ATOM      1  N   UNL     1       2.906   6.763  18.873  0.00  0.00    +0.000 N 
ATOM      2  C   UNL     1       3.081   7.439  17.682  0.00  0.00    +0.000 A 
ATOM      3  C   UNL     1       2.401   8.632  17.764  0.00  0.00    +0.000 A 
ATOM      4  C   UNL     1       1.747   8.675  19.027  0.00  0.00    +0.000 A 
ATOM      5  C   UNL     1       0.937   9.585  19.726  0.00  0.00    +0.000 A 
ATOM      6  N   UNL     1       0.513   9.262  20.981  0.00  0.00    +0.000 NA
ATOM      7  C   UNL     1       0.850   8.062  21.472  0.00  0.00    +0.000 A 
ATOM      8  N   UNL     1       1.599   7.116  20.887  0.00  0.00    +0.000 NA
ATOM      9  C   UNL     1       2.048   7.482  19.675  0.00  0.00    +0.000 A 
ENDROOT
BRANCH   5  10
ATOM     10  C   UNL     1       0.541  10.884  19.170  0.00  0.00    +0.000 A 
ATOM     11  C   UNL     1       1.440  11.948  19.088  0.00  0.00    +0.000 A 
ATOM     12  C   UNL     1       1.005  13.172  18.583  0.00  0.00    +0.000 A 
ATOM     13  C   UNL     1      -0.320  13.310  18.183  0.00  0.00    +0.000 A 
ATOM     14  C   UNL     1      -1.153  12.210  18.291  0.00  0.00    +0.000 A 
ATOM     15  N   UNL     1      -0.752  11.012  18.766  0.00  0.00    +0.000 NA
ENDBRANCH   5  10
BRANCH   1  18
ATOM     16  C4* UNL     1       5.894   5.154  18.834  0.00  0.00    +0.000 C 
ATOM     17  O4* UNL     1       4.935   5.843  19.663  0.00  0.00    +0.000 OA
ATOM     18  C1* UNL     1       3.607   5.524  19.182  0.00  0.00    +0.000 C 
ATOM     19  C2* UNL     1       3.718   4.464  18.078  0.00  0.00    +0.000 C 
ATOM     20  C3* UNL     1       5.144   3.960  18.245  0.00  0.00    +0.000 C 
BRANCH  19  21
ATOM     21  O2* UNL     1       2.762   3.408  18.265  0.00  0.00    +0.000 OA
ATOM     22  H2* UNL     1       1.908   3.766  17.942  0.00  0.00    +0.000 HD
ENDBRANCH  19  21
BRANCH  20  23
ATOM     23  O3* UNL     1       5.099   2.865  19.189  0.00  0.00    +0.000 OA
ATOM     24  H3* UNL     1       5.132   2.029  18.687  0.00  0.00    +0.000 HD
ENDBRANCH  20  23
BRANCH  16  25
ATOM     25  C5* UNL     1       6.486   6.158  17.843  0.00  0.00    +0.000 C 
BRANCH  25  26
ATOM     26  O5* UNL     1       7.574   5.609  17.121  0.00  0.00    +0.000 OA
ATOM     27  H5* UNL     1       7.400   5.775  16.176  0.00  0.00    +0.000 HD
ENDBRANCH  25  26
ENDBRANCH  16  25
ENDBRANCH   1  18
TORSDOF 6
ENDMDL
MODEL 8
REMARK VINA RESULT:      -7.1      1.071      1.412
REMARK  Name = 
REMARK  6 active torsions:
REMARK  status: ('A' for Active; 'I' for Inactive)
REMARK    1  A    between atoms: O5*_1  and  C5*_2
REMARK    2  A    between atoms: C5*_2  and  C4*_3
REMARK    3  A    between atoms: C1*_5  and  N_6
REMARK    4  A    between atoms: C_10  and  C_11
REMARK    5  A    between atoms: C2*_21  and  O2*_22
REMARK    6  A    between atoms: C3*_23  and  O3*_24
REMARK                            x       y       z     vdW  Elec       q    Type
REMARK                         _______ _______ _______ _____ _____    ______ ____
ROOT
ATOM      1  N   UNL     1       4.187   4.177  18.243  0.00  0.00    +0.000 N 
ATOM      2  C   UNL     1       3.366   4.140  17.135  0.00  0.00    +0.000 A 
ATOM      3  C   UNL     1       4.155   4.255  16.014  0.00  0.00    +0.000 A 
ATOM      4  C   UNL     1       5.502   4.414  16.444  0.00  0.00    +0.000 A 
ATOM      5  C   UNL     1       6.758   4.556  15.832  0.00  0.00    +0.000 A 
ATOM      6  N   UNL     1       7.868   4.655  16.619  0.00  0.00    +0.000 NA
ATOM      7  C   UNL     1       7.701   4.662  17.948  0.00  0.00    +0.000 A 
ATOM      8  N   UNL     1       6.554   4.551  18.632  0.00  0.00    +0.000 NA
ATOM      9  C   UNL     1       5.483   4.400  17.835  0.00  0.00    +0.000 A 
ENDROOT
BRANCH   5  10
ATOM     10  C   UNL     1       6.934   4.582  14.376  0.00  0.00    +0.000 A 
ATOM     11  C   UNL     1       6.245   3.701  13.541  0.00  0.00    +0.000 A 
ATOM     12  C   UNL     1       6.471   3.745  12.166  0.00  0.00    +0.000 A 
ATOM     13  C   UNL     1       7.389   4.657  11.658  0.00  0.00    +0.000 A 
ATOM     14  C   UNL     1       8.032   5.501  12.546  0.00  0.00    +0.000 A 
ATOM     15  N   UNL     1       7.821   5.486  13.879  0.00  0.00    +0.000 NA
ENDBRANCH   5  10
BRANCH   1  18
ATOM     16  C4* UNL     1       4.204   2.060  20.896  0.00  0.00    +0.000 C 
ATOM     17  O4* UNL     1       4.734   3.293  20.366  0.00  0.00    +0.000 OA
ATOM     18  C1* UNL     1       3.693   3.939  19.593  0.00  0.00    +0.000 C 
ATOM     19  C2* UNL     1       2.388   3.148  19.754  0.00  0.00    +0.000 C 
ATOM     20  C3* UNL     1       2.688   2.253  20.947  0.00  0.00    +0.000 C 
BRANCH  19  21
ATOM     21  O2* UNL     1       1.276   4.018  20.016  0.00  0.00    +0.000 OA
ATOM     22  H2* UNL     1       0.479   3.514  19.745  0.00  0.00    +0.000 HD
ENDBRANCH  19  21
BRANCH  20  23
ATOM     23  O3* UNL     1       2.304   2.985  22.134  0.00  0.00    +0.000 OA
ATOM     24  H3* UNL     1       1.747   3.738  21.861  0.00  0.00    +0.000 HD
ENDBRANCH  20  23
BRANCH  16  25
ATOM     25  C5* UNL     1       4.726   0.902  20.041  0.00  0.00    +0.000 C 
BRANCH  25  26
ATOM     26  O5* UNL     1       4.115   0.872  18.764  0.00  0.00    +0.000 OA
ATOM     27  H5* UNL     1       4.621   0.239  18.223  0.00  0.00    +0.000 HD
ENDBRANCH  25  26
ENDBRANCH  16  25
ENDBRANCH   1  18
TORSDOF 6
ENDMDL
MODEL 9
REMARK VINA RESULT:      -7.1      4.151      7.733
REMARK  Name = 
REMARK  6 active torsions:
REMARK  status: ('A' for Active; 'I' for Inactive)
REMARK    1  A    between atoms: O5*_1  and  C5*_2
REMARK    2  A    between atoms: C5*_2  and  C4*_3
REMARK    3  A    between atoms: C1*_5  and  N_6
REMARK    4  A    between atoms: C_10  and  C_11
REMARK    5  A    between atoms: C2*_21  and  O2*_22
REMARK    6  A    between atoms: C3*_23  and  O3*_24
REMARK                            x       y       z     vdW  Elec       q    Type
REMARK                         _______ _______ _______ _____ _____    ______ ____
ROOT
ATOM      1  N   UNL     1       3.896   6.130  17.831  0.00  0.00    +0.000 N 
ATOM      2  C   UNL     1       3.804   7.407  17.316  0.00  0.00    +0.000 A 
ATOM      3  C   UNL     1       2.967   8.136  18.128  0.00  0.00    +0.000 A 
ATOM      4  C   UNL     1       2.489   7.270  19.151  0.00  0.00    +0.000 A 
ATOM      5  C   UNL     1       1.650   7.381  20.272  0.00  0.00    +0.000 A 
ATOM      6  N   UNL     1       1.454   6.285  21.060  0.00  0.00    +0.000 NA
ATOM      7  C   UNL     1       2.034   5.134  20.696  0.00  0.00    +0.000 A 
ATOM      8  N   UNL     1       2.833   4.914  19.643  0.00  0.00    +0.000 NA
ATOM      9  C   UNL     1       3.054   6.021  18.915  0.00  0.00    +0.000 A 
ENDROOT
BRANCH   5  10
ATOM     10  C   UNL     1       0.989   8.636  20.648  0.00  0.00    +0.000 A 
ATOM     11  C   UNL     1       0.758   8.969  21.983  0.00  0.00    +0.000 A 
ATOM     12  C   UNL     1       0.096  10.157  22.286  0.00  0.00    +0.000 A 
ATOM     13  C   UNL     1      -0.333  10.979  21.249  0.00  0.00    +0.000 A 
ATOM     14  C   UNL     1      -0.066  10.585  19.950  0.00  0.00    +0.000 A 
ATOM     15  N   UNL     1       0.584   9.446  19.632  0.00  0.00    +0.000 NA
ENDBRANCH   5  10
BRANCH   1  18
ATOM     16  C4* UNL     1       6.976   4.729  18.106  0.00  0.00    +0.000 C 
ATOM     17  O4* UNL     1       5.571   4.558  18.390  0.00  0.00    +0.000 OA
ATOM     18  C1* UNL     1       4.815   5.133  17.297  0.00  0.00    +0.000 C 
ATOM     19  C2* UNL     1       5.787   5.567  16.192  0.00  0.00    +0.000 C 
ATOM     20  C3* UNL     1       7.074   4.861  16.587  0.00  0.00    +0.000 C 
BRANCH  19  21
ATOM     21  O2* UNL     1       5.332   5.145  14.896  0.00  0.00    +0.000 OA
ATOM     22  H2* UNL     1       5.723   4.257  14.756  0.00  0.00    +0.000 HD
ENDBRANCH  19  21
BRANCH  20  23
ATOM     23  O3* UNL     1       7.056   3.560  15.956  0.00  0.00    +0.000 OA
ATOM     24  H3* UNL     1       7.433   2.913  16.582  0.00  0.00    +0.000 HD
ENDBRANCH  20  23
BRANCH  16  25
ATOM     25  C5* UNL     1       7.497   5.902  18.940  0.00  0.00    +0.000 C 
BRANCH  25  26
ATOM     26  O5* UNL     1       7.854   5.501  20.251  0.00  0.00    +0.000 OA
ATOM     27  H5* UNL     1       7.862   6.306  20.801  0.00  0.00    +0.000 HD
ENDBRANCH  25  26
ENDBRANCH  16  25
ENDBRANCH   1  18
TORSDOF 6
ENDMDL
