MODEL 1
REMARK VINA RESULT:      -7.6      0.000      0.000
REMARK  Name = 
REMARK  5 active torsions:
REMARK  status: ('A' for Active; 'I' for Inactive)
REMARK    1  A    between atoms: C_1  and  C_2
REMARK    2  A    between atoms: C_4  and  C_5
REMARK    3  A    between atoms: C_5  and  S_6
REMARK    4  A    between atoms: S_6  and  C_7
REMARK    5  A    between atoms: N_11  and  C_12
REMARK                            x       y       z     vdW  Elec       q    Type
REMARK                         _______ _______ _______ _____ _____    ______ ____
ROOT
ATOM      1  C   UNL     1       3.509   5.797  18.792  0.00  0.00    +0.000 A 
ATOM      2  N   UNL     1       3.112   6.778  18.024  0.00  0.00    +0.000 NA
ATOM      3  N   UNL     1       2.383   7.639  18.821  0.00  0.00    +0.000 NA
ATOM      4  C   UNL     1       2.353   7.162  20.050  0.00  0.00    +0.000 A 
ATOM      5  N   UNL     1       1.769   7.603  21.188  0.00  0.00    +0.000 N 
ATOM      6  N   UNL     1       3.071   5.994  20.064  0.00  0.00    +0.000 N 
ATOM      7  H   UNL     1       1.910   7.098  22.056  0.00  0.00    +0.000 HD
ATOM      8  H   UNL     1       3.231   5.383  20.845  0.00  0.00    +0.000 HD
ENDROOT
BRANCH   5   9
ATOM      9  C   UNL     1       0.964   8.749  21.348  0.00  0.00    +0.000 A 
ATOM     10  C   UNL     1       0.305   9.403  20.306  0.00  0.00    +0.000 A 
ATOM     11  C   UNL     1      -0.471  10.537  20.552  0.00  0.00    +0.000 A 
ATOM     12  C   UNL     1      -0.577  10.996  21.852  0.00  0.00    +0.000 A 
ATOM     13  N   UNL     1       0.026  10.402  22.900  0.00  0.00    +0.000 NA
ATOM     14  C   UNL     1       0.772   9.304  22.621  0.00  0.00    +0.000 A 
ENDBRANCH   5   9
BRANCH   1  15
ATOM     15  S   UNL     1       4.419   4.397  18.397  0.00  0.00    +0.000 S 
BRANCH  15  16
ATOM     16  C   UNL     1       6.060   5.121  18.064  0.00  0.00    +0.000 C 
BRANCH  16  20
ATOM     17  C   UNL     1       6.409   3.847  13.123  0.00  0.00    +0.000 C 
ATOM     18  C   UNL     1       6.478   4.374  14.497  0.00  0.00    +0.000 A 
ATOM     19  C   UNL     1       5.765   4.152  15.649  0.00  0.00    +0.000 A 
ATOM     20  C   UNL     1       6.391   4.980  16.615  0.00  0.00    +0.000 A 
ATOM     21  N   UNL     1       7.399   5.675  16.071  0.00  0.00    +0.000 NA
ATOM     22  O   UNL     1       7.454   5.287  14.744  0.00  0.00    +0.000 OA
ENDBRANCH  16  20
ENDBRANCH  15  16
ENDBRANCH   1  15
TORSDOF 4
ENDMDL
MODEL 2
REMARK VINA RESULT:      -7.4      5.596      7.000
REMARK  Name = 
REMARK  5 active torsions:
REMARK  status: ('A' for Active; 'I' for Inactive)
REMARK    1  A    between atoms: C_1  and  C_2
REMARK    2  A    between atoms: C_4  and  C_5
REMARK    3  A    between atoms: C_5  and  S_6
REMARK    4  A    between atoms: S_6  and  C_7
REMARK    5  A    between atoms: N_11  and  C_12
REMARK                            x       y       z     vdW  Elec       q    Type
REMARK                         _______ _______ _______ _____ _____    ______ ____
ROOT
ATOM      1  C   UNL     1       7.145   7.223  17.671  0.00  0.00    +0.000 A 
ATOM      2  N   UNL     1       8.032   6.920  18.583  0.00  0.00    +0.000 NA
ATOM      3  N   UNL     1       8.745   8.074  18.845  0.00  0.00    +0.000 NA
ATOM      4  C   UNL     1       8.277   9.047  18.088  0.00  0.00    +0.000 A 
ATOM      5  N   UNL     1       8.628  10.346  17.948  0.00  0.00    +0.000 N 
ATOM      6  N   UNL     1       7.249   8.537  17.338  0.00  0.00    +0.000 N 
ATOM      7  H   UNL     1       8.097  10.949  17.329  0.00  0.00    +0.000 HD
ATOM      8  H   UNL     1       6.691   9.019  16.656  0.00  0.00    +0.000 HD
ENDROOT
BRANCH   5   9
ATOM      9  C   UNL     1       9.679  11.024  18.599  0.00  0.00    +0.000 A 
ATOM     10  C   UNL     1      10.794  11.559  17.953  0.00  0.00    +0.000 A 
ATOM     11  C   UNL     1      11.794  12.212  18.677  0.00  0.00    +0.000 A 
ATOM     12  C   UNL     1      11.652  12.322  20.048  0.00  0.00    +0.000 A 
ATOM     13  N   UNL     1      10.594  11.836  20.726  0.00  0.00    +0.000 NA
ATOM     14  C   UNL     1       9.646  11.207  19.989  0.00  0.00    +0.000 A 
ENDBRANCH   5   9
BRANCH   1  15
ATOM     15  S   UNL     1       5.984   6.223  16.899  0.00  0.00    +0.000 S 
BRANCH  15  16
ATOM     16  C   UNL     1       7.012   4.798  16.407  0.00  0.00    +0.000 C 
BRANCH  16  20
ATOM     17  C   UNL     1       5.647   3.056  11.796  0.00  0.00    +0.000 C 
ATOM     18  C   UNL     1       6.178   3.710  13.004  0.00  0.00    +0.000 A 
ATOM     19  C   UNL     1       5.915   3.609  14.348  0.00  0.00    +0.000 A 
ATOM     20  C   UNL     1       6.821   4.515  14.954  0.00  0.00    +0.000 A 
ATOM     21  N   UNL     1       7.565   5.140  14.030  0.00  0.00    +0.000 NA
ATOM     22  O   UNL     1       7.164   4.626  12.810  0.00  0.00    +0.000 OA
ENDBRANCH  16  20
ENDBRANCH  15  16
ENDBRANCH   1  15
TORSDOF 4
ENDMDL
MODEL 3
REMARK VINA RESULT:      -7.4      4.997      7.352
REMARK  Name = 
REMARK  5 active torsions:
REMARK  status: ('A' for Active; 'I' for Inactive)
REMARK    1  A    between atoms: C_1  and  C_2
REMARK    2  A    between atoms: C_4  and  C_5
REMARK    3  A    between atoms: C_5  and  S_6
REMARK    4  A    between atoms: S_6  and  C_7
REMARK    5  A    between atoms: N_11  and  C_12
REMARK                            x       y       z     vdW  Elec       q    Type
REMARK                         _______ _______ _______ _____ _____    ______ ____
ROOT
ATOM      1  C   UNL     1       7.037   6.695  17.424  0.00  0.00    +0.000 A 
ATOM      2  N   UNL     1       7.848   6.438  18.417  0.00  0.00    +0.000 NA
ATOM      3  N   UNL     1       8.478   7.625  18.735  0.00  0.00    +0.000 NA
ATOM      4  C   UNL     1       8.038   8.572  17.930  0.00  0.00    +0.000 A 
ATOM      5  N   UNL     1       8.340   9.885  17.812  0.00  0.00    +0.000 N 
ATOM      6  N   UNL     1       7.110   8.010  17.091  0.00  0.00    +0.000 N 
ATOM      7  H   UNL     1       7.842  10.460  17.141  0.00  0.00    +0.000 HD
ATOM      8  H   UNL     1       6.596   8.463  16.356  0.00  0.00    +0.000 HD
ENDROOT
BRANCH   5   9
ATOM      9  C   UNL     1       9.293  10.614  18.553  0.00  0.00    +0.000 A 
ATOM     10  C   UNL     1       9.280  10.745  19.943  0.00  0.00    +0.000 A 
ATOM     11  C   UNL     1      10.262  11.491  20.598  0.00  0.00    +0.000 A 
ATOM     12  C   UNL     1      11.250  12.093  19.842  0.00  0.00    +0.000 A 
ATOM     13  N   UNL     1      11.321  11.994  18.500  0.00  0.00    +0.000 NA
ATOM     14  C   UNL     1      10.349  11.263  17.899  0.00  0.00    +0.000 A 
ENDBRANCH   5   9
BRANCH   1  15
ATOM     15  S   UNL     1       6.002   5.638  16.556  0.00  0.00    +0.000 S 
BRANCH  15  16
ATOM     16  C   UNL     1       4.370   6.105  17.226  0.00  0.00    +0.000 C 
BRANCH  16  20
ATOM     17  C   UNL     1       0.934   2.616  18.703  0.00  0.00    +0.000 C 
ATOM     18  C   UNL     1       2.043   3.437  18.186  0.00  0.00    +0.000 A 
ATOM     19  C   UNL     1       2.292   4.786  18.117  0.00  0.00    +0.000 A 
ATOM     20  C   UNL     1       3.573   4.877  17.517  0.00  0.00    +0.000 A 
ATOM     21  N   UNL     1       4.053   3.662  17.221  0.00  0.00    +0.000 NA
ATOM     22  O   UNL     1       3.093   2.761  17.648  0.00  0.00    +0.000 OA
ENDBRANCH  16  20
ENDBRANCH  15  16
ENDBRANCH   1  15
TORSDOF 4
ENDMDL
MODEL 4
REMARK VINA RESULT:      -7.4      5.217      7.184
REMARK  Name = 
REMARK  5 active torsions:
REMARK  status: ('A' for Active; 'I' for Inactive)
REMARK    1  A    between atoms: C_1  and  C_2
REMARK    2  A    between atoms: C_4  and  C_5
REMARK    3  A    between atoms: C_5  and  S_6
REMARK    4  A    between atoms: S_6  and  C_7
REMARK    5  A    between atoms: N_11  and  C_12
REMARK                            x       y       z     vdW  Elec       q    Type
REMARK                         _______ _______ _______ _____ _____    ______ ____
ROOT
ATOM      1  C   UNL     1       7.510   6.565  17.975  0.00  0.00    +0.000 A 
ATOM      2  N   UNL     1       7.156   7.447  17.077  0.00  0.00    +0.000 NA
ATOM      3  N   UNL     1       7.761   8.638  17.428  0.00  0.00    +0.000 NA
ATOM      4  C   UNL     1       8.463   8.453  18.528  0.00  0.00    +0.000 A 
ATOM      5  N   UNL     1       9.217   9.285  19.283  0.00  0.00    +0.000 N 
ATOM      6  N   UNL     1       8.331   7.138  18.894  0.00  0.00    +0.000 N 
ATOM      7  H   UNL     1       9.722   8.923  20.084  0.00  0.00    +0.000 HD
ATOM      8  H   UNL     1       8.735   6.681  19.692  0.00  0.00    +0.000 HD
ENDROOT
BRANCH   5   9
ATOM      9  C   UNL     1       9.427  10.666  19.085  0.00  0.00    +0.000 A 
ATOM     10  C   UNL     1       9.951  11.224  17.918  0.00  0.00    +0.000 A 
ATOM     11  C   UNL     1      10.131  12.605  17.807  0.00  0.00    +0.000 A 
ATOM     12  C   UNL     1       9.774  13.406  18.875  0.00  0.00    +0.000 A 
ATOM     13  N   UNL     1       9.254  12.927  20.022  0.00  0.00    +0.000 NA
ATOM     14  C   UNL     1       9.096  11.581  20.093  0.00  0.00    +0.000 A 
ENDBRANCH   5   9
BRANCH   1  15
ATOM     15  S   UNL     1       7.065   4.914  18.121  0.00  0.00    +0.000 S 
BRANCH  15  16
ATOM     16  C   UNL     1       5.333   4.958  17.549  0.00  0.00    +0.000 C 
BRANCH  16  20
ATOM     17  C   UNL     1       1.537   3.157  20.465  0.00  0.00    +0.000 C 
ATOM     18  C   UNL     1       2.768   3.521  19.742  0.00  0.00    +0.000 A 
ATOM     19  C   UNL     1       3.055   4.349  18.685  0.00  0.00    +0.000 A 
ATOM     20  C   UNL     1       4.459   4.245  18.527  0.00  0.00    +0.000 A 
ATOM     21  N   UNL     1       4.981   3.389  19.415  0.00  0.00    +0.000 NA
ATOM     22  O   UNL     1       3.918   2.942  20.180  0.00  0.00    +0.000 OA
ENDBRANCH  16  20
ENDBRANCH  15  16
ENDBRANCH   1  15
TORSDOF 4
ENDMDL
MODEL 5
REMARK VINA RESULT:      -7.4      4.936      6.842
REMARK  Name = 
REMARK  5 active torsions:
REMARK  status: ('A' for Active; 'I' for Inactive)
REMARK    1  A    between atoms: C_1  and  C_2
REMARK    2  A    between atoms: C_4  and  C_5
REMARK    3  A    between atoms: C_5  and  S_6
REMARK    4  A    between atoms: S_6  and  C_7
REMARK    5  A    between atoms: N_11  and  C_12
REMARK                            x       y       z     vdW  Elec       q    Type
REMARK                         _______ _______ _______ _____ _____    ______ ____
ROOT
ATOM      1  C   UNL     1       7.255   6.339  17.629  0.00  0.00    +0.000 A 
ATOM      2  N   UNL     1       6.942   7.318  16.820  0.00  0.00    +0.000 NA
ATOM      3  N   UNL     1       7.571   8.449  17.301  0.00  0.00    +0.000 NA
ATOM      4  C   UNL     1       8.248   8.133  18.388  0.00  0.00    +0.000 A 
ATOM      5  N   UNL     1       9.008   8.862  19.237  0.00  0.00    +0.000 N 
ATOM      6  N   UNL     1       8.074   6.792  18.614  0.00  0.00    +0.000 N 
ATOM      7  H   UNL     1       9.489   8.405  20.004  0.00  0.00    +0.000 HD
ATOM      8  H   UNL     1       8.451   6.244  19.367  0.00  0.00    +0.000 HD
ENDROOT
BRANCH   5   9
ATOM      9  C   UNL     1       9.259  10.249  19.185  0.00  0.00    +0.000 A 
ATOM     10  C   UNL     1       9.502  10.964  18.012  0.00  0.00    +0.000 A 
ATOM     11  C   UNL     1       9.746  12.338  18.051  0.00  0.00    +0.000 A 
ATOM     12  C   UNL     1       9.735  12.977  19.277  0.00  0.00    +0.000 A 
ATOM     13  N   UNL     1       9.496  12.343  20.442  0.00  0.00    +0.000 NA
ATOM     14  C   UNL     1       9.266  11.009  20.363  0.00  0.00    +0.000 A 
ENDBRANCH   5   9
BRANCH   1  15
ATOM     15  S   UNL     1       6.765   4.695  17.596  0.00  0.00    +0.000 S 
BRANCH  15  16
ATOM     16  C   UNL     1       5.370   4.761  16.422  0.00  0.00    +0.000 C 
BRANCH  16  20
ATOM     17  C   UNL     1       1.133   2.882  18.583  0.00  0.00    +0.000 C 
ATOM     18  C   UNL     1       2.284   3.632  18.051  0.00  0.00    +0.000 A 
ATOM     19  C   UNL     1       3.432   3.286  17.383  0.00  0.00    +0.000 A 
ATOM     20  C   UNL     1       4.088   4.520  17.147  0.00  0.00    +0.000 A 
ATOM     21  N   UNL     1       3.390   5.541  17.663  0.00  0.00    +0.000 NA
ATOM     22  O   UNL     1       2.256   4.980  18.222  0.00  0.00    +0.000 OA
ENDBRANCH  16  20
ENDBRANCH  15  16
ENDBRANCH   1  15
TORSDOF 4
ENDMDL
MODEL 6
REMARK VINA RESULT:      -7.4      5.097      7.349
REMARK  Name = 
REMARK  5 active torsions:
REMARK  status: ('A' for Active; 'I' for Inactive)
REMARK    1  A    between atoms: C_1  and  C_2
REMARK    2  A    between atoms: C_4  and  C_5
REMARK    3  A    between atoms: C_5  and  S_6
REMARK    4  A    between atoms: S_6  and  C_7
REMARK    5  A    between atoms: N_11  and  C_12
REMARK                            x       y       z     vdW  Elec       q    Type
REMARK                         _______ _______ _______ _____ _____    ______ ____
ROOT
ATOM      1  C   UNL     1       6.978   6.864  17.459  0.00  0.00    +0.000 A 
ATOM      2  N   UNL     1       7.831   6.556  18.401  0.00  0.00    +0.000 NA
ATOM      3  N   UNL     1       8.513   7.715  18.716  0.00  0.00    +0.000 NA
ATOM      4  C   UNL     1       8.060   8.697  17.960  0.00  0.00    +0.000 A 
ATOM      5  N   UNL     1       8.395  10.004  17.861  0.00  0.00    +0.000 N 
ATOM      6  N   UNL     1       7.073   8.186  17.158  0.00  0.00    +0.000 N 
ATOM      7  H   UNL     1       7.879  10.611  17.233  0.00  0.00    +0.000 HD
ATOM      8  H   UNL     1       6.535   8.674  16.463  0.00  0.00    +0.000 HD
ENDROOT
BRANCH   5   9
ATOM      9  C   UNL     1       9.407  10.684  18.569  0.00  0.00    +0.000 A 
ATOM     10  C   UNL     1      10.559  11.213  17.986  0.00  0.00    +0.000 A 
ATOM     11  C   UNL     1      11.515  11.870  18.764  0.00  0.00    +0.000 A 
ATOM     12  C   UNL     1      11.293  11.990  20.123  0.00  0.00    +0.000 A 
ATOM     13  N   UNL     1      10.196  11.510  20.741  0.00  0.00    +0.000 NA
ATOM     14  C   UNL     1       9.292  10.877  19.953  0.00  0.00    +0.000 A 
ENDBRANCH   5   9
BRANCH   1  15
ATOM     15  S   UNL     1       5.866   5.862  16.620  0.00  0.00    +0.000 S 
BRANCH  15  16
ATOM     16  C   UNL     1       4.296   6.309  17.435  0.00  0.00    +0.000 C 
BRANCH  16  20
ATOM     17  C   UNL     1       0.937   2.709  18.818  0.00  0.00    +0.000 C 
ATOM     18  C   UNL     1       2.070   3.577  18.451  0.00  0.00    +0.000 A 
ATOM     19  C   UNL     1       2.184   4.859  17.973  0.00  0.00    +0.000 A 
ATOM     20  C   UNL     1       3.581   5.072  17.867  0.00  0.00    +0.000 A 
ATOM     21  N   UNL     1       4.263   3.978  18.233  0.00  0.00    +0.000 NA
ATOM     22  O   UNL     1       3.311   3.045  18.605  0.00  0.00    +0.000 OA
ENDBRANCH  16  20
ENDBRANCH  15  16
ENDBRANCH   1  15
TORSDOF 4
ENDMDL
MODEL 7
REMARK VINA RESULT:      -7.3      0.688      1.080
REMARK  Name = 
REMARK  5 active torsions:
REMARK  status: ('A' for Active; 'I' for Inactive)
REMARK    1  A    between atoms: C_1  and  C_2
REMARK    2  A    between atoms: C_4  and  C_5
REMARK    3  A    between atoms: C_5  and  S_6
REMARK    4  A    between atoms: S_6  and  C_7
REMARK    5  A    between atoms: N_11  and  C_12
REMARK                            x       y       z     vdW  Elec       q    Type
REMARK                         _______ _______ _______ _____ _____    ______ ____
ROOT
ATOM      1  C   UNL     1       3.390   6.043  18.653  0.00  0.00    +0.000 A 
ATOM      2  N   UNL     1       2.997   7.068  17.942  0.00  0.00    +0.000 NA
ATOM      3  N   UNL     1       2.268   7.883  18.785  0.00  0.00    +0.000 NA
ATOM      4  C   UNL     1       2.234   7.337  19.984  0.00  0.00    +0.000 A 
ATOM      5  N   UNL     1       1.649   7.713  21.145  0.00  0.00    +0.000 N 
ATOM      6  N   UNL     1       2.950   6.169  19.933  0.00  0.00    +0.000 N 
ATOM      7  H   UNL     1       1.786   7.159  21.983  0.00  0.00    +0.000 HD
ATOM      8  H   UNL     1       3.107   5.514  20.678  0.00  0.00    +0.000 HD
ENDROOT
BRANCH   5   9
ATOM      9  C   UNL     1       0.845   8.851  21.368  0.00  0.00    +0.000 A 
ATOM     10  C   UNL     1       0.331   9.222  22.611  0.00  0.00    +0.000 A 
ATOM     11  C   UNL     1      -0.462  10.364  22.743  0.00  0.00    +0.000 A 
ATOM     12  C   UNL     1      -0.722  11.122  21.617  0.00  0.00    +0.000 A 
ATOM     13  N   UNL     1      -0.246  10.820  20.393  0.00  0.00    +0.000 NA
ATOM     14  C   UNL     1       0.519   9.703  20.304  0.00  0.00    +0.000 A 
ENDBRANCH   5   9
BRANCH   1  15
ATOM     15  S   UNL     1       4.298   4.666  18.180  0.00  0.00    +0.000 S 
BRANCH  15  16
ATOM     16  C   UNL     1       5.933   5.410  17.859  0.00  0.00    +0.000 C 
BRANCH  16  20
ATOM     17  C   UNL     1       6.467   3.847  13.019  0.00  0.00    +0.000 C 
ATOM     18  C   UNL     1       6.488   4.451  14.363  0.00  0.00    +0.000 A 
ATOM     19  C   UNL     1       5.720   4.311  15.492  0.00  0.00    +0.000 A 
ATOM     20  C   UNL     1       6.323   5.179  16.437  0.00  0.00    +0.000 A 
ATOM     21  N   UNL     1       7.371   5.819  15.901  0.00  0.00    +0.000 NA
ATOM     22  O   UNL     1       7.476   5.354  14.603  0.00  0.00    +0.000 OA
ENDBRANCH  16  20
ENDBRANCH  15  16
ENDBRANCH   1  15
TORSDOF 4
ENDMDL
MODEL 8
REMARK VINA RESULT:      -7.2      5.104      7.459
REMARK  Name = 
REMARK  5 active torsions:
REMARK  status: ('A' for Active; 'I' for Inactive)
REMARK    1  A    between atoms: C_1  and  C_2
REMARK    2  A    between atoms: C_4  and  C_5
REMARK    3  A    between atoms: C_5  and  S_6
REMARK    4  A    between atoms: S_6  and  C_7
REMARK    5  A    between atoms: N_11  and  C_12
REMARK                            x       y       z     vdW  Elec       q    Type
REMARK                         _______ _______ _______ _____ _____    ______ ____
ROOT
ATOM      1  C   UNL     1       7.043   6.919  17.466  0.00  0.00    +0.000 A 
ATOM      2  N   UNL     1       7.869   6.617  18.434  0.00  0.00    +0.000 NA
ATOM      3  N   UNL     1       8.547   7.775  18.757  0.00  0.00    +0.000 NA
ATOM      4  C   UNL     1       8.119   8.752  17.980  0.00  0.00    +0.000 A 
ATOM      5  N   UNL     1       8.463  10.056  17.878  0.00  0.00    +0.000 N 
ATOM      6  N   UNL     1       7.153   8.238  17.155  0.00  0.00    +0.000 N 
ATOM      7  H   UNL     1       7.968  10.660  17.231  0.00  0.00    +0.000 HD
ATOM      8  H   UNL     1       6.636   8.721  16.442  0.00  0.00    +0.000 HD
ENDROOT
BRANCH   5   9
ATOM      9  C   UNL     1       9.458  10.739  18.608  0.00  0.00    +0.000 A 
ATOM     10  C   UNL     1      10.628  11.257  18.052  0.00  0.00    +0.000 A 
ATOM     11  C   UNL     1      11.565  11.917  18.850  0.00  0.00    +0.000 A 
ATOM     12  C   UNL     1      11.306  12.051  20.201  0.00  0.00    +0.000 A 
ATOM     13  N   UNL     1      10.190  11.581  20.793  0.00  0.00    +0.000 NA
ATOM     14  C   UNL     1       9.305  10.945  19.986  0.00  0.00    +0.000 A 
ENDBRANCH   5   9
BRANCH   1  15
ATOM     15  S   UNL     1       5.951   5.914  16.606  0.00  0.00    +0.000 S 
BRANCH  15  16
ATOM     16  C   UNL     1       5.971   4.405  17.631  0.00  0.00    +0.000 C 
BRANCH  16  20
ATOM     17  C   UNL     1       1.989   5.006  20.783  0.00  0.00    +0.000 C 
ATOM     18  C   UNL     1       3.022   4.638  19.799  0.00  0.00    +0.000 A 
ATOM     19  C   UNL     1       4.178   5.228  19.351  0.00  0.00    +0.000 A 
ATOM     20  C   UNL     1       4.703   4.306  18.411  0.00  0.00    +0.000 A 
ATOM     21  N   UNL     1       3.899   3.241  18.283  0.00  0.00    +0.000 NA
ATOM     22  O   UNL     1       2.850   3.451  19.160  0.00  0.00    +0.000 OA
ENDBRANCH  16  20
ENDBRANCH  15  16
ENDBRANCH   1  15
TORSDOF 4
ENDMDL
MODEL 9
REMARK VINA RESULT:      -7.2      0.836      1.167
REMARK  Name = 
REMARK  5 active torsions:
REMARK  status: ('A' for Active; 'I' for Inactive)
REMARK    1  A    between atoms: C_1  and  C_2
REMARK    2  A    between atoms: C_4  and  C_5
REMARK    3  A    between atoms: C_5  and  S_6
REMARK    4  A    between atoms: S_6  and  C_7
REMARK    5  A    between atoms: N_11  and  C_12
REMARK                            x       y       z     vdW  Elec       q    Type
REMARK                         _______ _______ _______ _____ _____    ______ ____
ROOT
ATOM      1  C   UNL     1       3.128   5.013  19.452  0.00  0.00    +0.000 A 
ATOM      2  N   UNL     1       2.291   4.729  20.416  0.00  0.00    +0.000 NA
ATOM      3  N   UNL     1       1.699   5.918  20.794  0.00  0.00    +0.000 NA
ATOM      4  C   UNL     1       2.189   6.893  20.054  0.00  0.00    +0.000 A 
ATOM      5  N   UNL     1       1.962   8.227  20.032  0.00  0.00    +0.000 N 
ATOM      6  N   UNL     1       3.094   6.344  19.183  0.00  0.00    +0.000 N 
ATOM      7  H   UNL     1       2.421   8.806  19.337  0.00  0.00    +0.000 HD
ATOM      8  H   UNL     1       3.647   6.821  18.493  0.00  0.00    +0.000 HD
ENDROOT
BRANCH   5   9
ATOM      9  C   UNL     1       1.107   8.964  20.877  0.00  0.00    +0.000 A 
ATOM     10  C   UNL     1      -0.028   9.652  20.446  0.00  0.00    +0.000 A 
ATOM     11  C   UNL     1      -0.819  10.362  21.352  0.00  0.00    +0.000 A 
ATOM     12  C   UNL     1      -0.457  10.364  22.686  0.00  0.00    +0.000 A 
ATOM     13  N   UNL     1       0.620   9.710  23.164  0.00  0.00    +0.000 NA
ATOM     14  C   UNL     1       1.364   9.033  22.253  0.00  0.00    +0.000 A 
ENDBRANCH   5   9
BRANCH   1  15
ATOM     15  S   UNL     1       4.190   3.980  18.586  0.00  0.00    +0.000 S 
BRANCH  15  16
ATOM     16  C   UNL     1       5.629   5.074  18.339  0.00  0.00    +0.000 C 
BRANCH  16  20
ATOM     17  C   UNL     1       6.441   3.975  13.410  0.00  0.00    +0.000 C 
ATOM     18  C   UNL     1       6.395   4.436  14.809  0.00  0.00    +0.000 A 
ATOM     19  C   UNL     1       5.534   4.237  15.860  0.00  0.00    +0.000 A 
ATOM     20  C   UNL     1       6.114   4.961  16.932  0.00  0.00    +0.000 A 
ATOM     21  N   UNL     1       7.238   5.578  16.542  0.00  0.00    +0.000 NA
ATOM     22  O   UNL     1       7.414   5.240  15.212  0.00  0.00    +0.000 OA
ENDBRANCH  16  20
ENDBRANCH  15  16
ENDBRANCH   1  15
TORSDOF 4
ENDMDL
