MODEL 1
REMARK VINA RESULT:      -7.0      0.000      0.000
REMARK  Name = 
REMARK  7 active torsions:
REMARK  status: ('A' for Active; 'I' for Inactive)
REMARK    1  A    between atoms: C_1  and  C_2
REMARK    2  A    between atoms: C_2  and  C_3
REMARK    3  A    between atoms: C_5  and  C_6
REMARK    4  A    between atoms: C_7  and  C_8
REMARK    5  A    between atoms: N_10  and  C_11
REMARK    6  A    between atoms: C_11  and  C_12
REMARK    7  A    between atoms: C_12  and  N_13
REMARK                            x       y       z     vdW  Elec       q    Type
REMARK                         _______ _______ _______ _____ _____    ______ ____
ROOT
ATOM      1  C   UNL     1       7.119   5.188  15.777  0.00  0.00    +0.000 C 
ATOM      2  O   UNL     1       7.457   6.351  15.979  0.00  0.00    +0.000 OA
ATOM      3  N   UNL     1       6.941   4.298  16.818  0.00  0.00    +0.000 N 
ATOM      4  H   UNL     1       6.824   3.326  16.560  0.00  0.00    +0.000 HD
ENDROOT
BRANCH   1   9
ATOM      5  C   UNL     1       6.048   3.439  12.501  0.00  0.00    +0.000 A 
ATOM      6  N   UNL     1       7.049   4.213  12.153  0.00  0.00    +0.000 NA
ATOM      7  C   UNL     1       7.531   4.907  13.256  0.00  0.00    +0.000 A 
ATOM      8  C   UNL     1       8.670   5.841  13.041  0.00  0.00    +0.000 C 
ATOM      9  C   UNL     1       6.873   4.639  14.448  0.00  0.00    +0.000 A 
ATOM     10  S   UNL     1       5.618   3.497  14.157  0.00  0.00    +0.000 S 
BRANCH   5  12
ATOM     11  C   UNL     1       6.145   1.345  11.153  0.00  0.00    +0.000 C 
ATOM     12  C   UNL     1       5.306   2.547  11.555  0.00  0.00    +0.000 C 
ENDBRANCH   5  12
ENDBRANCH   1   9
BRANCH   3  13
ATOM     13  C   UNL     1       7.211   4.621  18.208  0.00  0.00    +0.000 C 
BRANCH  13  14
ATOM     14  C   UNL     1       5.903   4.731  19.009  0.00  0.00    +0.000 C 
BRANCH  14  15
ATOM     15  N   UNL     1       5.288   3.429  19.213  0.00  0.00    +0.000 N 
ATOM     16  C   UNL     1       3.934   3.284  18.941  0.00  0.00    +0.000 A 
ATOM     17  C   UNL     1       3.263   3.911  17.888  0.00  0.00    +0.000 A 
ATOM     18  N   UNL     1       1.948   3.721  17.602  0.00  0.00    +0.000 NA
ATOM     19  C   UNL     1       1.318   2.843  18.406  0.00  0.00    +0.000 A 
ATOM     20  C   UNL     1       1.966   2.203  19.445  0.00  0.00    +0.000 A 
ATOM     21  N   UNL     1       3.276   2.416  19.735  0.00  0.00    +0.000 NA
ATOM     22  H   UNL     1       5.450   2.995  20.121  0.00  0.00    +0.000 HD
ENDBRANCH  14  15
ENDBRANCH  13  14
ENDBRANCH   3  13
TORSDOF 5
ENDMDL
MODEL 2
REMARK VINA RESULT:      -6.8      2.773      6.764
REMARK  Name = 
REMARK  7 active torsions:
REMARK  status: ('A' for Active; 'I' for Inactive)
REMARK    1  A    between atoms: C_1  and  C_2
REMARK    2  A    between atoms: C_2  and  C_3
REMARK    3  A    between atoms: C_5  and  C_6
REMARK    4  A    between atoms: C_7  and  C_8
REMARK    5  A    between atoms: N_10  and  C_11
REMARK    6  A    between atoms: C_11  and  C_12
REMARK    7  A    between atoms: C_12  and  N_13
REMARK                            x       y       z     vdW  Elec       q    Type
REMARK                         _______ _______ _______ _____ _____    ______ ____
ROOT
ATOM      1  C   UNL     1       4.203   5.377  17.024  0.00  0.00    +0.000 C 
ATOM      2  O   UNL     1       4.350   6.553  16.701  0.00  0.00    +0.000 OA
ATOM      3  N   UNL     1       4.569   4.347  16.180  0.00  0.00    +0.000 N 
ATOM      4  H   UNL     1       4.267   3.419  16.449  0.00  0.00    +0.000 HD
ENDROOT
BRANCH   1   9
ATOM      5  C   UNL     1       2.959   3.757  20.305  0.00  0.00    +0.000 A 
ATOM      6  N   UNL     1       2.508   4.989  20.350  0.00  0.00    +0.000 NA
ATOM      7  C   UNL     1       2.893   5.688  19.213  0.00  0.00    +0.000 A 
ATOM      8  C   UNL     1       2.470   7.111  19.100  0.00  0.00    +0.000 C 
ATOM      9  C   UNL     1       3.644   4.956  18.304  0.00  0.00    +0.000 A 
ATOM     10  S   UNL     1       3.871   3.362  18.912  0.00  0.00    +0.000 S 
BRANCH   5  12
ATOM     11  C   UNL     1       1.251   2.690  21.773  0.00  0.00    +0.000 C 
ATOM     12  C   UNL     1       2.715   2.733  21.369  0.00  0.00    +0.000 C 
ENDBRANCH   5  12
ENDBRANCH   1   9
BRANCH   3  13
ATOM     13  C   UNL     1       5.071   4.551  14.832  0.00  0.00    +0.000 C 
BRANCH  13  14
ATOM     14  C   UNL     1       6.567   4.206  14.746  0.00  0.00    +0.000 C 
BRANCH  14  15
ATOM     15  N   UNL     1       7.399   5.320  15.170  0.00  0.00    +0.000 N 
ATOM     16  C   UNL     1       7.535   5.568  16.530  0.00  0.00    +0.000 A 
ATOM     17  C   UNL     1       7.614   4.579  17.515  0.00  0.00    +0.000 A 
ATOM     18  N   UNL     1       7.797   4.834  18.836  0.00  0.00    +0.000 NA
ATOM     19  C   UNL     1       7.929   6.138  19.147  0.00  0.00    +0.000 A 
ATOM     20  C   UNL     1       7.867   7.130  18.187  0.00  0.00    +0.000 A 
ATOM     21  N   UNL     1       7.662   6.866  16.870  0.00  0.00    +0.000 NA
ATOM     22  H   UNL     1       7.203   6.218  14.730  0.00  0.00    +0.000 HD
ENDBRANCH  14  15
ENDBRANCH  13  14
ENDBRANCH   3  13
TORSDOF 5
ENDMDL
MODEL 3
REMARK VINA RESULT:      -6.8      4.100      5.354
REMARK  Name = 
REMARK  7 active torsions:
REMARK  status: ('A' for Active; 'I' for Inactive)
REMARK    1  A    between atoms: C_1  and  C_2
REMARK    2  A    between atoms: C_2  and  C_3
REMARK    3  A    between atoms: C_5  and  C_6
REMARK    4  A    between atoms: C_7  and  C_8
REMARK    5  A    between atoms: N_10  and  C_11
REMARK    6  A    between atoms: C_11  and  C_12
REMARK    7  A    between atoms: C_12  and  N_13
REMARK                            x       y       z     vdW  Elec       q    Type
REMARK                         _______ _______ _______ _____ _____    ______ ____
ROOT
ATOM      1  C   UNL     1       4.858   3.946  19.128  0.00  0.00    +0.000 C 
ATOM      2  O   UNL     1       5.019   2.885  19.726  0.00  0.00    +0.000 OA
ATOM      3  N   UNL     1       3.870   4.838  19.497  0.00  0.00    +0.000 N 
ATOM      4  H   UNL     1       3.698   5.604  18.859  0.00  0.00    +0.000 HD
ENDROOT
BRANCH   1   9
ATOM      5  C   UNL     1       6.647   4.787  15.807  0.00  0.00    +0.000 A 
ATOM      6  N   UNL     1       7.383   5.352  16.734  0.00  0.00    +0.000 NA
ATOM      7  C   UNL     1       6.841   5.122  17.992  0.00  0.00    +0.000 A 
ATOM      8  C   UNL     1       7.550   5.698  19.167  0.00  0.00    +0.000 C 
ATOM      9  C   UNL     1       5.676   4.366  17.996  0.00  0.00    +0.000 A 
ATOM     10  S   UNL     1       5.263   3.955  16.377  0.00  0.00    +0.000 S 
BRANCH   5  12
ATOM     11  C   UNL     1       6.083   3.864  13.562  0.00  0.00    +0.000 C 
ATOM     12  C   UNL     1       6.954   4.834  14.343  0.00  0.00    +0.000 C 
ENDBRANCH   5  12
ENDBRANCH   1   9
BRANCH   3  13
ATOM     13  C   UNL     1       2.900   4.575  20.545  0.00  0.00    +0.000 C 
BRANCH  13  14
ATOM     14  C   UNL     1       1.842   5.689  20.604  0.00  0.00    +0.000 C 
BRANCH  14  15
ATOM     15  N   UNL     1       2.305   6.903  19.953  0.00  0.00    +0.000 N 
ATOM     16  C   UNL     1       1.636   8.093  20.213  0.00  0.00    +0.000 A 
ATOM     17  C   UNL     1       1.103   8.452  21.454  0.00  0.00    +0.000 A 
ATOM     18  N   UNL     1       0.495   9.640  21.706  0.00  0.00    +0.000 NA
ATOM     19  C   UNL     1       0.459  10.489  20.661  0.00  0.00    +0.000 A 
ATOM     20  C   UNL     1       0.991  10.158  19.429  0.00  0.00    +0.000 A 
ATOM     21  N   UNL     1       1.578   8.958  19.181  0.00  0.00    +0.000 NA
ATOM     22  H   UNL     1       2.425   6.852  18.942  0.00  0.00    +0.000 HD
ENDBRANCH  14  15
ENDBRANCH  13  14
ENDBRANCH   3  13
TORSDOF 5
ENDMDL
MODEL 4
REMARK VINA RESULT:      -6.7      2.380      7.053
REMARK  Name = 
REMARK  7 active torsions:
REMARK  status: ('A' for Active; 'I' for Inactive)
REMARK    1  A    between atoms: C_1  and  C_2
REMARK    2  A    between atoms: C_2  and  C_3
REMARK    3  A    between atoms: C_5  and  C_6
REMARK    4  A    between atoms: C_7  and  C_8
REMARK    5  A    between atoms: N_10  and  C_11
REMARK    6  A    between atoms: C_11  and  C_12
REMARK    7  A    between atoms: C_12  and  N_13
REMARK                            x       y       z     vdW  Elec       q    Type
REMARK                         _______ _______ _______ _____ _____    ______ ____
ROOT
ATOM      1  C   UNL     1       4.687   5.810  18.135  0.00  0.00    +0.000 C 
ATOM      2  O   UNL     1       4.575   6.418  17.074  0.00  0.00    +0.000 OA
ATOM      3  N   UNL     1       5.924   5.565  18.698  0.00  0.00    +0.000 N 
ATOM      4  H   UNL     1       5.940   4.922  19.480  0.00  0.00    +0.000 HD
ENDROOT
BRANCH   1   9
ATOM      5  C   UNL     1       1.895   3.941  20.045  0.00  0.00    +0.000 A 
ATOM      6  N   UNL     1       1.587   5.211  20.164  0.00  0.00    +0.000 NA
ATOM      7  C   UNL     1       2.526   6.001  19.512  0.00  0.00    +0.000 A 
ATOM      8  C   UNL     1       2.333   7.476  19.551  0.00  0.00    +0.000 C 
ATOM      9  C   UNL     1       3.552   5.299  18.895  0.00  0.00    +0.000 A 
ATOM     10  S   UNL     1       3.322   3.613  19.158  0.00  0.00    +0.000 S 
BRANCH   5  12
ATOM     11  C   UNL     1       1.566   2.451  22.015  0.00  0.00    +0.000 C 
ATOM     12  C   UNL     1       1.086   2.821  20.621  0.00  0.00    +0.000 C 
ENDBRANCH   5  12
ENDBRANCH   1   9
BRANCH   3  13
ATOM     13  C   UNL     1       7.181   5.920  18.064  0.00  0.00    +0.000 C 
BRANCH  13  14
ATOM     14  C   UNL     1       7.484   4.982  16.884  0.00  0.00    +0.000 C 
BRANCH  14  15
ATOM     15  N   UNL     1       7.465   5.692  15.616  0.00  0.00    +0.000 N 
ATOM     16  C   UNL     1       7.145   4.985  14.464  0.00  0.00    +0.000 A 
ATOM     17  C   UNL     1       6.192   3.965  14.395  0.00  0.00    +0.000 A 
ATOM     18  N   UNL     1       5.853   3.316  13.251  0.00  0.00    +0.000 NA
ATOM     19  C   UNL     1       6.493   3.747  12.147  0.00  0.00    +0.000 A 
ATOM     20  C   UNL     1       7.429   4.763  12.191  0.00  0.00    +0.000 A 
ATOM     21  N   UNL     1       7.776   5.391  13.345  0.00  0.00    +0.000 NA
ATOM     22  H   UNL     1       8.295   6.242  15.398  0.00  0.00    +0.000 HD
ENDBRANCH  14  15
ENDBRANCH  13  14
ENDBRANCH   3  13
TORSDOF 5
ENDMDL
MODEL 5
REMARK VINA RESULT:      -6.7      3.616      4.662
REMARK  Name = 
REMARK  7 active torsions:
REMARK  status: ('A' for Active; 'I' for Inactive)
REMARK    1  A    between atoms: C_1  and  C_2
REMARK    2  A    between atoms: C_2  and  C_3
REMARK    3  A    between atoms: C_5  and  C_6
REMARK    4  A    between atoms: C_7  and  C_8
REMARK    5  A    between atoms: N_10  and  C_11
REMARK    6  A    between atoms: C_11  and  C_12
REMARK    7  A    between atoms: C_12  and  N_13
REMARK                            x       y       z     vdW  Elec       q    Type
REMARK                         _______ _______ _______ _____ _____    ______ ____
ROOT
ATOM      1  C   UNL     1       5.314   4.370  18.226  0.00  0.00    +0.000 C 
ATOM      2  O   UNL     1       5.895   3.973  19.233  0.00  0.00    +0.000 OA
ATOM      3  N   UNL     1       3.947   4.570  18.215  0.00  0.00    +0.000 N 
ATOM      4  H   UNL     1       3.527   4.738  17.310  0.00  0.00    +0.000 HD
ENDROOT
BRANCH   1   9
ATOM      5  C   UNL     1       6.810   4.726  14.681  0.00  0.00    +0.000 A 
ATOM      6  N   UNL     1       7.378   5.680  15.379  0.00  0.00    +0.000 NA
ATOM      7  C   UNL     1       6.919   5.661  16.691  0.00  0.00    +0.000 A 
ATOM      8  C   UNL     1       7.459   6.685  17.627  0.00  0.00    +0.000 C 
ATOM      9  C   UNL     1       5.990   4.668  16.969  0.00  0.00    +0.000 A 
ATOM     10  S   UNL     1       5.692   3.756  15.541  0.00  0.00    +0.000 S 
BRANCH   5  12
ATOM     11  C   UNL     1       8.022   5.510  12.649  0.00  0.00    +0.000 C 
ATOM     12  C   UNL     1       7.089   4.462  13.235  0.00  0.00    +0.000 C 
ENDBRANCH   5  12
ENDBRANCH   1   9
BRANCH   3  13
ATOM     13  C   UNL     1       3.079   4.258  19.337  0.00  0.00    +0.000 C 
BRANCH  13  14
ATOM     14  C   UNL     1       2.570   5.544  20.010  0.00  0.00    +0.000 C 
BRANCH  14  15
ATOM     15  N   UNL     1       2.925   6.727  19.244  0.00  0.00    +0.000 N 
ATOM     16  C   UNL     1       2.098   7.841  19.321  0.00  0.00    +0.000 A 
ATOM     17  C   UNL     1       1.440   8.265  20.478  0.00  0.00    +0.000 A 
ATOM     18  N   UNL     1       0.674   9.384  20.552  0.00  0.00    +0.000 NA
ATOM     19  C   UNL     1       0.607  10.098  19.411  0.00  0.00    +0.000 A 
ATOM     20  C   UNL     1       1.260   9.703  18.259  0.00  0.00    +0.000 A 
ATOM     21  N   UNL     1       2.007   8.570  18.191  0.00  0.00    +0.000 NA
ATOM     22  H   UNL     1       3.120   6.578  18.255  0.00  0.00    +0.000 HD
ENDBRANCH  14  15
ENDBRANCH  13  14
ENDBRANCH   3  13
TORSDOF 5
ENDMDL
MODEL 6
REMARK VINA RESULT:      -6.6      1.303      1.356
REMARK  Name = 
REMARK  7 active torsions:
REMARK  status: ('A' for Active; 'I' for Inactive)
REMARK    1  A    between atoms: C_1  and  C_2
REMARK    2  A    between atoms: C_2  and  C_3
REMARK    3  A    between atoms: C_5  and  C_6
REMARK    4  A    between atoms: C_7  and  C_8
REMARK    5  A    between atoms: N_10  and  C_11
REMARK    6  A    between atoms: C_11  and  C_12
REMARK    7  A    between atoms: C_12  and  N_13
REMARK                            x       y       z     vdW  Elec       q    Type
REMARK                         _______ _______ _______ _____ _____    ______ ____
ROOT
ATOM      1  C   UNL     1       6.802   5.320  15.549  0.00  0.00    +0.000 C 
ATOM      2  O   UNL     1       7.702   5.081  16.351  0.00  0.00    +0.000 OA
ATOM      3  N   UNL     1       5.815   6.244  15.828  0.00  0.00    +0.000 N 
ATOM      4  H   UNL     1       5.027   6.263  15.193  0.00  0.00    +0.000 HD
ENDROOT
BRANCH   1   9
ATOM      5  C   UNL     1       6.070   3.306  12.332  0.00  0.00    +0.000 A 
ATOM      6  N   UNL     1       7.075   4.088  12.014  0.00  0.00    +0.000 NA
ATOM      7  C   UNL     1       7.440   4.875  13.100  0.00  0.00    +0.000 A 
ATOM      8  C   UNL     1       8.566   5.829  12.913  0.00  0.00    +0.000 C 
ATOM      9  C   UNL     1       6.688   4.670  14.248  0.00  0.00    +0.000 A 
ATOM     10  S   UNL     1       5.496   3.468  13.937  0.00  0.00    +0.000 S 
BRANCH   5  12
ATOM     11  C   UNL     1       6.380   1.174  11.080  0.00  0.00    +0.000 C 
ATOM     12  C   UNL     1       5.438   2.325  11.395  0.00  0.00    +0.000 C 
ENDBRANCH   5  12
ENDBRANCH   1   9
BRANCH   3  13
ATOM     13  C   UNL     1       5.701   6.942  17.097  0.00  0.00    +0.000 C 
BRANCH  13  14
ATOM     14  C   UNL     1       4.349   6.645  17.767  0.00  0.00    +0.000 C 
BRANCH  14  15
ATOM     15  N   UNL     1       4.450   5.544  18.710  0.00  0.00    +0.000 N 
ATOM     16  C   UNL     1       3.566   4.479  18.586  0.00  0.00    +0.000 A 
ATOM     17  C   UNL     1       3.113   3.958  17.370  0.00  0.00    +0.000 A 
ATOM     18  N   UNL     1       2.288   2.885  17.262  0.00  0.00    +0.000 NA
ATOM     19  C   UNL     1       1.941   2.320  18.435  0.00  0.00    +0.000 A 
ATOM     20  C   UNL     1       2.387   2.811  19.647  0.00  0.00    +0.000 A 
ATOM     21  N   UNL     1       3.196   3.899  19.744  0.00  0.00    +0.000 NA
ATOM     22  H   UNL     1       4.460   5.799  19.697  0.00  0.00    +0.000 HD
ENDBRANCH  14  15
ENDBRANCH  13  14
ENDBRANCH   3  13
TORSDOF 5
ENDMDL
MODEL 7
REMARK VINA RESULT:      -6.5      0.747      1.198
REMARK  Name = 
REMARK  7 active torsions:
REMARK  status: ('A' for Active; 'I' for Inactive)
REMARK    1  A    between atoms: C_1  and  C_2
REMARK    2  A    between atoms: C_2  and  C_3
REMARK    3  A    between atoms: C_5  and  C_6
REMARK    4  A    between atoms: C_7  and  C_8
REMARK    5  A    between atoms: N_10  and  C_11
REMARK    6  A    between atoms: C_11  and  C_12
REMARK    7  A    between atoms: C_12  and  N_13
REMARK                            x       y       z     vdW  Elec       q    Type
REMARK                         _______ _______ _______ _____ _____    ______ ____
ROOT
ATOM      1  C   UNL     1       6.878   5.254  15.654  0.00  0.00    +0.000 C 
ATOM      2  O   UNL     1       6.633   6.436  15.884  0.00  0.00    +0.000 OA
ATOM      3  N   UNL     1       7.322   4.404  16.649  0.00  0.00    +0.000 N 
ATOM      4  H   UNL     1       7.656   3.498  16.346  0.00  0.00    +0.000 HD
ENDROOT
BRANCH   1   9
ATOM      5  C   UNL     1       6.052   3.327  12.408  0.00  0.00    +0.000 A 
ATOM      6  N   UNL     1       7.049   4.117  12.082  0.00  0.00    +0.000 NA
ATOM      7  C   UNL     1       7.445   4.874  13.177  0.00  0.00    +0.000 A 
ATOM      8  C   UNL     1       8.567   5.833  12.984  0.00  0.00    +0.000 C 
ATOM      9  C   UNL     1       6.726   4.639  14.341  0.00  0.00    +0.000 A 
ATOM     10  S   UNL     1       5.525   3.446  14.032  0.00  0.00    +0.000 S 
BRANCH   5  12
ATOM     11  C   UNL     1       6.323   1.225  11.096  0.00  0.00    +0.000 C 
ATOM     12  C   UNL     1       5.393   2.371  11.464  0.00  0.00    +0.000 C 
ENDBRANCH   5  12
ENDBRANCH   1   9
BRANCH   3  13
ATOM     13  C   UNL     1       7.614   4.835  18.004  0.00  0.00    +0.000 C 
BRANCH  13  14
ATOM     14  C   UNL     1       6.356   4.765  18.885  0.00  0.00    +0.000 C 
BRANCH  14  15
ATOM     15  N   UNL     1       5.144   4.709  18.084  0.00  0.00    +0.000 N 
ATOM     16  C   UNL     1       4.171   3.775  18.417  0.00  0.00    +0.000 A 
ATOM     17  C   UNL     1       3.836   3.406  19.723  0.00  0.00    +0.000 A 
ATOM     18  N   UNL     1       2.848   2.528  20.036  0.00  0.00    +0.000 NA
ATOM     19  C   UNL     1       2.170   2.040  18.979  0.00  0.00    +0.000 A 
ATOM     20  C   UNL     1       2.477   2.402  17.681  0.00  0.00    +0.000 A 
ATOM     21  N   UNL     1       3.482   3.265  17.377  0.00  0.00    +0.000 NA
ATOM     22  H   UNL     1       5.276   4.644  17.076  0.00  0.00    +0.000 HD
ENDBRANCH  14  15
ENDBRANCH  13  14
ENDBRANCH   3  13
TORSDOF 5
ENDMDL
MODEL 8
REMARK VINA RESULT:      -6.4      5.025      7.077
REMARK  Name = 
REMARK  7 active torsions:
REMARK  status: ('A' for Active; 'I' for Inactive)
REMARK    1  A    between atoms: C_1  and  C_2
REMARK    2  A    between atoms: C_2  and  C_3
REMARK    3  A    between atoms: C_5  and  C_6
REMARK    4  A    between atoms: C_7  and  C_8
REMARK    5  A    between atoms: N_10  and  C_11
REMARK    6  A    between atoms: C_11  and  C_12
REMARK    7  A    between atoms: C_12  and  N_13
REMARK                            x       y       z     vdW  Elec       q    Type
REMARK                         _______ _______ _______ _____ _____    ______ ____
ROOT
ATOM      1  C   UNL     1       7.250   5.284  17.106  0.00  0.00    +0.000 C 
ATOM      2  O   UNL     1       7.623   4.593  18.051  0.00  0.00    +0.000 OA
ATOM      3  N   UNL     1       7.424   6.655  17.103  0.00  0.00    +0.000 N 
ATOM      4  H   UNL     1       6.947   7.165  16.370  0.00  0.00    +0.000 HD
ENDROOT
BRANCH   1   9
ATOM      5  C   UNL     1       6.023   3.975  13.683  0.00  0.00    +0.000 A 
ATOM      6  N   UNL     1       5.016   3.769  14.499  0.00  0.00    +0.000 NA
ATOM      7  C   UNL     1       5.334   4.202  15.780  0.00  0.00    +0.000 A 
ATOM      8  C   UNL     1       4.301   4.038  16.840  0.00  0.00    +0.000 C 
ATOM      9  C   UNL     1       6.605   4.743  15.916  0.00  0.00    +0.000 A 
ATOM     10  S   UNL     1       7.407   4.689  14.394  0.00  0.00    +0.000 S 
BRANCH   5  12
ATOM     11  C   UNL     1       4.615   3.247  11.760  0.00  0.00    +0.000 C 
ATOM     12  C   UNL     1       6.010   3.633  12.226  0.00  0.00    +0.000 C 
ENDBRANCH   5  12
ENDBRANCH   1   9
BRANCH   3  13
ATOM     13  C   UNL     1       7.972   7.398  18.224  0.00  0.00    +0.000 C 
BRANCH  13  14
ATOM     14  C   UNL     1       8.163   8.880  17.858  0.00  0.00    +0.000 C 
BRANCH  14  15
ATOM     15  N   UNL     1       8.954   9.581  18.856  0.00  0.00    +0.000 N 
ATOM     16  C   UNL     1       9.392  10.868  18.571  0.00  0.00    +0.000 A 
ATOM     17  C   UNL     1       8.654  11.822  17.865  0.00  0.00    +0.000 A 
ATOM     18  N   UNL     1       9.074  13.094  17.637  0.00  0.00    +0.000 NA
ATOM     19  C   UNL     1      10.272  13.397  18.172  0.00  0.00    +0.000 A 
ATOM     20  C   UNL     1      11.012  12.472  18.885  0.00  0.00    +0.000 A 
ATOM     21  N   UNL     1      10.592  11.196  19.089  0.00  0.00    +0.000 NA
ATOM     22  H   UNL     1       9.758   9.076  19.226  0.00  0.00    +0.000 HD
ENDBRANCH  14  15
ENDBRANCH  13  14
ENDBRANCH   3  13
TORSDOF 5
ENDMDL
MODEL 9
REMARK VINA RESULT:      -6.3      4.732      5.545
REMARK  Name = 
REMARK  7 active torsions:
REMARK  status: ('A' for Active; 'I' for Inactive)
REMARK    1  A    between atoms: C_1  and  C_2
REMARK    2  A    between atoms: C_2  and  C_3
REMARK    3  A    between atoms: C_5  and  C_6
REMARK    4  A    between atoms: C_7  and  C_8
REMARK    5  A    between atoms: N_10  and  C_11
REMARK    6  A    between atoms: C_11  and  C_12
REMARK    7  A    between atoms: C_12  and  N_13
REMARK                            x       y       z     vdW  Elec       q    Type
REMARK                         _______ _______ _______ _____ _____    ______ ____
ROOT
ATOM      1  C   UNL     1       4.668   4.637  18.550  0.00  0.00    +0.000 C 
ATOM      2  O   UNL     1       4.496   3.601  19.187  0.00  0.00    +0.000 OA
ATOM      3  N   UNL     1       3.960   5.787  18.840  0.00  0.00    +0.000 N 
ATOM      4  H   UNL     1       4.039   6.542  18.171  0.00  0.00    +0.000 HD
ENDROOT
BRANCH   1   9
ATOM      5  C   UNL     1       6.765   4.780  15.307  0.00  0.00    +0.000 A 
ATOM      6  N   UNL     1       7.582   5.188  16.249  0.00  0.00    +0.000 NA
ATOM      7  C   UNL     1       6.941   5.183  17.482  0.00  0.00    +0.000 A 
ATOM      8  C   UNL     1       7.723   5.624  18.669  0.00  0.00    +0.000 C 
ATOM      9  C   UNL     1       5.619   4.760  17.451  0.00  0.00    +0.000 A 
ATOM     10  S   UNL     1       5.186   4.375  15.831  0.00  0.00    +0.000 S 
BRANCH   5  12
ATOM     11  C   UNL     1       6.245   3.666  13.139  0.00  0.00    +0.000 C 
ATOM     12  C   UNL     1       7.141   4.657  13.863  0.00  0.00    +0.000 C 
ENDBRANCH   5  12
ENDBRANCH   1   9
BRANCH   3  13
ATOM     13  C   UNL     1       2.911   5.854  19.843  0.00  0.00    +0.000 C 
BRANCH  13  14
ATOM     14  C   UNL     1       2.272   7.253  19.874  0.00  0.00    +0.000 C 
BRANCH  14  15
ATOM     15  N   UNL     1       1.411   7.423  21.033  0.00  0.00    +0.000 N 
ATOM     16  C   UNL     1       0.773   8.643  21.213  0.00  0.00    +0.000 A 
ATOM     17  C   UNL     1       0.257   9.431  20.180  0.00  0.00    +0.000 A 
ATOM     18  N   UNL     1      -0.409  10.599  20.373  0.00  0.00    +0.000 NA
ATOM     19  C   UNL     1      -0.571  10.949  21.664  0.00  0.00    +0.000 A 
ATOM     20  C   UNL     1      -0.081  10.177  22.701  0.00  0.00    +0.000 A 
ATOM     21  N   UNL     1       0.604   9.022  22.495  0.00  0.00    +0.000 NA
ATOM     22  H   UNL     1       1.817   7.172  21.934  0.00  0.00    +0.000 HD
ENDBRANCH  14  15
ENDBRANCH  13  14
ENDBRANCH   3  13
TORSDOF 5
ENDMDL
