MODEL 1
REMARK VINA RESULT:      -8.0      0.000      0.000
REMARK  Name = 
REMARK  6 active torsions:
REMARK  status: ('A' for Active; 'I' for Inactive)
REMARK    1  A    between atoms: C_1  and  C_2
REMARK    2  A    between atoms: C_2  and  N_3
REMARK    3  A    between atoms: C_5  and  S_6
REMARK    4  A    between atoms: S_6  and  N_9
REMARK    5  A    between atoms: N_9  and  C_10
REMARK    6  A    between atoms: C_15  and  C_16
REMARK                            x       y       z     vdW  Elec       q    Type
REMARK                         _______ _______ _______ _____ _____    ______ ____
ROOT
ATOM      1  N   UNL     1       4.041   5.511  19.701  0.00  0.00    +0.000 N 
ATOM      2  H   UNL     1       3.805   6.205  18.985  0.00  0.00    +0.000 HD
ENDROOT
BRANCH   1   3
ATOM      3  C   UNL     1       2.969   4.626  20.052  0.00  0.00    +0.000 A 
ATOM      4  C   UNL     1       2.965   4.106  21.352  0.00  0.00    +0.000 A 
ATOM      5  C   UNL     1       1.958   3.228  21.762  0.00  0.00    +0.000 A 
ATOM      6  C   UNL     1       0.949   2.868  20.874  0.00  0.00    +0.000 A 
ATOM      7  C   UNL     1       0.960   3.366  19.573  0.00  0.00    +0.000 A 
ATOM      8  C   UNL     1       1.980   4.237  19.137  0.00  0.00    +0.000 A 
BRANCH   8   9
ATOM      9  C   UNL     1       1.945   4.685  17.699  0.00  0.00    +0.000 C 
ATOM     10  F   UNL     1       2.899   4.112  16.909  0.00  0.00    +0.000 F 
ATOM     11  F   UNL     1       0.752   4.435  17.095  0.00  0.00    +0.000 F 
ATOM     12  F   UNL     1       2.147   6.028  17.577  0.00  0.00    +0.000 F 
ENDBRANCH   8   9
ENDBRANCH   1   3
BRANCH   1  13
ATOM     13  S   UNL     1       5.495   4.784  19.202  0.00  0.00    +0.000 S 
ATOM     14  O   UNL     1       5.254   3.359  19.200  0.00  0.00    +0.000 OA
ATOM     15  O   UNL     1       6.605   5.377  19.916  0.00  0.00    +0.000 OA
BRANCH  13  18
ATOM     16  N   UNL     1       6.342   5.186  15.461  0.00  0.00    +0.000 N 
ATOM     17  C   UNL     1       6.409   4.433  16.596  0.00  0.00    +0.000 A 
ATOM     18  C   UNL     1       5.759   5.169  17.562  0.00  0.00    +0.000 A 
ATOM     19  C   UNL     1       5.338   6.341  16.918  0.00  0.00    +0.000 A 
ATOM     20  N   UNL     1       5.708   6.364  15.632  0.00  0.00    +0.000 NA
BRANCH  16  22
ATOM     21  C   UNL     1       6.044   3.800  13.455  0.00  0.00    +0.000 C 
ATOM     22  C   UNL     1       6.886   4.848  14.160  0.00  0.00    +0.000 C 
ENDBRANCH  16  22
ENDBRANCH  13  18
ENDBRANCH   1  13
TORSDOF 5
ENDMDL
MODEL 2
REMARK VINA RESULT:      -7.9      1.095      1.473
REMARK  Name = 
REMARK  6 active torsions:
REMARK  status: ('A' for Active; 'I' for Inactive)
REMARK    1  A    between atoms: C_1  and  C_2
REMARK    2  A    between atoms: C_2  and  N_3
REMARK    3  A    between atoms: C_5  and  S_6
REMARK    4  A    between atoms: S_6  and  N_9
REMARK    5  A    between atoms: N_9  and  C_10
REMARK    6  A    between atoms: C_15  and  C_16
REMARK                            x       y       z     vdW  Elec       q    Type
REMARK                         _______ _______ _______ _____ _____    ______ ____
ROOT
ATOM      1  N   UNL     1       4.641   3.350  18.987  0.00  0.00    +0.000 N 
ATOM      2  H   UNL     1       5.319   2.630  19.254  0.00  0.00    +0.000 HD
ENDROOT
BRANCH   1   3
ATOM      3  C   UNL     1       3.379   3.261  19.662  0.00  0.00    +0.000 A 
ATOM      4  C   UNL     1       3.384   2.762  20.971  0.00  0.00    +0.000 A 
ATOM      5  C   UNL     1       2.191   2.636  21.687  0.00  0.00    +0.000 A 
ATOM      6  C   UNL     1       0.986   3.009  21.098  0.00  0.00    +0.000 A 
ATOM      7  C   UNL     1       0.973   3.486  19.789  0.00  0.00    +0.000 A 
ATOM      8  C   UNL     1       2.166   3.601  19.045  0.00  0.00    +0.000 A 
BRANCH   8   9
ATOM      9  C   UNL     1       2.055   4.073  17.619  0.00  0.00    +0.000 C 
ATOM     10  F   UNL     1       0.776   4.302  17.201  0.00  0.00    +0.000 F 
ATOM     11  F   UNL     1       2.742   5.224  17.388  0.00  0.00    +0.000 F 
ATOM     12  F   UNL     1       2.555   3.160  16.739  0.00  0.00    +0.000 F 
ENDBRANCH   8   9
ENDBRANCH   1   3
BRANCH   1  13
ATOM     13  S   UNL     1       5.456   4.838  19.091  0.00  0.00    +0.000 S 
ATOM     14  O   UNL     1       6.571   4.627  19.986  0.00  0.00    +0.000 OA
ATOM     15  O   UNL     1       4.498   5.904  19.292  0.00  0.00    +0.000 OA
BRANCH  13  18
ATOM     16  N   UNL     1       6.850   5.139  15.508  0.00  0.00    +0.000 N 
ATOM     17  C   UNL     1       6.080   4.459  16.405  0.00  0.00    +0.000 A 
ATOM     18  C   UNL     1       6.182   5.165  17.583  0.00  0.00    +0.000 A 
ATOM     19  C   UNL     1       7.027   6.247  17.298  0.00  0.00    +0.000 A 
ATOM     20  N   UNL     1       7.453   6.227  16.030  0.00  0.00    +0.000 NA
BRANCH  16  22
ATOM     21  C   UNL     1       5.994   3.868  13.588  0.00  0.00    +0.000 C 
ATOM     22  C   UNL     1       7.074   4.794  14.117  0.00  0.00    +0.000 C 
ENDBRANCH  16  22
ENDBRANCH  13  18
ENDBRANCH   1  13
TORSDOF 5
ENDMDL
MODEL 3
REMARK VINA RESULT:      -7.8      1.000      1.311
REMARK  Name = 
REMARK  6 active torsions:
REMARK  status: ('A' for Active; 'I' for Inactive)
REMARK    1  A    between atoms: C_1  and  C_2
REMARK    2  A    between atoms: C_2  and  N_3
REMARK    3  A    between atoms: C_5  and  S_6
REMARK    4  A    between atoms: S_6  and  N_9
REMARK    5  A    between atoms: N_9  and  C_10
REMARK    6  A    between atoms: C_15  and  C_16
REMARK                            x       y       z     vdW  Elec       q    Type
REMARK                         _______ _______ _______ _____ _____    ______ ____
ROOT
ATOM      1  N   UNL     1       4.622   3.260  18.872  0.00  0.00    +0.000 N 
ATOM      2  H   UNL     1       5.332   2.577  19.153  0.00  0.00    +0.000 HD
ENDROOT
BRANCH   1   3
ATOM      3  C   UNL     1       3.404   3.200  19.627  0.00  0.00    +0.000 A 
ATOM      4  C   UNL     1       3.479   2.683  20.927  0.00  0.00    +0.000 A 
ATOM      5  C   UNL     1       2.332   2.583  21.718  0.00  0.00    +0.000 A 
ATOM      6  C   UNL     1       1.104   3.000  21.213  0.00  0.00    +0.000 A 
ATOM      7  C   UNL     1       1.020   3.495  19.913  0.00  0.00    +0.000 A 
ATOM      8  C   UNL     1       2.165   3.585  19.095  0.00  0.00    +0.000 A 
BRANCH   8   9
ATOM      9  C   UNL     1       1.976   4.079  17.684  0.00  0.00    +0.000 C 
ATOM     10  F   UNL     1       2.311   5.389  17.498  0.00  0.00    +0.000 F 
ATOM     11  F   UNL     1       2.696   3.369  16.774  0.00  0.00    +0.000 F 
ATOM     12  F   UNL     1       0.677   3.987  17.282  0.00  0.00    +0.000 F 
ENDBRANCH   8   9
ENDBRANCH   1   3
BRANCH   1  13
ATOM     13  S   UNL     1       5.406   4.768  18.811  0.00  0.00    +0.000 S 
ATOM     14  O   UNL     1       6.722   4.562  19.370  0.00  0.00    +0.000 OA
ATOM     15  O   UNL     1       4.515   5.798  19.297  0.00  0.00    +0.000 OA
BRANCH  13  18
ATOM     16  N   UNL     1       6.316   5.187  15.086  0.00  0.00    +0.000 N 
ATOM     17  C   UNL     1       6.363   4.428  16.219  0.00  0.00    +0.000 A 
ATOM     18  C   UNL     1       5.698   5.161  17.177  0.00  0.00    +0.000 A 
ATOM     19  C   UNL     1       5.288   6.336  16.531  0.00  0.00    +0.000 A 
ATOM     20  N   UNL     1       5.679   6.365  15.253  0.00  0.00    +0.000 NA
BRANCH  16  22
ATOM     21  C   UNL     1       6.165   3.681  13.152  0.00  0.00    +0.000 C 
ATOM     22  C   UNL     1       6.882   4.855  13.794  0.00  0.00    +0.000 C 
ENDBRANCH  16  22
ENDBRANCH  13  18
ENDBRANCH   1  13
TORSDOF 5
ENDMDL
MODEL 4
REMARK VINA RESULT:      -7.4      1.480      1.727
REMARK  Name = 
REMARK  6 active torsions:
REMARK  status: ('A' for Active; 'I' for Inactive)
REMARK    1  A    between atoms: C_1  and  C_2
REMARK    2  A    between atoms: C_2  and  N_3
REMARK    3  A    between atoms: C_5  and  S_6
REMARK    4  A    between atoms: S_6  and  N_9
REMARK    5  A    between atoms: N_9  and  C_10
REMARK    6  A    between atoms: C_15  and  C_16
REMARK                            x       y       z     vdW  Elec       q    Type
REMARK                         _______ _______ _______ _____ _____    ______ ____
ROOT
ATOM      1  N   UNL     1       5.052   3.408  19.365  0.00  0.00    +0.000 N 
ATOM      2  H   UNL     1       5.756   2.977  19.970  0.00  0.00    +0.000 HD
ENDROOT
BRANCH   1   3
ATOM      3  C   UNL     1       3.698   3.230  19.804  0.00  0.00    +0.000 A 
ATOM      4  C   UNL     1       3.420   3.493  21.151  0.00  0.00    +0.000 A 
ATOM      5  C   UNL     1       2.126   3.331  21.654  0.00  0.00    +0.000 A 
ATOM      6  C   UNL     1       1.104   2.905  20.810  0.00  0.00    +0.000 A 
ATOM      7  C   UNL     1       1.380   2.623  19.475  0.00  0.00    +0.000 A 
ATOM      8  C   UNL     1       2.684   2.762  18.956  0.00  0.00    +0.000 A 
BRANCH   8   9
ATOM      9  C   UNL     1       2.905   2.382  17.515  0.00  0.00    +0.000 C 
ATOM     10  F   UNL     1       4.054   1.682  17.288  0.00  0.00    +0.000 F 
ATOM     11  F   UNL     1       1.894   1.628  17.006  0.00  0.00    +0.000 F 
ATOM     12  F   UNL     1       2.993   3.476  16.707  0.00  0.00    +0.000 F 
ENDBRANCH   8   9
ENDBRANCH   1   3
BRANCH   1  13
ATOM     13  S   UNL     1       5.562   5.008  19.100  0.00  0.00    +0.000 S 
ATOM     14  O   UNL     1       6.696   5.220  19.969  0.00  0.00    +0.000 OA
ATOM     15  O   UNL     1       4.415   5.890  19.101  0.00  0.00    +0.000 OA
BRANCH  13  18
ATOM     16  N   UNL     1       6.748   4.813  15.435  0.00  0.00    +0.000 N 
ATOM     17  C   UNL     1       6.001   4.286  16.448  0.00  0.00    +0.000 A 
ATOM     18  C   UNL     1       6.210   5.117  17.526  0.00  0.00    +0.000 A 
ATOM     19  C   UNL     1       7.090   6.109  17.069  0.00  0.00    +0.000 A 
ATOM     20  N   UNL     1       7.436   5.917  15.792  0.00  0.00    +0.000 NA
BRANCH  16  22
ATOM     21  C   UNL     1       5.527   3.865  13.527  0.00  0.00    +0.000 C 
ATOM     22  C   UNL     1       6.870   4.297  14.086  0.00  0.00    +0.000 C 
ENDBRANCH  16  22
ENDBRANCH  13  18
ENDBRANCH   1  13
TORSDOF 5
ENDMDL
MODEL 5
REMARK VINA RESULT:      -7.4      1.727      2.205
REMARK  Name = 
REMARK  6 active torsions:
REMARK  status: ('A' for Active; 'I' for Inactive)
REMARK    1  A    between atoms: C_1  and  C_2
REMARK    2  A    between atoms: C_2  and  N_3
REMARK    3  A    between atoms: C_5  and  S_6
REMARK    4  A    between atoms: S_6  and  N_9
REMARK    5  A    between atoms: N_9  and  C_10
REMARK    6  A    between atoms: C_15  and  C_16
REMARK                            x       y       z     vdW  Elec       q    Type
REMARK                         _______ _______ _______ _____ _____    ______ ____
ROOT
ATOM      1  N   UNL     1       4.911   3.687  19.639  0.00  0.00    +0.000 N 
ATOM      2  H   UNL     1       5.431   3.423  20.480  0.00  0.00    +0.000 HD
ENDROOT
BRANCH   1   3
ATOM      3  C   UNL     1       3.485   3.623  19.774  0.00  0.00    +0.000 A 
ATOM      4  C   UNL     1       2.905   4.363  20.813  0.00  0.00    +0.000 A 
ATOM      5  C   UNL     1       1.522   4.341  21.014  0.00  0.00    +0.000 A 
ATOM      6  C   UNL     1       0.713   3.579  20.176  0.00  0.00    +0.000 A 
ATOM      7  C   UNL     1       1.287   2.826  19.155  0.00  0.00    +0.000 A 
ATOM      8  C   UNL     1       2.682   2.821  18.950  0.00  0.00    +0.000 A 
BRANCH   8   9
ATOM      9  C   UNL     1       3.223   1.935  17.859  0.00  0.00    +0.000 C 
ATOM     10  F   UNL     1       4.187   2.518  17.088  0.00  0.00    +0.000 F 
ATOM     11  F   UNL     1       3.763   0.780  18.334  0.00  0.00    +0.000 F 
ATOM     12  F   UNL     1       2.252   1.556  16.981  0.00  0.00    +0.000 F 
ENDBRANCH   8   9
ENDBRANCH   1   3
BRANCH   1  13
ATOM     13  S   UNL     1       5.561   5.169  19.118  0.00  0.00    +0.000 S 
ATOM     14  O   UNL     1       6.673   5.454  19.996  0.00  0.00    +0.000 OA
ATOM     15  O   UNL     1       4.491   6.118  18.898  0.00  0.00    +0.000 OA
BRANCH  13  18
ATOM     16  N   UNL     1       6.717   4.807  15.457  0.00  0.00    +0.000 N 
ATOM     17  C   UNL     1       5.730   5.132  16.340  0.00  0.00    +0.000 A 
ATOM     18  C   UNL     1       6.279   4.939  17.588  0.00  0.00    +0.000 A 
ATOM     19  C   UNL     1       7.590   4.502  17.356  0.00  0.00    +0.000 A 
ATOM     20  N   UNL     1       7.859   4.402  16.050  0.00  0.00    +0.000 NA
BRANCH  16  22
ATOM     21  C   UNL     1       5.740   3.738  13.473  0.00  0.00    +0.000 C 
ATOM     22  C   UNL     1       6.635   4.840  14.010  0.00  0.00    +0.000 C 
ENDBRANCH  16  22
ENDBRANCH  13  18
ENDBRANCH   1  13
TORSDOF 5
ENDMDL
MODEL 6
REMARK VINA RESULT:      -7.3      1.928      2.290
REMARK  Name = 
REMARK  6 active torsions:
REMARK  status: ('A' for Active; 'I' for Inactive)
REMARK    1  A    between atoms: C_1  and  C_2
REMARK    2  A    between atoms: C_2  and  N_3
REMARK    3  A    between atoms: C_5  and  S_6
REMARK    4  A    between atoms: S_6  and  N_9
REMARK    5  A    between atoms: N_9  and  C_10
REMARK    6  A    between atoms: C_15  and  C_16
REMARK                            x       y       z     vdW  Elec       q    Type
REMARK                         _______ _______ _______ _____ _____    ______ ____
ROOT
ATOM      1  N   UNL     1       3.055   5.059  17.608  0.00  0.00    +0.000 N 
ATOM      2  H   UNL     1       3.191   4.424  16.817  0.00  0.00    +0.000 HD
ENDROOT
BRANCH   1   3
ATOM      3  C   UNL     1       2.571   4.429  18.803  0.00  0.00    +0.000 A 
ATOM      4  C   UNL     1       2.083   5.263  19.816  0.00  0.00    +0.000 A 
ATOM      5  C   UNL     1       1.606   4.722  21.013  0.00  0.00    +0.000 A 
ATOM      6  C   UNL     1       1.615   3.343  21.201  0.00  0.00    +0.000 A 
ATOM      7  C   UNL     1       2.119   2.510  20.205  0.00  0.00    +0.000 A 
ATOM      8  C   UNL     1       2.622   3.042  18.999  0.00  0.00    +0.000 A 
BRANCH   8   9
ATOM      9  C   UNL     1       3.199   2.074  17.999  0.00  0.00    +0.000 C 
ATOM     10  F   UNL     1       3.544   0.862  18.523  0.00  0.00    +0.000 F 
ATOM     11  F   UNL     1       2.353   1.814  16.966  0.00  0.00    +0.000 F 
ATOM     12  F   UNL     1       4.343   2.550  17.430  0.00  0.00    +0.000 F 
ENDBRANCH   8   9
ENDBRANCH   1   3
BRANCH   1  13
ATOM     13  S   UNL     1       4.489   5.961  17.752  0.00  0.00    +0.000 S 
ATOM     14  O   UNL     1       5.092   5.565  19.004  0.00  0.00    +0.000 OA
ATOM     15  O   UNL     1       4.228   7.346  17.426  0.00  0.00    +0.000 OA
BRANCH  13  18
ATOM     16  N   UNL     1       6.557   4.723  14.740  0.00  0.00    +0.000 N 
ATOM     17  C   UNL     1       5.346   5.090  15.250  0.00  0.00    +0.000 A 
ATOM     18  C   UNL     1       5.589   5.421  16.565  0.00  0.00    +0.000 A 
ATOM     19  C   UNL     1       6.965   5.224  16.752  0.00  0.00    +0.000 A 
ATOM     20  N   UNL     1       7.561   4.780  15.640  0.00  0.00    +0.000 NA
BRANCH  16  22
ATOM     21  C   UNL     1       5.647   3.551  12.783  0.00  0.00    +0.000 C 
ATOM     22  C   UNL     1       6.833   4.282  13.387  0.00  0.00    +0.000 C 
ENDBRANCH  16  22
ENDBRANCH  13  18
ENDBRANCH   1  13
TORSDOF 5
ENDMDL
MODEL 7
REMARK VINA RESULT:      -7.2      1.962      2.389
REMARK  Name = 
REMARK  6 active torsions:
REMARK  status: ('A' for Active; 'I' for Inactive)
REMARK    1  A    between atoms: C_1  and  C_2
REMARK    2  A    between atoms: C_2  and  N_3
REMARK    3  A    between atoms: C_5  and  S_6
REMARK    4  A    between atoms: S_6  and  N_9
REMARK    5  A    between atoms: N_9  and  C_10
REMARK    6  A    between atoms: C_15  and  C_16
REMARK                            x       y       z     vdW  Elec       q    Type
REMARK                         _______ _______ _______ _____ _____    ______ ____
ROOT
ATOM      1  N   UNL     1       3.076   5.045  17.598  0.00  0.00    +0.000 N 
ATOM      2  H   UNL     1       3.221   4.403  16.814  0.00  0.00    +0.000 HD
ENDROOT
BRANCH   1   3
ATOM      3  C   UNL     1       2.565   4.429  18.789  0.00  0.00    +0.000 A 
ATOM      4  C   UNL     1       2.052   5.275  19.780  0.00  0.00    +0.000 A 
ATOM      5  C   UNL     1       1.548   4.747  20.972  0.00  0.00    +0.000 A 
ATOM      6  C   UNL     1       1.555   3.371  21.177  0.00  0.00    +0.000 A 
ATOM      7  C   UNL     1       2.084   2.527  20.204  0.00  0.00    +0.000 A 
ATOM      8  C   UNL     1       2.614   3.044  19.003  0.00  0.00    +0.000 A 
BRANCH   8   9
ATOM      9  C   UNL     1       3.217   2.066  18.029  0.00  0.00    +0.000 C 
ATOM     10  F   UNL     1       4.359   2.504  17.426  0.00  0.00    +0.000 F 
ATOM     11  F   UNL     1       3.523   0.870  18.601  0.00  0.00    +0.000 F 
ATOM     12  F   UNL     1       2.365   1.777  17.004  0.00  0.00    +0.000 F 
ENDBRANCH   8   9
ENDBRANCH   1   3
BRANCH   1  13
ATOM     13  S   UNL     1       4.514   5.937  17.760  0.00  0.00    +0.000 S 
ATOM     14  O   UNL     1       5.130   5.491  18.988  0.00  0.00    +0.000 OA
ATOM     15  O   UNL     1       4.252   7.335  17.493  0.00  0.00    +0.000 OA
BRANCH  13  18
ATOM     16  N   UNL     1       6.533   4.743  14.699  0.00  0.00    +0.000 N 
ATOM     17  C   UNL     1       5.320   5.017  15.260  0.00  0.00    +0.000 A 
ATOM     18  C   UNL     1       5.598   5.443  16.540  0.00  0.00    +0.000 A 
ATOM     19  C   UNL     1       6.995   5.394  16.655  0.00  0.00    +0.000 A 
ATOM     20  N   UNL     1       7.572   4.948  15.534  0.00  0.00    +0.000 NA
BRANCH  16  22
ATOM     21  C   UNL     1       7.755   5.146  12.606  0.00  0.00    +0.000 C 
ATOM     22  C   UNL     1       6.780   4.256  13.355  0.00  0.00    +0.000 C 
ENDBRANCH  16  22
ENDBRANCH  13  18
ENDBRANCH   1  13
TORSDOF 5
ENDMDL
MODEL 8
REMARK VINA RESULT:      -7.2      2.191      2.808
REMARK  Name = 
REMARK  6 active torsions:
REMARK  status: ('A' for Active; 'I' for Inactive)
REMARK    1  A    between atoms: C_1  and  C_2
REMARK    2  A    between atoms: C_2  and  N_3
REMARK    3  A    between atoms: C_5  and  S_6
REMARK    4  A    between atoms: S_6  and  N_9
REMARK    5  A    between atoms: N_9  and  C_10
REMARK    6  A    between atoms: C_15  and  C_16
REMARK                            x       y       z     vdW  Elec       q    Type
REMARK                         _______ _______ _______ _____ _____    ______ ____
ROOT
ATOM      1  N   UNL     1       2.640   4.171  17.684  0.00  0.00    +0.000 N 
ATOM      2  H   UNL     1       2.029   3.352  17.611  0.00  0.00    +0.000 HD
ENDROOT
BRANCH   1   3
ATOM      3  C   UNL     1       2.286   5.090  18.726  0.00  0.00    +0.000 A 
ATOM      4  C   UNL     1       2.590   6.442  18.522  0.00  0.00    +0.000 A 
ATOM      5  C   UNL     1       2.286   7.394  19.499  0.00  0.00    +0.000 A 
ATOM      6  C   UNL     1       1.674   6.998  20.684  0.00  0.00    +0.000 A 
ATOM      7  C   UNL     1       1.387   5.652  20.901  0.00  0.00    +0.000 A 
ATOM      8  C   UNL     1       1.706   4.676  19.934  0.00  0.00    +0.000 A 
BRANCH   8   9
ATOM      9  C   UNL     1       1.412   3.238  20.273  0.00  0.00    +0.000 C 
ATOM     10  F   UNL     1       0.492   2.644  19.459  0.00  0.00    +0.000 F 
ATOM     11  F   UNL     1       2.519   2.448  20.234  0.00  0.00    +0.000 F 
ATOM     12  F   UNL     1       0.907   3.103  21.532  0.00  0.00    +0.000 F 
ENDBRANCH   8   9
ENDBRANCH   1   3
BRANCH   1  13
ATOM     13  S   UNL     1       4.234   3.580  17.700  0.00  0.00    +0.000 S 
ATOM     14  O   UNL     1       4.147   2.174  17.380  0.00  0.00    +0.000 OA
ATOM     15  O   UNL     1       4.918   4.060  18.881  0.00  0.00    +0.000 OA
BRANCH  13  18
ATOM     16  N   UNL     1       6.240   4.619  14.574  0.00  0.00    +0.000 N 
ATOM     17  C   UNL     1       5.738   3.621  15.358  0.00  0.00    +0.000 A 
ATOM     18  C   UNL     1       5.078   4.261  16.384  0.00  0.00    +0.000 A 
ATOM     19  C   UNL     1       5.235   5.632  16.133  0.00  0.00    +0.000 A 
ATOM     20  N   UNL     1       5.962   5.857  15.032  0.00  0.00    +0.000 NA
BRANCH  16  22
ATOM     21  C   UNL     1       6.352   3.519  12.380  0.00  0.00    +0.000 C 
ATOM     22  C   UNL     1       7.022   4.462  13.363  0.00  0.00    +0.000 C 
ENDBRANCH  16  22
ENDBRANCH  13  18
ENDBRANCH   1  13
TORSDOF 5
ENDMDL
MODEL 9
REMARK VINA RESULT:      -7.2      1.981      2.568
REMARK  Name = 
REMARK  6 active torsions:
REMARK  status: ('A' for Active; 'I' for Inactive)
REMARK    1  A    between atoms: C_1  and  C_2
REMARK    2  A    between atoms: C_2  and  N_3
REMARK    3  A    between atoms: C_5  and  S_6
REMARK    4  A    between atoms: S_6  and  N_9
REMARK    5  A    between atoms: N_9  and  C_10
REMARK    6  A    between atoms: C_15  and  C_16
REMARK                            x       y       z     vdW  Elec       q    Type
REMARK                         _______ _______ _______ _____ _____    ______ ____
ROOT
ATOM      1  N   UNL     1       3.610   4.817  17.220  0.00  0.00    +0.000 N 
ATOM      2  H   UNL     1       3.563   3.925  16.720  0.00  0.00    +0.000 HD
ENDROOT
BRANCH   1   3
ATOM      3  C   UNL     1       2.857   4.859  18.440  0.00  0.00    +0.000 A 
ATOM      4  C   UNL     1       2.664   6.113  19.033  0.00  0.00    +0.000 A 
ATOM      5  C   UNL     1       1.950   6.230  20.229  0.00  0.00    +0.000 A 
ATOM      6  C   UNL     1       1.426   5.093  20.836  0.00  0.00    +0.000 A 
ATOM      7  C   UNL     1       1.633   3.842  20.262  0.00  0.00    +0.000 A 
ATOM      8  C   UNL     1       2.367   3.703  19.066  0.00  0.00    +0.000 A 
BRANCH   8   9
ATOM      9  C   UNL     1       2.590   2.308  18.543  0.00  0.00    +0.000 C 
ATOM     10  F   UNL     1       2.245   2.136  17.234  0.00  0.00    +0.000 F 
ATOM     11  F   UNL     1       3.885   1.904  18.651  0.00  0.00    +0.000 F 
ATOM     12  F   UNL     1       1.856   1.384  19.225  0.00  0.00    +0.000 F 
ENDBRANCH   8   9
ENDBRANCH   1   3
BRANCH   1  13
ATOM     13  S   UNL     1       5.259   5.218  17.330  0.00  0.00    +0.000 S 
ATOM     14  O   UNL     1       5.855   4.241  18.212  0.00  0.00    +0.000 OA
ATOM     15  O   UNL     1       5.399   6.641  17.550  0.00  0.00    +0.000 OA
BRANCH  13  18
ATOM     16  N   UNL     1       6.486   4.251  13.804  0.00  0.00    +0.000 N 
ATOM     17  C   UNL     1       5.529   4.154  14.772  0.00  0.00    +0.000 A 
ATOM     18  C   UNL     1       5.990   4.923  15.818  0.00  0.00    +0.000 A 
ATOM     19  C   UNL     1       7.221   5.439  15.389  0.00  0.00    +0.000 A 
ATOM     20  N   UNL     1       7.538   5.016  14.160  0.00  0.00    +0.000 NA
BRANCH  16  22
ATOM     21  C   UNL     1       5.057   3.303  12.045  0.00  0.00    +0.000 C 
ATOM     22  C   UNL     1       6.471   3.615  12.501  0.00  0.00    +0.000 C 
ENDBRANCH  16  22
ENDBRANCH  13  18
ENDBRANCH   1  13
TORSDOF 5
ENDMDL
