MODEL 1
REMARK VINA RESULT:      -7.5      0.000      0.000
REMARK  Name = 
REMARK  3 active torsions:
REMARK  status: ('A' for Active; 'I' for Inactive)
REMARK    1  A    between atoms: C_1  and  O_2
REMARK    2  A    between atoms: O_2  and  C_3
REMARK    3  A    between atoms: C_15  and  C_16
REMARK                            x       y       z     vdW  Elec       q    Type
REMARK                         _______ _______ _______ _____ _____    ______ ____
ROOT
ATOM      1  C   UNL     1       5.843   4.652  15.164  0.00  0.00    +0.000 A 
ATOM      2  C   UNL     1       5.704   6.030  15.333  0.00  0.00    +0.000 A 
ATOM      3  C   UNL     1       4.946   6.559  16.385  0.00  0.00    +0.000 A 
ATOM      4  C   UNL     1       4.328   5.660  17.260  0.00  0.00    +0.000 A 
ATOM      5  N   UNL     1       3.542   5.899  18.365  0.00  0.00    +0.000 N 
ATOM      6  C   UNL     1       3.152   4.712  18.921  0.00  0.00    +0.000 A 
ATOM      7  C   UNL     1       3.681   3.685  18.167  0.00  0.00    +0.000 A 
ATOM      8  C   UNL     1       4.431   4.275  17.109  0.00  0.00    +0.000 A 
ATOM      9  C   UNL     1       5.192   3.769  16.035  0.00  0.00    +0.000 A 
ATOM     10  C   UNL     1       3.442   2.296  18.503  0.00  0.00    +0.000 C 
ATOM     11  O   UNL     1       3.877   1.337  17.884  0.00  0.00    +0.000 OA
ATOM     12  C   UNL     1       2.592   2.107  19.718  0.00  0.00    +0.000 C 
ATOM     13  C   UNL     1       2.074   3.105  20.462  0.00  0.00    +0.000 C 
ATOM     14  C   UNL     1       1.230   2.871  21.674  0.00  0.00    +0.000 C 
ATOM     15  C   UNL     1       2.335   4.537  20.089  0.00  0.00    +0.000 C 
ATOM     16  O   UNL     1       1.878   5.466  20.743  0.00  0.00    +0.000 OA
ATOM     17  H   UNL     1       3.291   6.813  18.720  0.00  0.00    +0.000 HD
ENDROOT
BRANCH   1  19
ATOM     18  C   UNL     1       5.789   3.645  13.025  0.00  0.00    +0.000 C 
ATOM     19  O   UNL     1       6.553   4.058  14.154  0.00  0.00    +0.000 OA
ENDBRANCH   1  19
TORSDOF 1
ENDMDL
MODEL 2
REMARK VINA RESULT:      -7.5      2.665      3.769
REMARK  Name = 
REMARK  3 active torsions:
REMARK  status: ('A' for Active; 'I' for Inactive)
REMARK    1  A    between atoms: C_1  and  O_2
REMARK    2  A    between atoms: O_2  and  C_3
REMARK    3  A    between atoms: C_15  and  C_16
REMARK                            x       y       z     vdW  Elec       q    Type
REMARK                         _______ _______ _______ _____ _____    ______ ____
ROOT
ATOM      1  C   UNL     1       6.954   7.256  17.554  0.00  0.00    +0.000 A 
ATOM      2  C   UNL     1       7.908   6.269  17.801  0.00  0.00    +0.000 A 
ATOM      3  C   UNL     1       7.532   4.960  18.124  0.00  0.00    +0.000 A 
ATOM      4  C   UNL     1       6.164   4.674  18.196  0.00  0.00    +0.000 A 
ATOM      5  N   UNL     1       5.521   3.490  18.481  0.00  0.00    +0.000 N 
ATOM      6  C   UNL     1       4.168   3.677  18.439  0.00  0.00    +0.000 A 
ATOM      7  C   UNL     1       3.921   4.999  18.130  0.00  0.00    +0.000 A 
ATOM      8  C   UNL     1       5.182   5.642  17.972  0.00  0.00    +0.000 A 
ATOM      9  C   UNL     1       5.590   6.956  17.658  0.00  0.00    +0.000 A 
ATOM     10  C   UNL     1       2.571   5.511  18.014  0.00  0.00    +0.000 C 
ATOM     11  O   UNL     1       2.277   6.667  17.744  0.00  0.00    +0.000 OA
ATOM     12  C   UNL     1       1.512   4.484  18.253  0.00  0.00    +0.000 C 
ATOM     13  C   UNL     1       1.745   3.190  18.552  0.00  0.00    +0.000 C 
ATOM     14  C   UNL     1       0.654   2.192  18.781  0.00  0.00    +0.000 C 
ATOM     15  C   UNL     1       3.156   2.684  18.670  0.00  0.00    +0.000 C 
ATOM     16  O   UNL     1       3.399   1.516  18.942  0.00  0.00    +0.000 OA
ATOM     17  H   UNL     1       5.977   2.611  18.689  0.00  0.00    +0.000 HD
ENDROOT
BRANCH   1  19
ATOM     18  C   UNL     1       8.262   9.167  18.034  0.00  0.00    +0.000 C 
ATOM     19  O   UNL     1       7.241   8.560  17.248  0.00  0.00    +0.000 OA
ENDBRANCH   1  19
TORSDOF 1
ENDMDL
MODEL 3
REMARK VINA RESULT:      -7.0      1.462      1.485
REMARK  Name = 
REMARK  3 active torsions:
REMARK  status: ('A' for Active; 'I' for Inactive)
REMARK    1  A    between atoms: C_1  and  O_2
REMARK    2  A    between atoms: O_2  and  C_3
REMARK    3  A    between atoms: C_15  and  C_16
REMARK                            x       y       z     vdW  Elec       q    Type
REMARK                         _______ _______ _______ _____ _____    ______ ____
ROOT
ATOM      1  C   UNL     1       6.560   5.341  15.707  0.00  0.00    +0.000 A 
ATOM      2  C   UNL     1       7.212   6.074  16.699  0.00  0.00    +0.000 A 
ATOM      3  C   UNL     1       6.700   6.151  18.000  0.00  0.00    +0.000 A 
ATOM      4  C   UNL     1       5.509   5.470  18.272  0.00  0.00    +0.000 A 
ATOM      5  N   UNL     1       4.796   5.369  19.447  0.00  0.00    +0.000 N 
ATOM      6  C   UNL     1       3.686   4.597  19.249  0.00  0.00    +0.000 A 
ATOM      7  C   UNL     1       3.666   4.193  17.929  0.00  0.00    +0.000 A 
ATOM      8  C   UNL     1       4.821   4.741  17.299  0.00  0.00    +0.000 A 
ATOM      9  C   UNL     1       5.353   4.689  15.994  0.00  0.00    +0.000 A 
ATOM     10  C   UNL     1       2.604   3.359  17.406  0.00  0.00    +0.000 C 
ATOM     11  O   UNL     1       2.522   2.964  16.252  0.00  0.00    +0.000 OA
ATOM     12  C   UNL     1       1.569   2.992  18.421  0.00  0.00    +0.000 C 
ATOM     13  C   UNL     1       1.582   3.379  19.713  0.00  0.00    +0.000 C 
ATOM     14  C   UNL     1       0.528   2.986  20.697  0.00  0.00    +0.000 C 
ATOM     15  C   UNL     1       2.695   4.248  20.229  0.00  0.00    +0.000 C 
ATOM     16  O   UNL     1       2.735   4.617  21.395  0.00  0.00    +0.000 OA
ATOM     17  H   UNL     1       5.052   5.797  20.327  0.00  0.00    +0.000 HD
ENDROOT
BRANCH   1  19
ATOM     18  C   UNL     1       6.490   4.106  13.691  0.00  0.00    +0.000 C 
ATOM     19  O   UNL     1       6.988   5.230  14.411  0.00  0.00    +0.000 OA
ENDBRANCH   1  19
TORSDOF 1
ENDMDL
MODEL 4
REMARK VINA RESULT:      -7.0      2.186      3.509
REMARK  Name = 
REMARK  3 active torsions:
REMARK  status: ('A' for Active; 'I' for Inactive)
REMARK    1  A    between atoms: C_1  and  O_2
REMARK    2  A    between atoms: O_2  and  C_3
REMARK    3  A    between atoms: C_15  and  C_16
REMARK                            x       y       z     vdW  Elec       q    Type
REMARK                         _______ _______ _______ _____ _____    ______ ____
ROOT
ATOM      1  C   UNL     1       6.840   6.928  17.142  0.00  0.00    +0.000 A 
ATOM      2  C   UNL     1       7.481   5.774  16.691  0.00  0.00    +0.000 A 
ATOM      3  C   UNL     1       6.930   4.505  16.909  0.00  0.00    +0.000 A 
ATOM      4  C   UNL     1       5.716   4.432  17.599  0.00  0.00    +0.000 A 
ATOM      5  N   UNL     1       4.957   3.334  17.942  0.00  0.00    +0.000 N 
ATOM      6  C   UNL     1       3.839   3.737  18.617  0.00  0.00    +0.000 A 
ATOM      7  C   UNL     1       3.869   5.113  18.725  0.00  0.00    +0.000 A 
ATOM      8  C   UNL     1       5.056   5.565  18.081  0.00  0.00    +0.000 A 
ATOM      9  C   UNL     1       5.639   6.830  17.856  0.00  0.00    +0.000 A 
ATOM     10  C   UNL     1       2.814   5.844  19.397  0.00  0.00    +0.000 C 
ATOM     11  O   UNL     1       2.774   7.059  19.530  0.00  0.00    +0.000 OA
ATOM     12  C   UNL     1       1.726   4.974  19.937  0.00  0.00    +0.000 C 
ATOM     13  C   UNL     1       1.687   3.630  19.833  0.00  0.00    +0.000 C 
ATOM     14  C   UNL     1       0.576   2.796  20.386  0.00  0.00    +0.000 C 
ATOM     15  C   UNL     1       2.797   2.895  19.134  0.00  0.00    +0.000 C 
ATOM     16  O   UNL     1       2.792   1.676  19.024  0.00  0.00    +0.000 OA
ATOM     17  H   UNL     1       5.186   2.372  17.726  0.00  0.00    +0.000 HD
ENDROOT
BRANCH   1  19
ATOM     18  C   UNL     1       8.176   8.671  18.019  0.00  0.00    +0.000 C 
ATOM     19  O   UNL     1       7.321   8.200  16.982  0.00  0.00    +0.000 OA
ENDBRANCH   1  19
TORSDOF 1
ENDMDL
MODEL 5
REMARK VINA RESULT:      -6.9      1.820      1.993
REMARK  Name = 
REMARK  3 active torsions:
REMARK  status: ('A' for Active; 'I' for Inactive)
REMARK    1  A    between atoms: C_1  and  O_2
REMARK    2  A    between atoms: O_2  and  C_3
REMARK    3  A    between atoms: C_15  and  C_16
REMARK                            x       y       z     vdW  Elec       q    Type
REMARK                         _______ _______ _______ _____ _____    ______ ____
ROOT
ATOM      1  C   UNL     1       6.468   4.816  15.373  0.00  0.00    +0.000 A 
ATOM      2  C   UNL     1       7.521   4.861  16.287  0.00  0.00    +0.000 A 
ATOM      3  C   UNL     1       7.329   4.525  17.633  0.00  0.00    +0.000 A 
ATOM      4  C   UNL     1       6.044   4.144  18.032  0.00  0.00    +0.000 A 
ATOM      5  N   UNL     1       5.580   3.761  19.271  0.00  0.00    +0.000 N 
ATOM      6  C   UNL     1       4.245   3.475  19.197  0.00  0.00    +0.000 A 
ATOM      7  C   UNL     1       3.829   3.681  17.897  0.00  0.00    +0.000 A 
ATOM      8  C   UNL     1       4.963   4.104  17.148  0.00  0.00    +0.000 A 
ATOM      9  C   UNL     1       5.182   4.459  15.800  0.00  0.00    +0.000 A 
ATOM     10  C   UNL     1       2.453   3.463  17.499  0.00  0.00    +0.000 C 
ATOM     11  O   UNL     1       2.014   3.623  16.369  0.00  0.00    +0.000 OA
ATOM     12  C   UNL     1       1.567   3.003  18.611  0.00  0.00    +0.000 C 
ATOM     13  C   UNL     1       1.967   2.797  19.883  0.00  0.00    +0.000 C 
ATOM     14  C   UNL     1       1.047   2.332  20.966  0.00  0.00    +0.000 C 
ATOM     15  C   UNL     1       3.400   3.034  20.271  0.00  0.00    +0.000 C 
ATOM     16  O   UNL     1       3.793   2.857  21.417  0.00  0.00    +0.000 OA
ATOM     17  H   UNL     1       6.138   3.697  20.113  0.00  0.00    +0.000 HD
ENDROOT
BRANCH   1  19
ATOM     18  C   UNL     1       6.516   4.050  13.136  0.00  0.00    +0.000 C 
ATOM     19  O   UNL     1       6.571   5.144  14.047  0.00  0.00    +0.000 OA
ENDBRANCH   1  19
TORSDOF 1
ENDMDL
MODEL 6
REMARK VINA RESULT:      -6.8      1.416      5.583
REMARK  Name = 
REMARK  3 active torsions:
REMARK  status: ('A' for Active; 'I' for Inactive)
REMARK    1  A    between atoms: C_1  and  O_2
REMARK    2  A    between atoms: O_2  and  C_3
REMARK    3  A    between atoms: C_15  and  C_16
REMARK                            x       y       z     vdW  Elec       q    Type
REMARK                         _______ _______ _______ _____ _____    ______ ____
ROOT
ATOM      1  C   UNL     1       1.623   4.543  20.500  0.00  0.00    +0.000 A 
ATOM      2  C   UNL     1       1.552   5.931  20.621  0.00  0.00    +0.000 A 
ATOM      3  C   UNL     1       2.262   6.772  19.756  0.00  0.00    +0.000 A 
ATOM      4  C   UNL     1       3.050   6.175  18.767  0.00  0.00    +0.000 A 
ATOM      5  N   UNL     1       3.835   6.750  17.792  0.00  0.00    +0.000 N 
ATOM      6  C   UNL     1       4.429   5.775  17.041  0.00  0.00    +0.000 A 
ATOM      7  C   UNL     1       4.035   4.547  17.533  0.00  0.00    +0.000 A 
ATOM      8  C   UNL     1       3.158   4.788  18.628  0.00  0.00    +0.000 A 
ATOM      9  C   UNL     1       2.440   3.964  19.521  0.00  0.00    +0.000 A 
ATOM     10  C   UNL     1       4.502   3.309  16.943  0.00  0.00    +0.000 C 
ATOM     11  O   UNL     1       4.196   2.188  17.325  0.00  0.00    +0.000 OA
ATOM     12  C   UNL     1       5.423   3.502  15.782  0.00  0.00    +0.000 C 
ATOM     13  C   UNL     1       5.810   4.698  15.293  0.00  0.00    +0.000 C 
ATOM     14  C   UNL     1       6.731   4.847  14.124  0.00  0.00    +0.000 C 
ATOM     15  C   UNL     1       5.312   5.968  15.925  0.00  0.00    +0.000 C 
ATOM     16  O   UNL     1       5.646   7.069  15.506  0.00  0.00    +0.000 OA
ATOM     17  H   UNL     1       3.955   7.744  17.648  0.00  0.00    +0.000 HD
ENDROOT
BRANCH   1  19
ATOM     18  C   UNL     1       1.737   2.530  21.735  0.00  0.00    +0.000 C 
ATOM     19  O   UNL     1       0.972   3.655  21.315  0.00  0.00    +0.000 OA
ENDBRANCH   1  19
TORSDOF 1
ENDMDL
MODEL 7
REMARK VINA RESULT:      -6.7      1.339      1.348
REMARK  Name = 
REMARK  3 active torsions:
REMARK  status: ('A' for Active; 'I' for Inactive)
REMARK    1  A    between atoms: C_1  and  O_2
REMARK    2  A    between atoms: O_2  and  C_3
REMARK    3  A    between atoms: C_15  and  C_16
REMARK                            x       y       z     vdW  Elec       q    Type
REMARK                         _______ _______ _______ _____ _____    ______ ____
ROOT
ATOM      1  C   UNL     1       6.238   5.355  16.457  0.00  0.00    +0.000 A 
ATOM      2  C   UNL     1       5.466   6.486  16.194  0.00  0.00    +0.000 A 
ATOM      3  C   UNL     1       4.273   6.728  16.887  0.00  0.00    +0.000 A 
ATOM      4  C   UNL     1       3.879   5.795  17.851  0.00  0.00    +0.000 A 
ATOM      5  N   UNL     1       2.774   5.784  18.674  0.00  0.00    +0.000 N 
ATOM      6  C   UNL     1       2.796   4.669  19.463  0.00  0.00    +0.000 A 
ATOM      7  C   UNL     1       3.923   3.936  19.149  0.00  0.00    +0.000 A 
ATOM      8  C   UNL     1       4.620   4.642  18.127  0.00  0.00    +0.000 A 
ATOM      9  C   UNL     1       5.811   4.418  17.406  0.00  0.00    +0.000 A 
ATOM     10  C   UNL     1       4.227   2.688  19.819  0.00  0.00    +0.000 C 
ATOM     11  O   UNL     1       5.204   1.988  19.595  0.00  0.00    +0.000 OA
ATOM     12  C   UNL     1       3.223   2.298  20.855  0.00  0.00    +0.000 C 
ATOM     13  C   UNL     1       2.121   3.009  21.170  0.00  0.00    +0.000 C 
ATOM     14  C   UNL     1       1.142   2.584  22.217  0.00  0.00    +0.000 C 
ATOM     15  C   UNL     1       1.827   4.300  20.457  0.00  0.00    +0.000 C 
ATOM     16  O   UNL     1       0.835   4.967  20.719  0.00  0.00    +0.000 OA
ATOM     17  H   UNL     1       2.053   6.494  18.697  0.00  0.00    +0.000 HD
ENDROOT
BRANCH   1  19
ATOM     18  C   UNL     1       7.290   4.794  14.415  0.00  0.00    +0.000 C 
ATOM     19  O   UNL     1       7.405   5.041  15.812  0.00  0.00    +0.000 OA
ENDBRANCH   1  19
TORSDOF 1
ENDMDL
MODEL 8
REMARK VINA RESULT:      -6.6      3.443      5.026
REMARK  Name = 
REMARK  3 active torsions:
REMARK  status: ('A' for Active; 'I' for Inactive)
REMARK    1  A    between atoms: C_1  and  O_2
REMARK    2  A    between atoms: O_2  and  C_3
REMARK    3  A    between atoms: C_15  and  C_16
REMARK                            x       y       z     vdW  Elec       q    Type
REMARK                         _______ _______ _______ _____ _____    ______ ____
ROOT
ATOM      1  C   UNL     1       3.867   4.140  17.953  0.00  0.00    +0.000 A 
ATOM      2  C   UNL     1       3.688   3.487  19.172  0.00  0.00    +0.000 A 
ATOM      3  C   UNL     1       3.062   4.122  20.252  0.00  0.00    +0.000 A 
ATOM      4  C   UNL     1       2.624   5.438  20.068  0.00  0.00    +0.000 A 
ATOM      5  N   UNL     1       1.982   6.287  20.942  0.00  0.00    +0.000 N 
ATOM      6  C   UNL     1       1.743   7.486  20.330  0.00  0.00    +0.000 A 
ATOM      7  C   UNL     1       2.242   7.425  19.045  0.00  0.00    +0.000 A 
ATOM      8  C   UNL     1       2.802   6.128  18.866  0.00  0.00    +0.000 A 
ATOM      9  C   UNL     1       3.446   5.467  17.799  0.00  0.00    +0.000 A 
ATOM     10  C   UNL     1       2.143   8.552  18.139  0.00  0.00    +0.000 C 
ATOM     11  O   UNL     1       2.560   8.569  16.990  0.00  0.00    +0.000 OA
ATOM     12  C   UNL     1       1.461   9.743  18.729  0.00  0.00    +0.000 C 
ATOM     13  C   UNL     1       0.969   9.810  19.983  0.00  0.00    +0.000 C 
ATOM     14  C   UNL     1       0.290  11.023  20.533  0.00  0.00    +0.000 C 
ATOM     15  C   UNL     1       1.087   8.628  20.904  0.00  0.00    +0.000 C 
ATOM     16  O   UNL     1       0.652   8.658  22.047  0.00  0.00    +0.000 OA
ATOM     17  H   UNL     1       1.720   6.062  21.893  0.00  0.00    +0.000 HD
ENDROOT
BRANCH   1  19
ATOM     18  C   UNL     1       5.384   4.450  16.166  0.00  0.00    +0.000 C 
ATOM     19  O   UNL     1       4.481   3.593  16.858  0.00  0.00    +0.000 OA
ENDBRANCH   1  19
TORSDOF 1
ENDMDL
MODEL 9
REMARK VINA RESULT:      -6.6      2.881      5.283
REMARK  Name = 
REMARK  3 active torsions:
REMARK  status: ('A' for Active; 'I' for Inactive)
REMARK    1  A    between atoms: C_1  and  O_2
REMARK    2  A    between atoms: O_2  and  C_3
REMARK    3  A    between atoms: C_15  and  C_16
REMARK                            x       y       z     vdW  Elec       q    Type
REMARK                         _______ _______ _______ _____ _____    ______ ____
ROOT
ATOM      1  C   UNL     1       3.476   2.647  20.056  0.00  0.00    +0.000 A 
ATOM      2  C   UNL     1       2.765   2.679  21.256  0.00  0.00    +0.000 A 
ATOM      3  C   UNL     1       2.105   3.840  21.677  0.00  0.00    +0.000 A 
ATOM      4  C   UNL     1       2.184   4.969  20.855  0.00  0.00    +0.000 A 
ATOM      5  N   UNL     1       1.634   6.222  21.017  0.00  0.00    +0.000 N 
ATOM      6  C   UNL     1       1.975   7.017  19.958  0.00  0.00    +0.000 A 
ATOM      7  C   UNL     1       2.763   6.280  19.097  0.00  0.00    +0.000 A 
ATOM      8  C   UNL     1       2.902   4.977  19.656  0.00  0.00    +0.000 A 
ATOM      9  C   UNL     1       3.567   3.797  19.262  0.00  0.00    +0.000 A 
ATOM     10  C   UNL     1       3.289   6.850  17.874  0.00  0.00    +0.000 C 
ATOM     11  O   UNL     1       3.991   6.259  17.066  0.00  0.00    +0.000 OA
ATOM     12  C   UNL     1       2.893   8.274  17.653  0.00  0.00    +0.000 C 
ATOM     13  C   UNL     1       2.121   9.000  18.487  0.00  0.00    +0.000 C 
ATOM     14  C   UNL     1       1.745  10.424  18.225  0.00  0.00    +0.000 C 
ATOM     15  C   UNL     1       1.591   8.385  19.752  0.00  0.00    +0.000 C 
ATOM     16  O   UNL     1       0.889   9.018  20.530  0.00  0.00    +0.000 OA
ATOM     17  H   UNL     1       1.061   6.515  21.797  0.00  0.00    +0.000 HD
ENDROOT
BRANCH   1  19
ATOM     18  C   UNL     1       3.948   1.245  18.211  0.00  0.00    +0.000 C 
ATOM     19  O   UNL     1       4.160   1.558  19.584  0.00  0.00    +0.000 OA
ENDBRANCH   1  19
TORSDOF 1
ENDMDL
