MODEL 1
REMARK VINA RESULT:      -8.3      0.000      0.000
REMARK  Name = 
REMARK  15 active torsions:
REMARK  status: ('A' for Active; 'I' for Inactive)
REMARK    1  A    between atoms: C_1  and  O_2
REMARK    2  A    between atoms: O_2  and  C_3
REMARK    3  A    between atoms: C_6  and  C_7
REMARK    4  A    between atoms: C_8  and  C_9
REMARK    5  A    between atoms: C_11  and  O_12
REMARK    6  A    between atoms: O_12  and  C_13
REMARK    7  A    between atoms: C_15  and  O_16
REMARK    8  A    between atoms: O_16  and  C_17
REMARK    9  A    between atoms: C_18  and  C_19
REMARK   10  A    between atoms: C_20  and  C_21
REMARK   11  A    between atoms: C_21  and  C_23
REMARK   12  A    between atoms: C_24  and  C_25
REMARK   13  A    between atoms: C_28  and  C_29
REMARK   14  A    between atoms: C_29  and  C_30
REMARK   15  A    between atoms: C_29  and  C_31
REMARK                            x       y       z     vdW  Elec       q    Type
REMARK                         _______ _______ _______ _____ _____    ______ ____
ROOT
ATOM      1  C   UNL     1       5.712   3.992  14.888  0.00  0.00    +0.000 A 
ATOM      2  C   UNL     1       5.242   3.293  13.762  0.00  0.00    +0.000 A 
ATOM      3  C   UNL     1       5.888   3.404  12.537  0.00  0.00    +0.000 A 
ATOM      4  C   UNL     1       6.988   4.249  12.428  0.00  0.00    +0.000 A 
ATOM      5  C   UNL     1       7.473   4.977  13.528  0.00  0.00    +0.000 A 
ATOM      6  C   UNL     1       6.852   4.844  14.794  0.00  0.00    +0.000 A 
ENDROOT
BRANCH   1   8
ATOM      7  C   UNL     1       3.911   4.427  16.547  0.00  0.00    +0.000 C 
ATOM      8  C   UNL     1       5.013   3.761  16.162  0.00  0.00    +0.000 C 
BRANCH   7  12
ATOM      9  C   UNL     1       2.427   4.003  20.556  0.00  0.00    +0.000 A 
ATOM     10  C   UNL     1       2.270   2.977  19.629  0.00  0.00    +0.000 A 
ATOM     11  C   UNL     1       2.758   3.119  18.329  0.00  0.00    +0.000 A 
ATOM     12  C   UNL     1       3.373   4.304  17.916  0.00  0.00    +0.000 A 
ATOM     13  C   UNL     1       3.537   5.332  18.853  0.00  0.00    +0.000 A 
ATOM     14  C   UNL     1       3.059   5.186  20.165  0.00  0.00    +0.000 A 
BRANCH   9  16
ATOM     15  C   UNL     1       1.493   2.407  22.028  0.00  0.00    +0.000 C 
ATOM     16  O   UNL     1       1.893   3.748  21.788  0.00  0.00    +0.000 OA
ENDBRANCH   9  16
ENDBRANCH   7  12
ENDBRANCH   1   8
BRANCH   3  17
ATOM     17  O   UNL     1       5.388   2.631  11.523  0.00  0.00    +0.000 OA
ATOM     18  C   UNL     1       6.060   1.399  11.265  0.00  0.00    +0.000 C 
ENDBRANCH   3  17
BRANCH   5  19
ATOM     19  O   UNL     1       8.592   5.773  13.416  0.00  0.00    +0.000 OA
ATOM     20  C   UNL     1       8.783   6.414  12.154  0.00  0.00    +0.000 C 
ENDBRANCH   5  19
BRANCH   6  21
ATOM     21  C   UNL     1       7.388   5.460  16.042  0.00  0.00    +0.000 C 
ATOM     22  C   UNL     1       6.975   6.586  16.650  0.00  0.00    +0.000 C 
BRANCH  22  23
ATOM     23  C   UNL     1       7.646   7.038  17.908  0.00  0.00    +0.000 C 
ATOM     24  O   UNL     1       7.792   6.305  18.884  0.00  0.00    +0.000 OA
BRANCH  23  25
ATOM     25  C   UNL     1       8.119   8.448  17.889  0.00  0.00    +0.000 C 
ATOM     26  C   UNL     1       8.749   8.993  18.945  0.00  0.00    +0.000 C 
BRANCH  26  27
ATOM     27  C   UNL     1       9.255  10.375  18.971  0.00  0.00    +0.000 A 
ATOM     28  C   UNL     1       9.301  11.177  17.824  0.00  0.00    +0.000 A 
ATOM     29  C   UNL     1       9.772  12.497  17.881  0.00  0.00    +0.000 A 
ATOM     30  C   UNL     1      10.190  13.060  19.094  0.00  0.00    +0.000 A 
ATOM     31  C   UNL     1      10.138  12.260  20.244  0.00  0.00    +0.000 A 
ATOM     32  C   UNL     1       9.665  10.940  20.184  0.00  0.00    +0.000 A 
BRANCH  30  33
ATOM     33  C   UNL     1      10.644  14.510  19.140  0.00  0.00    +0.000 C 
ATOM     34  C   UNL     1       9.651  15.429  18.421  0.00  0.00    +0.000 C 
ATOM     35  C   UNL     1      10.891  15.005  20.566  0.00  0.00    +0.000 C 
ENDBRANCH  30  33
ENDBRANCH  26  27
ENDBRANCH  23  25
ENDBRANCH  22  23
ENDBRANCH   6  21
TORSDOF 10
ENDMDL
MODEL 2
REMARK VINA RESULT:      -8.1      0.895      1.270
REMARK  Name = 
REMARK  15 active torsions:
REMARK  status: ('A' for Active; 'I' for Inactive)
REMARK    1  A    between atoms: C_1  and  O_2
REMARK    2  A    between atoms: O_2  and  C_3
REMARK    3  A    between atoms: C_6  and  C_7
REMARK    4  A    between atoms: C_8  and  C_9
REMARK    5  A    between atoms: C_11  and  O_12
REMARK    6  A    between atoms: O_12  and  C_13
REMARK    7  A    between atoms: C_15  and  O_16
REMARK    8  A    between atoms: O_16  and  C_17
REMARK    9  A    between atoms: C_18  and  C_19
REMARK   10  A    between atoms: C_20  and  C_21
REMARK   11  A    between atoms: C_21  and  C_23
REMARK   12  A    between atoms: C_24  and  C_25
REMARK   13  A    between atoms: C_28  and  C_29
REMARK   14  A    between atoms: C_29  and  C_30
REMARK   15  A    between atoms: C_29  and  C_31
REMARK                            x       y       z     vdW  Elec       q    Type
REMARK                         _______ _______ _______ _____ _____    ______ ____
ROOT
ATOM      1  C   UNL     1       5.661   4.271  14.862  0.00  0.00    +0.000 A 
ATOM      2  C   UNL     1       5.160   3.522  13.782  0.00  0.00    +0.000 A 
ATOM      3  C   UNL     1       5.832   3.494  12.566  0.00  0.00    +0.000 A 
ATOM      4  C   UNL     1       6.990   4.250  12.416  0.00  0.00    +0.000 A 
ATOM      5  C   UNL     1       7.508   5.024  13.469  0.00  0.00    +0.000 A 
ATOM      6  C   UNL     1       6.860   5.031  14.728  0.00  0.00    +0.000 A 
ENDROOT
BRANCH   1   8
ATOM      7  C   UNL     1       4.357   3.064  16.602  0.00  0.00    +0.000 C 
ATOM      8  C   UNL     1       4.928   4.188  16.135  0.00  0.00    +0.000 C 
BRANCH   7  12
ATOM      9  C   UNL     1       1.737   3.225  20.003  0.00  0.00    +0.000 A 
ATOM     10  C   UNL     1       3.032   3.732  20.079  0.00  0.00    +0.000 A 
ATOM     11  C   UNL     1       3.877   3.681  18.970  0.00  0.00    +0.000 A 
ATOM     12  C   UNL     1       3.462   3.084  17.776  0.00  0.00    +0.000 A 
ATOM     13  C   UNL     1       2.158   2.581  17.700  0.00  0.00    +0.000 A 
ATOM     14  C   UNL     1       1.301   2.644  18.810  0.00  0.00    +0.000 A 
BRANCH   9  16
ATOM     15  C   UNL     1       1.442   2.489  22.230  0.00  0.00    +0.000 C 
ATOM     16  O   UNL     1       1.016   3.321  21.161  0.00  0.00    +0.000 OA
ENDBRANCH   9  16
ENDBRANCH   7  12
ENDBRANCH   1   8
BRANCH   3  17
ATOM     17  O   UNL     1       5.293   2.682  11.602  0.00  0.00    +0.000 OA
ATOM     18  C   UNL     1       3.982   3.010  11.149  0.00  0.00    +0.000 C 
ENDBRANCH   3  17
BRANCH   5  19
ATOM     19  O   UNL     1       8.683   5.730  13.321  0.00  0.00    +0.000 OA
ATOM     20  C   UNL     1       8.838   6.440  12.092  0.00  0.00    +0.000 C 
ENDBRANCH   5  19
BRANCH   6  21
ATOM     21  C   UNL     1       7.419   5.703  15.938  0.00  0.00    +0.000 C 
ATOM     22  C   UNL     1       6.824   6.618  16.722  0.00  0.00    +0.000 C 
BRANCH  22  23
ATOM     23  C   UNL     1       7.558   7.173  17.902  0.00  0.00    +0.000 C 
ATOM     24  O   UNL     1       7.819   6.500  18.897  0.00  0.00    +0.000 OA
BRANCH  23  25
ATOM     25  C   UNL     1       7.943   8.604  17.779  0.00  0.00    +0.000 C 
ATOM     26  C   UNL     1       8.783   9.184  18.655  0.00  0.00    +0.000 C 
BRANCH  26  27
ATOM     27  C   UNL     1       9.212  10.589  18.568  0.00  0.00    +0.000 A 
ATOM     28  C   UNL     1       8.547  11.527  17.768  0.00  0.00    +0.000 A 
ATOM     29  C   UNL     1       8.968  12.864  17.719  0.00  0.00    +0.000 A 
ATOM     30  C   UNL     1      10.053  13.306  18.485  0.00  0.00    +0.000 A 
ATOM     31  C   UNL     1      10.715  12.370  19.292  0.00  0.00    +0.000 A 
ATOM     32  C   UNL     1      10.292  11.032  19.341  0.00  0.00    +0.000 A 
BRANCH  30  33
ATOM     33  C   UNL     1      10.454  14.772  18.457  0.00  0.00    +0.000 C 
ATOM     34  C   UNL     1      11.334  15.088  17.243  0.00  0.00    +0.000 C 
ATOM     35  C   UNL     1       9.249  15.714  18.500  0.00  0.00    +0.000 C 
ENDBRANCH  30  33
ENDBRANCH  26  27
ENDBRANCH  23  25
ENDBRANCH  22  23
ENDBRANCH   6  21
TORSDOF 10
ENDMDL
MODEL 3
REMARK VINA RESULT:      -7.7      3.525      5.453
REMARK  Name = 
REMARK  15 active torsions:
REMARK  status: ('A' for Active; 'I' for Inactive)
REMARK    1  A    between atoms: C_1  and  O_2
REMARK    2  A    between atoms: O_2  and  C_3
REMARK    3  A    between atoms: C_6  and  C_7
REMARK    4  A    between atoms: C_8  and  C_9
REMARK    5  A    between atoms: C_11  and  O_12
REMARK    6  A    between atoms: O_12  and  C_13
REMARK    7  A    between atoms: C_15  and  O_16
REMARK    8  A    between atoms: O_16  and  C_17
REMARK    9  A    between atoms: C_18  and  C_19
REMARK   10  A    between atoms: C_20  and  C_21
REMARK   11  A    between atoms: C_21  and  C_23
REMARK   12  A    between atoms: C_24  and  C_25
REMARK   13  A    between atoms: C_28  and  C_29
REMARK   14  A    between atoms: C_29  and  C_30
REMARK   15  A    between atoms: C_29  and  C_31
REMARK                            x       y       z     vdW  Elec       q    Type
REMARK                         _______ _______ _______ _____ _____    ______ ____
ROOT
ATOM      1  C   UNL     1       3.081   5.826  17.839  0.00  0.00    +0.000 A 
ATOM      2  C   UNL     1       2.014   4.999  18.234  0.00  0.00    +0.000 A 
ATOM      3  C   UNL     1       2.070   3.625  18.037  0.00  0.00    +0.000 A 
ATOM      4  C   UNL     1       3.183   3.078  17.406  0.00  0.00    +0.000 A 
ATOM      5  C   UNL     1       4.259   3.877  16.982  0.00  0.00    +0.000 A 
ATOM      6  C   UNL     1       4.238   5.274  17.213  0.00  0.00    +0.000 A 
ENDROOT
BRANCH   1   8
ATOM      7  C   UNL     1       1.861   7.842  18.633  0.00  0.00    +0.000 C 
ATOM      8  C   UNL     1       2.971   7.260  18.151  0.00  0.00    +0.000 C 
BRANCH   7  12
ATOM      9  C   UNL     1       1.573  12.112  19.006  0.00  0.00    +0.000 A 
ATOM     10  C   UNL     1       0.910  11.275  19.899  0.00  0.00    +0.000 A 
ATOM     11  C   UNL     1       1.011   9.889  19.776  0.00  0.00    +0.000 A 
ATOM     12  C   UNL     1       1.739   9.310  18.732  0.00  0.00    +0.000 A 
ATOM     13  C   UNL     1       2.410  10.153  17.840  0.00  0.00    +0.000 A 
ATOM     14  C   UNL     1       2.322  11.549  17.970  0.00  0.00    +0.000 A 
BRANCH   9  16
ATOM     15  C   UNL     1       2.519  14.176  19.663  0.00  0.00    +0.000 C 
ATOM     16  O   UNL     1       1.382  13.448  19.224  0.00  0.00    +0.000 OA
ENDBRANCH   9  16
ENDBRANCH   7  12
ENDBRANCH   1   8
BRANCH   3  17
ATOM     17  O   UNL     1       1.007   2.906  18.517  0.00  0.00    +0.000 OA
ATOM     18  C   UNL     1       0.700   3.064  19.901  0.00  0.00    +0.000 C 
ENDBRANCH   3  17
BRANCH   5  19
ATOM     19  O   UNL     1       5.376   3.316  16.402  0.00  0.00    +0.000 OA
ATOM     20  C   UNL     1       5.674   3.743  15.072  0.00  0.00    +0.000 C 
ENDBRANCH   5  19
BRANCH   6  21
ATOM     21  C   UNL     1       5.394   6.173  16.932  0.00  0.00    +0.000 C 
ATOM     22  C   UNL     1       6.439   6.448  17.731  0.00  0.00    +0.000 C 
BRANCH  22  23
ATOM     23  C   UNL     1       7.508   7.381  17.260  0.00  0.00    +0.000 C 
ATOM     24  O   UNL     1       8.190   7.161  16.260  0.00  0.00    +0.000 OA
BRANCH  23  25
ATOM     25  C   UNL     1       7.688   8.597  18.097  0.00  0.00    +0.000 C 
ATOM     26  C   UNL     1       8.677   9.476  17.859  0.00  0.00    +0.000 C 
BRANCH  26  27
ATOM     27  C   UNL     1       8.887  10.704  18.643  0.00  0.00    +0.000 A 
ATOM     28  C   UNL     1       9.281  10.676  19.987  0.00  0.00    +0.000 A 
ATOM     29  C   UNL     1       9.491  11.862  20.705  0.00  0.00    +0.000 A 
ATOM     30  C   UNL     1       9.334  13.112  20.092  0.00  0.00    +0.000 A 
ATOM     31  C   UNL     1       8.946  13.141  18.745  0.00  0.00    +0.000 A 
ATOM     32  C   UNL     1       8.737  11.953  18.028  0.00  0.00    +0.000 A 
BRANCH  30  33
ATOM     33  C   UNL     1       9.621  14.382  20.876  0.00  0.00    +0.000 C 
ATOM     34  C   UNL     1       9.382  14.180  22.376  0.00  0.00    +0.000 C 
ATOM     35  C   UNL     1      11.032  14.920  20.630  0.00  0.00    +0.000 C 
ENDBRANCH  30  33
ENDBRANCH  26  27
ENDBRANCH  23  25
ENDBRANCH  22  23
ENDBRANCH   6  21
TORSDOF 10
ENDMDL
MODEL 4
REMARK VINA RESULT:      -7.7      3.701      5.429
REMARK  Name = 
REMARK  15 active torsions:
REMARK  status: ('A' for Active; 'I' for Inactive)
REMARK    1  A    between atoms: C_1  and  O_2
REMARK    2  A    between atoms: O_2  and  C_3
REMARK    3  A    between atoms: C_6  and  C_7
REMARK    4  A    between atoms: C_8  and  C_9
REMARK    5  A    between atoms: C_11  and  O_12
REMARK    6  A    between atoms: O_12  and  C_13
REMARK    7  A    between atoms: C_15  and  O_16
REMARK    8  A    between atoms: O_16  and  C_17
REMARK    9  A    between atoms: C_18  and  C_19
REMARK   10  A    between atoms: C_20  and  C_21
REMARK   11  A    between atoms: C_21  and  C_23
REMARK   12  A    between atoms: C_24  and  C_25
REMARK   13  A    between atoms: C_28  and  C_29
REMARK   14  A    between atoms: C_29  and  C_30
REMARK   15  A    between atoms: C_29  and  C_31
REMARK                            x       y       z     vdW  Elec       q    Type
REMARK                         _______ _______ _______ _____ _____    ______ ____
ROOT
ATOM      1  C   UNL     1       3.098   5.904  17.805  0.00  0.00    +0.000 A 
ATOM      2  C   UNL     1       2.035   5.069  18.195  0.00  0.00    +0.000 A 
ATOM      3  C   UNL     1       2.113   3.692  18.019  0.00  0.00    +0.000 A 
ATOM      4  C   UNL     1       3.243   3.151  17.415  0.00  0.00    +0.000 A 
ATOM      5  C   UNL     1       4.315   3.958  16.996  0.00  0.00    +0.000 A 
ATOM      6  C   UNL     1       4.272   5.359  17.205  0.00  0.00    +0.000 A 
ENDROOT
BRANCH   1   8
ATOM      7  C   UNL     1       1.921   7.883  18.744  0.00  0.00    +0.000 C 
ATOM      8  C   UNL     1       2.964   7.340  18.093  0.00  0.00    +0.000 C 
BRANCH   7  12
ATOM      9  C   UNL     1       1.327  12.135  18.887  0.00  0.00    +0.000 A 
ATOM     10  C   UNL     1       2.209  11.572  17.969  0.00  0.00    +0.000 A 
ATOM     11  C   UNL     1       2.394  10.189  17.924  0.00  0.00    +0.000 A 
ATOM     12  C   UNL     1       1.737   9.345  18.824  0.00  0.00    +0.000 A 
ATOM     13  C   UNL     1       0.845   9.913  19.741  0.00  0.00    +0.000 A 
ATOM     14  C   UNL     1       0.646  11.303  19.778  0.00  0.00    +0.000 A 
BRANCH   9  16
ATOM     15  C   UNL     1      -0.058  14.041  18.695  0.00  0.00    +0.000 C 
ATOM     16  O   UNL     1       1.246  13.499  18.840  0.00  0.00    +0.000 OA
ENDBRANCH   9  16
ENDBRANCH   7  12
ENDBRANCH   1   8
BRANCH   3  17
ATOM     17  O   UNL     1       1.052   2.966  18.493  0.00  0.00    +0.000 OA
ATOM     18  C   UNL     1       0.794   3.050  19.893  0.00  0.00    +0.000 C 
ENDBRANCH   3  17
BRANCH   5  19
ATOM     19  O   UNL     1       5.449   3.404  16.443  0.00  0.00    +0.000 OA
ATOM     20  C   UNL     1       5.704   3.731  15.075  0.00  0.00    +0.000 C 
ENDBRANCH   5  19
BRANCH   6  21
ATOM     21  C   UNL     1       5.421   6.268  16.929  0.00  0.00    +0.000 C 
ATOM     22  C   UNL     1       6.438   6.585  17.749  0.00  0.00    +0.000 C 
BRANCH  22  23
ATOM     23  C   UNL     1       7.505   7.523  17.279  0.00  0.00    +0.000 C 
ATOM     24  O   UNL     1       8.146   7.336  16.246  0.00  0.00    +0.000 OA
BRANCH  23  25
ATOM     25  C   UNL     1       7.733   8.698  18.160  0.00  0.00    +0.000 C 
ATOM     26  C   UNL     1       8.823   9.475  18.028  0.00  0.00    +0.000 C 
BRANCH  26  27
ATOM     27  C   UNL     1       9.088  10.661  18.860  0.00  0.00    +0.000 A 
ATOM     28  C   UNL     1       9.003  11.964  18.354  0.00  0.00    +0.000 A 
ATOM     29  C   UNL     1       9.243  13.077  19.174  0.00  0.00    +0.000 A 
ATOM     30  C   UNL     1       9.554  12.917  20.530  0.00  0.00    +0.000 A 
ATOM     31  C   UNL     1       9.632  11.614  21.039  0.00  0.00    +0.000 A 
ATOM     32  C   UNL     1       9.391  10.502  20.217  0.00  0.00    +0.000 A 
BRANCH  30  33
ATOM     33  C   UNL     1       9.755  14.140  21.410  0.00  0.00    +0.000 C 
ATOM     34  C   UNL     1      10.123  15.373  20.578  0.00  0.00    +0.000 C 
ATOM     35  C   UNL     1       8.542  14.437  22.293  0.00  0.00    +0.000 C 
ENDBRANCH  30  33
ENDBRANCH  26  27
ENDBRANCH  23  25
ENDBRANCH  22  23
ENDBRANCH   6  21
TORSDOF 10
ENDMDL
MODEL 5
REMARK VINA RESULT:      -7.5      3.625      6.142
REMARK  Name = 
REMARK  15 active torsions:
REMARK  status: ('A' for Active; 'I' for Inactive)
REMARK    1  A    between atoms: C_1  and  O_2
REMARK    2  A    between atoms: O_2  and  C_3
REMARK    3  A    between atoms: C_6  and  C_7
REMARK    4  A    between atoms: C_8  and  C_9
REMARK    5  A    between atoms: C_11  and  O_12
REMARK    6  A    between atoms: O_12  and  C_13
REMARK    7  A    between atoms: C_15  and  O_16
REMARK    8  A    between atoms: O_16  and  C_17
REMARK    9  A    between atoms: C_18  and  C_19
REMARK   10  A    between atoms: C_20  and  C_21
REMARK   11  A    between atoms: C_21  and  C_23
REMARK   12  A    between atoms: C_24  and  C_25
REMARK   13  A    between atoms: C_28  and  C_29
REMARK   14  A    between atoms: C_29  and  C_30
REMARK   15  A    between atoms: C_29  and  C_31
REMARK                            x       y       z     vdW  Elec       q    Type
REMARK                         _______ _______ _______ _____ _____    ______ ____
ROOT
ATOM      1  C   UNL     1       2.626   5.818  19.017  0.00  0.00    +0.000 A 
ATOM      2  C   UNL     1       1.671   5.172  19.822  0.00  0.00    +0.000 A 
ATOM      3  C   UNL     1       1.646   3.786  19.921  0.00  0.00    +0.000 A 
ATOM      4  C   UNL     1       2.556   3.040  19.179  0.00  0.00    +0.000 A 
ATOM      5  C   UNL     1       3.512   3.652  18.350  0.00  0.00    +0.000 A 
ATOM      6  C   UNL     1       3.580   5.064  18.270  0.00  0.00    +0.000 A 
ENDROOT
BRANCH   1   8
ATOM      7  C   UNL     1       1.583   8.041  19.408  0.00  0.00    +0.000 C 
ATOM      8  C   UNL     1       2.630   7.289  19.027  0.00  0.00    +0.000 C 
BRANCH   7  12
ATOM      9  C   UNL     1       1.467  12.282  18.732  0.00  0.00    +0.000 A 
ATOM     10  C   UNL     1       2.156  11.442  17.862  0.00  0.00    +0.000 A 
ATOM     11  C   UNL     1       2.187  10.065  18.084  0.00  0.00    +0.000 A 
ATOM     12  C   UNL     1       1.568   9.503  19.204  0.00  0.00    +0.000 A 
ATOM     13  C   UNL     1       0.869  10.348  20.074  0.00  0.00    +0.000 A 
ATOM     14  C   UNL     1       0.825  11.733  19.844  0.00  0.00    +0.000 A 
BRANCH   9  16
ATOM     15  C   UNL     1       1.516  14.514  19.508  0.00  0.00    +0.000 C 
ATOM     16  O   UNL     1       1.526  13.610  18.413  0.00  0.00    +0.000 OA
ENDBRANCH   9  16
ENDBRANCH   7  12
ENDBRANCH   1   8
BRANCH   3  17
ATOM     17  O   UNL     1       0.718   3.263  20.783  0.00  0.00    +0.000 OA
ATOM     18  C   UNL     1       1.223   2.563  21.918  0.00  0.00    +0.000 C 
ENDBRANCH   3  17
BRANCH   5  19
ATOM     19  O   UNL     1       4.438   2.901  17.658  0.00  0.00    +0.000 OA
ATOM     20  C   UNL     1       4.287   1.483  17.743  0.00  0.00    +0.000 C 
ENDBRANCH   5  19
BRANCH   6  21
ATOM     21  C   UNL     1       4.651   5.797  17.535  0.00  0.00    +0.000 C 
ATOM     22  C   UNL     1       5.893   6.088  17.961  0.00  0.00    +0.000 C 
BRANCH  22  23
ATOM     23  C   UNL     1       6.828   6.835  17.064  0.00  0.00    +0.000 C 
ATOM     24  O   UNL     1       7.283   6.352  16.028  0.00  0.00    +0.000 OA
BRANCH  23  25
ATOM     25  C   UNL     1       7.169   8.207  17.523  0.00  0.00    +0.000 C 
ATOM     26  C   UNL     1       8.375   8.495  18.044  0.00  0.00    +0.000 C 
BRANCH  26  27
ATOM     27  C   UNL     1       8.772   9.840  18.495  0.00  0.00    +0.000 A 
ATOM     28  C   UNL     1       8.593  10.978  17.700  0.00  0.00    +0.000 A 
ATOM     29  C   UNL     1       8.964  12.250  18.162  0.00  0.00    +0.000 A 
ATOM     30  C   UNL     1       9.505  12.420  19.443  0.00  0.00    +0.000 A 
ATOM     31  C   UNL     1       9.678  11.282  20.242  0.00  0.00    +0.000 A 
ATOM     32  C   UNL     1       9.305  10.010  19.778  0.00  0.00    +0.000 A 
BRANCH  30  33
ATOM     33  C   UNL     1       9.847  13.815  19.941  0.00  0.00    +0.000 C 
ATOM     34  C   UNL     1       9.296  14.056  21.350  0.00  0.00    +0.000 C 
ATOM     35  C   UNL     1      11.348  14.104  19.900  0.00  0.00    +0.000 C 
ENDBRANCH  30  33
ENDBRANCH  26  27
ENDBRANCH  23  25
ENDBRANCH  22  23
ENDBRANCH   6  21
TORSDOF 10
ENDMDL
MODEL 6
REMARK VINA RESULT:      -7.5      8.832     12.454
REMARK  Name = 
REMARK  15 active torsions:
REMARK  status: ('A' for Active; 'I' for Inactive)
REMARK    1  A    between atoms: C_1  and  O_2
REMARK    2  A    between atoms: O_2  and  C_3
REMARK    3  A    between atoms: C_6  and  C_7
REMARK    4  A    between atoms: C_8  and  C_9
REMARK    5  A    between atoms: C_11  and  O_12
REMARK    6  A    between atoms: O_12  and  C_13
REMARK    7  A    between atoms: C_15  and  O_16
REMARK    8  A    between atoms: O_16  and  C_17
REMARK    9  A    between atoms: C_18  and  C_19
REMARK   10  A    between atoms: C_20  and  C_21
REMARK   11  A    between atoms: C_21  and  C_23
REMARK   12  A    between atoms: C_24  and  C_25
REMARK   13  A    between atoms: C_28  and  C_29
REMARK   14  A    between atoms: C_29  and  C_30
REMARK   15  A    between atoms: C_29  and  C_31
REMARK                            x       y       z     vdW  Elec       q    Type
REMARK                         _______ _______ _______ _____ _____    ______ ____
ROOT
ATOM      1  C   UNL     1      -3.691  12.256  19.364  0.00  0.00    +0.000 A 
ATOM      2  C   UNL     1      -5.061  12.485  19.140  0.00  0.00    +0.000 A 
ATOM      3  C   UNL     1      -5.722  11.861  18.089  0.00  0.00    +0.000 A 
ATOM      4  C   UNL     1      -5.001  11.035  17.233  0.00  0.00    +0.000 A 
ATOM      5  C   UNL     1      -3.627  10.799  17.416  0.00  0.00    +0.000 A 
ATOM      6  C   UNL     1      -2.946  11.392  18.507  0.00  0.00    +0.000 A 
ENDROOT
BRANCH   1   8
ATOM      7  C   UNL     1      -3.539  12.743  21.798  0.00  0.00    +0.000 C 
ATOM      8  C   UNL     1      -3.086  12.897  20.542  0.00  0.00    +0.000 C 
BRANCH   7  12
ATOM      9  C   UNL     1      -2.058  15.058  25.099  0.00  0.00    +0.000 A 
ATOM     10  C   UNL     1      -3.409  14.739  25.006  0.00  0.00    +0.000 A 
ATOM     11  C   UNL     1      -3.884  13.983  23.933  0.00  0.00    +0.000 A 
ATOM     12  C   UNL     1      -3.027  13.568  22.910  0.00  0.00    +0.000 A 
ATOM     13  C   UNL     1      -1.667  13.883  23.010  0.00  0.00    +0.000 A 
ATOM     14  C   UNL     1      -1.184  14.632  24.096  0.00  0.00    +0.000 A 
BRANCH   9  16
ATOM     15  C   UNL     1      -0.394  16.316  26.212  0.00  0.00    +0.000 C 
ATOM     16  O   UNL     1      -1.722  15.815  26.187  0.00  0.00    +0.000 OA
ENDBRANCH   9  16
ENDBRANCH   7  12
ENDBRANCH   1   8
BRANCH   3  17
ATOM     17  O   UNL     1      -7.068  12.102  18.000  0.00  0.00    +0.000 OA
ATOM     18  C   UNL     1      -7.641  12.915  19.022  0.00  0.00    +0.000 C 
ENDBRANCH   3  17
BRANCH   5  19
ATOM     19  O   UNL     1      -2.936   9.940  16.589  0.00  0.00    +0.000 OA
ATOM     20  C   UNL     1      -2.856  10.322  15.214  0.00  0.00    +0.000 C 
ENDBRANCH   5  19
BRANCH   6  21
ATOM     21  C   UNL     1      -1.532  11.081  18.863  0.00  0.00    +0.000 C 
ATOM     22  C   UNL     1      -0.413  11.607  18.335  0.00  0.00    +0.000 C 
BRANCH  22  23
ATOM     23  C   UNL     1       0.924  11.161  18.835  0.00  0.00    +0.000 C 
ATOM     24  O   UNL     1       1.881  11.926  18.944  0.00  0.00    +0.000 OA
BRANCH  23  25
ATOM     25  C   UNL     1       1.008   9.719  19.186  0.00  0.00    +0.000 C 
ATOM     26  C   UNL     1       1.932   8.913  18.634  0.00  0.00    +0.000 C 
BRANCH  26  27
ATOM     27  C   UNL     1       2.073   7.484  18.962  0.00  0.00    +0.000 A 
ATOM     28  C   UNL     1       2.535   6.545  18.031  0.00  0.00    +0.000 A 
ATOM     29  C   UNL     1       2.676   5.193  18.376  0.00  0.00    +0.000 A 
ATOM     30  C   UNL     1       2.378   4.746  19.670  0.00  0.00    +0.000 A 
ATOM     31  C   UNL     1       1.922   5.686  20.604  0.00  0.00    +0.000 A 
ATOM     32  C   UNL     1       1.782   7.039  20.257  0.00  0.00    +0.000 A 
BRANCH  30  33
ATOM     33  C   UNL     1       2.592   3.285  20.034  0.00  0.00    +0.000 C 
ATOM     34  C   UNL     1       1.515   2.390  19.413  0.00  0.00    +0.000 C 
ATOM     35  C   UNL     1       3.986   2.782  19.656  0.00  0.00    +0.000 C 
ENDBRANCH  30  33
ENDBRANCH  26  27
ENDBRANCH  23  25
ENDBRANCH  22  23
ENDBRANCH   6  21
TORSDOF 10
ENDMDL
MODEL 7
REMARK VINA RESULT:      -7.4      3.692      6.009
REMARK  Name = 
REMARK  15 active torsions:
REMARK  status: ('A' for Active; 'I' for Inactive)
REMARK    1  A    between atoms: C_1  and  O_2
REMARK    2  A    between atoms: O_2  and  C_3
REMARK    3  A    between atoms: C_6  and  C_7
REMARK    4  A    between atoms: C_8  and  C_9
REMARK    5  A    between atoms: C_11  and  O_12
REMARK    6  A    between atoms: O_12  and  C_13
REMARK    7  A    between atoms: C_15  and  O_16
REMARK    8  A    between atoms: O_16  and  C_17
REMARK    9  A    between atoms: C_18  and  C_19
REMARK   10  A    between atoms: C_20  and  C_21
REMARK   11  A    between atoms: C_21  and  C_23
REMARK   12  A    between atoms: C_24  and  C_25
REMARK   13  A    between atoms: C_28  and  C_29
REMARK   14  A    between atoms: C_29  and  C_30
REMARK   15  A    between atoms: C_29  and  C_31
REMARK                            x       y       z     vdW  Elec       q    Type
REMARK                         _______ _______ _______ _____ _____    ______ ____
ROOT
ATOM      1  C   UNL     1       2.820   6.076  18.886  0.00  0.00    +0.000 A 
ATOM      2  C   UNL     1       1.831   5.380  19.603  0.00  0.00    +0.000 A 
ATOM      3  C   UNL     1       1.893   3.998  19.740  0.00  0.00    +0.000 A 
ATOM      4  C   UNL     1       2.930   3.305  19.123  0.00  0.00    +0.000 A 
ATOM      5  C   UNL     1       3.925   3.967  18.384  0.00  0.00    +0.000 A 
ATOM      6  C   UNL     1       3.901   5.378  18.269  0.00  0.00    +0.000 A 
ENDROOT
BRANCH   1   8
ATOM      7  C   UNL     1       1.704   8.239  19.393  0.00  0.00    +0.000 C 
ATOM      8  C   UNL     1       2.718   7.543  18.852  0.00  0.00    +0.000 C 
BRANCH   7  12
ATOM      9  C   UNL     1       1.304  12.472  18.776  0.00  0.00    +0.000 A 
ATOM     10  C   UNL     1       0.599  11.833  19.791  0.00  0.00    +0.000 A 
ATOM     11  C   UNL     1       0.736  10.458  19.990  0.00  0.00    +0.000 A 
ATOM     12  C   UNL     1       1.546   9.687  19.151  0.00  0.00    +0.000 A 
ATOM     13  C   UNL     1       2.260  10.333  18.135  0.00  0.00    +0.000 A 
ATOM     14  C   UNL     1       2.135  11.719  17.943  0.00  0.00    +0.000 A 
BRANCH   9  16
ATOM     15  C   UNL     1       1.192  14.560  19.879  0.00  0.00    +0.000 C 
ATOM     16  O   UNL     1       1.071  13.816  18.676  0.00  0.00    +0.000 OA
ENDBRANCH   9  16
ENDBRANCH   7  12
ENDBRANCH   1   8
BRANCH   3  17
ATOM     17  O   UNL     1       0.916   3.427  20.512  0.00  0.00    +0.000 OA
ATOM     18  C   UNL     1       1.350   2.691  21.653  0.00  0.00    +0.000 C 
ENDBRANCH   3  17
BRANCH   5  19
ATOM     19  O   UNL     1       4.973   3.271  17.819  0.00  0.00    +0.000 OA
ATOM     20  C   UNL     1       5.054   3.309  16.393  0.00  0.00    +0.000 C 
ENDBRANCH   5  19
BRANCH   6  21
ATOM     21  C   UNL     1       4.992   6.171  17.633  0.00  0.00    +0.000 C 
ATOM     22  C   UNL     1       6.235   6.387  18.097  0.00  0.00    +0.000 C 
BRANCH  22  23
ATOM     23  C   UNL     1       7.192   7.215  17.300  0.00  0.00    +0.000 C 
ATOM     24  O   UNL     1       7.732   6.804  16.275  0.00  0.00    +0.000 OA
BRANCH  23  25
ATOM     25  C   UNL     1       7.442   8.575  17.846  0.00  0.00    +0.000 C 
ATOM     26  C   UNL     1       8.680   8.984  18.176  0.00  0.00    +0.000 C 
BRANCH  26  27
ATOM     27  C   UNL     1       8.986  10.325  18.701  0.00  0.00    +0.000 A 
ATOM     28  C   UNL     1       8.857  11.481  17.921  0.00  0.00    +0.000 A 
ATOM     29  C   UNL     1       9.139  12.748  18.452  0.00  0.00    +0.000 A 
ATOM     30  C   UNL     1       9.537  12.897  19.786  0.00  0.00    +0.000 A 
ATOM     31  C   UNL     1       9.659  11.741  20.570  0.00  0.00    +0.000 A 
ATOM     32  C   UNL     1       9.376  10.474  20.037  0.00  0.00    +0.000 A 
BRANCH  30  33
ATOM     33  C   UNL     1       9.782  14.286  20.354  0.00  0.00    +0.000 C 
ATOM     34  C   UNL     1      11.248  14.703  20.197  0.00  0.00    +0.000 C 
ATOM     35  C   UNL     1       8.859  15.343  19.745  0.00  0.00    +0.000 C 
ENDBRANCH  30  33
ENDBRANCH  26  27
ENDBRANCH  23  25
ENDBRANCH  22  23
ENDBRANCH   6  21
TORSDOF 10
ENDMDL
MODEL 8
REMARK VINA RESULT:      -7.4      3.720      6.396
REMARK  Name = 
REMARK  15 active torsions:
REMARK  status: ('A' for Active; 'I' for Inactive)
REMARK    1  A    between atoms: C_1  and  O_2
REMARK    2  A    between atoms: O_2  and  C_3
REMARK    3  A    between atoms: C_6  and  C_7
REMARK    4  A    between atoms: C_8  and  C_9
REMARK    5  A    between atoms: C_11  and  O_12
REMARK    6  A    between atoms: O_12  and  C_13
REMARK    7  A    between atoms: C_15  and  O_16
REMARK    8  A    between atoms: O_16  and  C_17
REMARK    9  A    between atoms: C_18  and  C_19
REMARK   10  A    between atoms: C_20  and  C_21
REMARK   11  A    between atoms: C_21  and  C_23
REMARK   12  A    between atoms: C_24  and  C_25
REMARK   13  A    between atoms: C_28  and  C_29
REMARK   14  A    between atoms: C_29  and  C_30
REMARK   15  A    between atoms: C_29  and  C_31
REMARK                            x       y       z     vdW  Elec       q    Type
REMARK                         _______ _______ _______ _____ _____    ______ ____
ROOT
ATOM      1  C   UNL     1       2.461   5.799  19.527  0.00  0.00    +0.000 A 
ATOM      2  C   UNL     1       1.652   5.151  20.478  0.00  0.00    +0.000 A 
ATOM      3  C   UNL     1       1.692   3.769  20.619  0.00  0.00    +0.000 A 
ATOM      4  C   UNL     1       2.517   3.028  19.779  0.00  0.00    +0.000 A 
ATOM      5  C   UNL     1       3.324   3.642  18.806  0.00  0.00    +0.000 A 
ATOM      6  C   UNL     1       3.328   5.052  18.676  0.00  0.00    +0.000 A 
ENDROOT
BRANCH   1   8
ATOM      7  C   UNL     1       1.546   8.009  20.207  0.00  0.00    +0.000 C 
ATOM      8  C   UNL     1       2.411   7.270  19.494  0.00  0.00    +0.000 C 
BRANCH   7  12
ATOM      9  C   UNL     1       1.034  12.214  19.493  0.00  0.00    +0.000 A 
ATOM     10  C   UNL     1       1.466  11.369  18.476  0.00  0.00    +0.000 A 
ATOM     11  C   UNL     1       1.626  10.003  18.712  0.00  0.00    +0.000 A 
ATOM     12  C   UNL     1       1.401   9.461  19.981  0.00  0.00    +0.000 A 
ATOM     13  C   UNL     1       0.960  10.312  21.001  0.00  0.00    +0.000 A 
ATOM     14  C   UNL     1       0.784  11.684  20.761  0.00  0.00    +0.000 A 
BRANCH   9  16
ATOM     15  C   UNL     1      -0.386  14.027  18.960  0.00  0.00    +0.000 C 
ATOM     16  O   UNL     1       0.932  13.531  19.139  0.00  0.00    +0.000 OA
ENDBRANCH   9  16
ENDBRANCH   7  12
ENDBRANCH   1   8
BRANCH   3  17
ATOM     17  O   UNL     1       0.914   3.246  21.618  0.00  0.00    +0.000 OA
ATOM     18  C   UNL     1       1.418   2.088  22.282  0.00  0.00    +0.000 C 
ENDBRANCH   3  17
BRANCH   5  19
ATOM     19  O   UNL     1       4.172   2.898  18.013  0.00  0.00    +0.000 OA
ATOM     20  C   UNL     1       4.020   1.480  18.089  0.00  0.00    +0.000 C 
ENDBRANCH   5  19
BRANCH   6  21
ATOM     21  C   UNL     1       4.258   5.793  17.776  0.00  0.00    +0.000 C 
ATOM     22  C   UNL     1       5.567   6.038  17.963  0.00  0.00    +0.000 C 
BRANCH  22  23
ATOM     23  C   UNL     1       6.333   6.804  16.931  0.00  0.00    +0.000 C 
ATOM     24  O   UNL     1       6.559   6.360  15.807  0.00  0.00    +0.000 OA
BRANCH  23  25
ATOM     25  C   UNL     1       6.804   8.143  17.373  0.00  0.00    +0.000 C 
ATOM     26  C   UNL     1       8.028   8.319  17.901  0.00  0.00    +0.000 C 
BRANCH  26  27
ATOM     27  C   UNL     1       8.552   9.625  18.335  0.00  0.00    +0.000 A 
ATOM     28  C   UNL     1       9.279   9.783  19.522  0.00  0.00    +0.000 A 
ATOM     29  C   UNL     1       9.781  11.036  19.902  0.00  0.00    +0.000 A 
ATOM     30  C   UNL     1       9.589  12.163  19.093  0.00  0.00    +0.000 A 
ATOM     31  C   UNL     1       8.868  12.005  17.902  0.00  0.00    +0.000 A 
ATOM     32  C   UNL     1       8.367  10.750  17.523  0.00  0.00    +0.000 A 
BRANCH  30  33
ATOM     33  C   UNL     1      10.192  13.499  19.500  0.00  0.00    +0.000 C 
ATOM     34  C   UNL     1      11.702  13.384  19.731  0.00  0.00    +0.000 C 
ATOM     35  C   UNL     1       9.891  14.612  18.495  0.00  0.00    +0.000 C 
ENDBRANCH  30  33
ENDBRANCH  26  27
ENDBRANCH  23  25
ENDBRANCH  22  23
ENDBRANCH   6  21
TORSDOF 10
ENDMDL
MODEL 9
REMARK VINA RESULT:      -7.4      8.992     12.383
REMARK  Name = 
REMARK  15 active torsions:
REMARK  status: ('A' for Active; 'I' for Inactive)
REMARK    1  A    between atoms: C_1  and  O_2
REMARK    2  A    between atoms: O_2  and  C_3
REMARK    3  A    between atoms: C_6  and  C_7
REMARK    4  A    between atoms: C_8  and  C_9
REMARK    5  A    between atoms: C_11  and  O_12
REMARK    6  A    between atoms: O_12  and  C_13
REMARK    7  A    between atoms: C_15  and  O_16
REMARK    8  A    between atoms: O_16  and  C_17
REMARK    9  A    between atoms: C_18  and  C_19
REMARK   10  A    between atoms: C_20  and  C_21
REMARK   11  A    between atoms: C_21  and  C_23
REMARK   12  A    between atoms: C_24  and  C_25
REMARK   13  A    between atoms: C_28  and  C_29
REMARK   14  A    between atoms: C_29  and  C_30
REMARK   15  A    between atoms: C_29  and  C_31
REMARK                            x       y       z     vdW  Elec       q    Type
REMARK                         _______ _______ _______ _____ _____    ______ ____
ROOT
ATOM      1  C   UNL     1      -3.514  12.274  19.251  0.00  0.00    +0.000 A 
ATOM      2  C   UNL     1      -4.901  12.373  19.037  0.00  0.00    +0.000 A 
ATOM      3  C   UNL     1      -5.482  11.838  17.894  0.00  0.00    +0.000 A 
ATOM      4  C   UNL     1      -4.667  11.237  16.940  0.00  0.00    +0.000 A 
ATOM      5  C   UNL     1      -3.276  11.138  17.113  0.00  0.00    +0.000 A 
ATOM      6  C   UNL     1      -2.671  11.639  18.292  0.00  0.00    +0.000 A 
ENDROOT
BRANCH   1   8
ATOM      7  C   UNL     1      -3.764  13.245  21.527  0.00  0.00    +0.000 C 
ATOM      8  C   UNL     1      -2.991  12.801  20.521  0.00  0.00    +0.000 C 
BRANCH   7  12
ATOM      9  C   UNL     1      -2.138  15.229  24.973  0.00  0.00    +0.000 A 
ATOM     10  C   UNL     1      -3.487  15.355  24.651  0.00  0.00    +0.000 A 
ATOM     11  C   UNL     1      -4.010  14.705  23.533  0.00  0.00    +0.000 A 
ATOM     12  C   UNL     1      -3.189  13.951  22.689  0.00  0.00    +0.000 A 
ATOM     13  C   UNL     1      -1.835  13.820  23.018  0.00  0.00    +0.000 A 
ATOM     14  C   UNL     1      -1.309  14.462  24.151  0.00  0.00    +0.000 A 
BRANCH   9  16
ATOM     15  C   UNL     1      -1.789  17.342  25.974  0.00  0.00    +0.000 C 
ATOM     16  O   UNL     1      -1.747  15.927  26.082  0.00  0.00    +0.000 OA
ENDBRANCH   9  16
ENDBRANCH   7  12
ENDBRANCH   1   8
BRANCH   3  17
ATOM     17  O   UNL     1      -6.847  11.931  17.816  0.00  0.00    +0.000 OA
ATOM     18  C   UNL     1      -7.552  12.049  19.050  0.00  0.00    +0.000 C 
ENDBRANCH   3  17
BRANCH   5  19
ATOM     19  O   UNL     1      -2.488  10.496  16.182  0.00  0.00    +0.000 OA
ATOM     20  C   UNL     1      -3.043  10.366  14.872  0.00  0.00    +0.000 C 
ENDBRANCH   5  19
BRANCH   6  21
ATOM     21  C   UNL     1      -1.230  11.445  18.624  0.00  0.00    +0.000 C 
ATOM     22  C   UNL     1      -0.210  12.291  18.398  0.00  0.00    +0.000 C 
BRANCH  22  23
ATOM     23  C   UNL     1       1.175  11.911  18.814  0.00  0.00    +0.000 C 
ATOM     24  O   UNL     1       2.118  12.699  18.783  0.00  0.00    +0.000 OA
BRANCH  23  25
ATOM     25  C   UNL     1       1.325  10.502  19.263  0.00  0.00    +0.000 C 
ATOM     26  C   UNL     1       1.811   9.550  18.445  0.00  0.00    +0.000 C 
BRANCH  26  27
ATOM     27  C   UNL     1       1.999   8.146  18.845  0.00  0.00    +0.000 A 
ATOM     28  C   UNL     1       1.732   7.695  20.144  0.00  0.00    +0.000 A 
ATOM     29  C   UNL     1       1.904   6.348  20.492  0.00  0.00    +0.000 A 
ATOM     30  C   UNL     1       2.327   5.408  19.545  0.00  0.00    +0.000 A 
ATOM     31  C   UNL     1       2.587   5.856  18.243  0.00  0.00    +0.000 A 
ATOM     32  C   UNL     1       2.414   7.205  17.895  0.00  0.00    +0.000 A 
BRANCH  30  33
ATOM     33  C   UNL     1       2.451   3.943  19.933  0.00  0.00    +0.000 C 
ATOM     34  C   UNL     1       3.808   3.368  19.517  0.00  0.00    +0.000 C 
ATOM     35  C   UNL     1       2.207   3.706  21.425  0.00  0.00    +0.000 C 
ENDBRANCH  30  33
ENDBRANCH  26  27
ENDBRANCH  23  25
ENDBRANCH  22  23
ENDBRANCH   6  21
TORSDOF 10
ENDMDL
