MODEL 1
REMARK VINA RESULT:      -7.2      0.000      0.000
REMARK  Name = 
REMARK  3 active torsions:
REMARK  status: ('A' for Active; 'I' for Inactive)
REMARK    1  A    between atoms: N_1  and  C_2
REMARK    2  A    between atoms: C_8  and  C_9
REMARK    3  A    between atoms: C_13  and  O_14
REMARK                            x       y       z     vdW  Elec       q    Type
REMARK                         _______ _______ _______ _____ _____    ______ ____
ROOT
ATOM      1  C   UNL     1       2.016   2.889  18.921  0.00  0.00    +0.000 A 
ATOM      2  C   UNL     1       2.726   3.298  20.046  0.00  0.00    +0.000 A 
ATOM      3  C   UNL     1       4.038   3.761  19.919  0.00  0.00    +0.000 A 
ATOM      4  C   UNL     1       4.641   3.878  18.676  0.00  0.00    +0.000 A 
ATOM      5  N   UNL     1       5.900   4.343  18.595  0.00  0.00    +0.000 NA
ATOM      6  C   UNL     1       6.413   4.461  17.347  0.00  0.00    +0.000 A 
ATOM      7  C   UNL     1       5.711   4.128  16.194  0.00  0.00    +0.000 A 
ATOM      8  N   UNL     1       4.439   3.658  16.285  0.00  0.00    +0.000 NA
ATOM      9  C   UNL     1       3.908   3.528  17.520  0.00  0.00    +0.000 A 
ATOM     10  C   UNL     1       2.607   3.053  17.666  0.00  0.00    +0.000 A 
ENDROOT
BRANCH   7  11
ATOM     11  C   UNL     1       6.265   4.269  14.834  0.00  0.00    +0.000 A 
ATOM     12  C   UNL     1       5.729   3.533  13.759  0.00  0.00    +0.000 A 
ATOM     13  C   UNL     1       6.242   3.652  12.462  0.00  0.00    +0.000 A 
ATOM     14  C   UNL     1       7.312   4.504  12.211  0.00  0.00    +0.000 A 
ATOM     15  C   UNL     1       7.857   5.231  13.261  0.00  0.00    +0.000 A 
ATOM     16  C   UNL     1       7.345   5.125  14.553  0.00  0.00    +0.000 A 
BRANCH  15  17
ATOM     17  O   UNL     1       8.917   6.069  13.071  0.00  0.00    +0.000 OA
ATOM     18  H   UNL     1       8.794   6.856  13.627  0.00  0.00    +0.000 HD
ENDBRANCH  15  17
ENDBRANCH   7  11
BRANCH   1  19
ATOM     19  N   UNL     1       0.663   2.550  19.029  0.00  0.00    +0.000 N 
ATOM     20  H   UNL     1       0.383   1.751  18.469  0.00  0.00    +0.000 HD
ATOM     21  H   UNL     1       0.027   3.335  18.925  0.00  0.00    +0.000 HD
ENDBRANCH   1  19
TORSDOF 3
ENDMDL
MODEL 2
REMARK VINA RESULT:      -7.2      4.638      7.068
REMARK  Name = 
REMARK  3 active torsions:
REMARK  status: ('A' for Active; 'I' for Inactive)
REMARK    1  A    between atoms: N_1  and  C_2
REMARK    2  A    between atoms: C_8  and  C_9
REMARK    3  A    between atoms: C_13  and  O_14
REMARK                            x       y       z     vdW  Elec       q    Type
REMARK                         _______ _______ _______ _____ _____    ______ ____
ROOT
ATOM      1  C   UNL     1       6.437   5.185  15.573  0.00  0.00    +0.000 A 
ATOM      2  C   UNL     1       5.952   3.884  15.672  0.00  0.00    +0.000 A 
ATOM      3  C   UNL     1       4.831   3.609  16.459  0.00  0.00    +0.000 A 
ATOM      4  C   UNL     1       4.146   4.624  17.111  0.00  0.00    +0.000 A 
ATOM      5  N   UNL     1       3.062   4.321  17.846  0.00  0.00    +0.000 NA
ATOM      6  C   UNL     1       2.423   5.366  18.426  0.00  0.00    +0.000 A 
ATOM      7  C   UNL     1       2.836   6.687  18.294  0.00  0.00    +0.000 A 
ATOM      8  N   UNL     1       3.933   6.983  17.549  0.00  0.00    +0.000 NA
ATOM      9  C   UNL     1       4.589   5.957  16.964  0.00  0.00    +0.000 A 
ATOM     10  C   UNL     1       5.718   6.211  16.189  0.00  0.00    +0.000 A 
ENDROOT
BRANCH   7  11
ATOM     11  C   UNL     1       2.134   7.826  18.916  0.00  0.00    +0.000 A 
ATOM     12  C   UNL     1       1.762   7.787  20.273  0.00  0.00    +0.000 A 
ATOM     13  C   UNL     1       1.094   8.856  20.881  0.00  0.00    +0.000 A 
ATOM     14  C   UNL     1       0.774   9.989  20.140  0.00  0.00    +0.000 A 
ATOM     15  C   UNL     1       1.127  10.040  18.797  0.00  0.00    +0.000 A 
ATOM     16  C   UNL     1       1.800   8.982  18.189  0.00  0.00    +0.000 A 
BRANCH  15  17
ATOM     17  O   UNL     1       0.821  11.121  18.022  0.00  0.00    +0.000 OA
ATOM     18  H   UNL     1       1.293  11.895  18.371  0.00  0.00    +0.000 HD
ENDBRANCH  15  17
ENDBRANCH   7  11
BRANCH   1  19
ATOM     19  N   UNL     1       7.476   5.481  14.683  0.00  0.00    +0.000 N 
ATOM     20  H   UNL     1       7.367   6.361  14.189  0.00  0.00    +0.000 HD
ATOM     21  H   UNL     1       7.722   4.717  14.061  0.00  0.00    +0.000 HD
ENDBRANCH   1  19
TORSDOF 3
ENDMDL
MODEL 3
REMARK VINA RESULT:      -7.1      4.438      4.913
REMARK  Name = 
REMARK  3 active torsions:
REMARK  status: ('A' for Active; 'I' for Inactive)
REMARK    1  A    between atoms: N_1  and  C_2
REMARK    2  A    between atoms: C_8  and  C_9
REMARK    3  A    between atoms: C_13  and  O_14
REMARK                            x       y       z     vdW  Elec       q    Type
REMARK                         _______ _______ _______ _____ _____    ______ ____
ROOT
ATOM      1  C   UNL     1       0.918   9.941  18.666  0.00  0.00    +0.000 A 
ATOM      2  C   UNL     1       0.573   9.422  19.911  0.00  0.00    +0.000 A 
ATOM      3  C   UNL     1       1.148   8.231  20.361  0.00  0.00    +0.000 A 
ATOM      4  C   UNL     1       2.110   7.571  19.611  0.00  0.00    +0.000 A 
ATOM      5  N   UNL     1       2.651   6.436  20.086  0.00  0.00    +0.000 NA
ATOM      6  C   UNL     1       3.608   5.863  19.316  0.00  0.00    +0.000 A 
ATOM      7  C   UNL     1       4.029   6.388  18.099  0.00  0.00    +0.000 A 
ATOM      8  N   UNL     1       3.476   7.536  17.627  0.00  0.00    +0.000 NA
ATOM      9  C   UNL     1       2.517   8.123  18.376  0.00  0.00    +0.000 A 
ATOM     10  C   UNL     1       1.921   9.302  17.936  0.00  0.00    +0.000 A 
ENDROOT
BRANCH   7  11
ATOM     11  C   UNL     1       5.080   5.772  17.266  0.00  0.00    +0.000 A 
ATOM     12  C   UNL     1       4.968   5.756  15.862  0.00  0.00    +0.000 A 
ATOM     13  C   UNL     1       5.953   5.175  15.056  0.00  0.00    +0.000 A 
ATOM     14  C   UNL     1       7.072   4.586  15.637  0.00  0.00    +0.000 A 
ATOM     15  C   UNL     1       7.193   4.587  17.020  0.00  0.00    +0.000 A 
ATOM     16  C   UNL     1       6.221   5.172  17.829  0.00  0.00    +0.000 A 
BRANCH  15  17
ATOM     17  O   UNL     1       8.263   4.008  17.640  0.00  0.00    +0.000 OA
ATOM     18  H   UNL     1       8.959   4.677  17.744  0.00  0.00    +0.000 HD
ENDBRANCH  15  17
ENDBRANCH   7  11
BRANCH   1  19
ATOM     19  N   UNL     1       0.443  11.197  18.274  0.00  0.00    +0.000 N 
ATOM     20  H   UNL     1       0.303  11.851  19.038  0.00  0.00    +0.000 HD
ATOM     21  H   UNL     1      -0.353  11.164  17.643  0.00  0.00    +0.000 HD
ENDBRANCH   1  19
TORSDOF 3
ENDMDL
MODEL 4
REMARK VINA RESULT:      -7.1      3.120      6.619
REMARK  Name = 
REMARK  3 active torsions:
REMARK  status: ('A' for Active; 'I' for Inactive)
REMARK    1  A    between atoms: N_1  and  C_2
REMARK    2  A    between atoms: C_8  and  C_9
REMARK    3  A    between atoms: C_13  and  O_14
REMARK                            x       y       z     vdW  Elec       q    Type
REMARK                         _______ _______ _______ _____ _____    ______ ____
ROOT
ATOM      1  C   UNL     1       6.327   4.128  13.720  0.00  0.00    +0.000 A 
ATOM      2  C   UNL     1       7.399   4.822  14.273  0.00  0.00    +0.000 A 
ATOM      3  C   UNL     1       7.371   5.206  15.616  0.00  0.00    +0.000 A 
ATOM      4  C   UNL     1       6.310   4.862  16.439  0.00  0.00    +0.000 A 
ATOM      5  N   UNL     1       6.328   5.237  17.730  0.00  0.00    +0.000 NA
ATOM      6  C   UNL     1       5.274   4.837  18.482  0.00  0.00    +0.000 A 
ATOM      7  C   UNL     1       4.217   4.084  17.983  0.00  0.00    +0.000 A 
ATOM      8  N   UNL     1       4.207   3.710  16.677  0.00  0.00    +0.000 NA
ATOM      9  C   UNL     1       5.245   4.101  15.906  0.00  0.00    +0.000 A 
ATOM     10  C   UNL     1       5.282   3.740  14.562  0.00  0.00    +0.000 A 
ENDROOT
BRANCH   7  11
ATOM     11  C   UNL     1       3.076   3.639  18.805  0.00  0.00    +0.000 A 
ATOM     12  C   UNL     1       1.866   3.242  18.202  0.00  0.00    +0.000 A 
ATOM     13  C   UNL     1       0.773   2.816  18.964  0.00  0.00    +0.000 A 
ATOM     14  C   UNL     1       0.859   2.788  20.353  0.00  0.00    +0.000 A 
ATOM     15  C   UNL     1       2.043   3.183  20.963  0.00  0.00    +0.000 A 
ATOM     16  C   UNL     1       3.138   3.599  20.209  0.00  0.00    +0.000 A 
BRANCH  15  17
ATOM     17  O   UNL     1       2.174   3.190  22.321  0.00  0.00    +0.000 OA
ATOM     18  H   UNL     1       2.001   4.089  22.645  0.00  0.00    +0.000 HD
ENDBRANCH  15  17
ENDBRANCH   7  11
BRANCH   1  19
ATOM     19  N   UNL     1       6.411   3.630  12.416  0.00  0.00    +0.000 N 
ATOM     20  H   UNL     1       6.019   4.241  11.706  0.00  0.00    +0.000 HD
ATOM     21  H   UNL     1       6.093   2.670  12.315  0.00  0.00    +0.000 HD
ENDBRANCH   1  19
TORSDOF 3
ENDMDL
MODEL 5
REMARK VINA RESULT:      -7.1      5.269      6.438
REMARK  Name = 
REMARK  3 active torsions:
REMARK  status: ('A' for Active; 'I' for Inactive)
REMARK    1  A    between atoms: N_1  and  C_2
REMARK    2  A    between atoms: C_8  and  C_9
REMARK    3  A    between atoms: C_13  and  O_14
REMARK                            x       y       z     vdW  Elec       q    Type
REMARK                         _______ _______ _______ _____ _____    ______ ____
ROOT
ATOM      1  C   UNL     1       0.249   9.618  22.172  0.00  0.00    +0.000 A 
ATOM      2  C   UNL     1       0.114  10.668  21.267  0.00  0.00    +0.000 A 
ATOM      3  C   UNL     1       0.650  10.561  19.981  0.00  0.00    +0.000 A 
ATOM      4  C   UNL     1       1.275   9.398  19.558  0.00  0.00    +0.000 A 
ATOM      5  N   UNL     1       1.764   9.329  18.308  0.00  0.00    +0.000 NA
ATOM      6  C   UNL     1       2.330   8.150  17.953  0.00  0.00    +0.000 A 
ATOM      7  C   UNL     1       2.422   7.056  18.805  0.00  0.00    +0.000 A 
ATOM      8  N   UNL     1       1.926   7.134  20.067  0.00  0.00    +0.000 NA
ATOM      9  C   UNL     1       1.359   8.301  20.445  0.00  0.00    +0.000 A 
ATOM     10  C   UNL     1       0.834   8.431  21.728  0.00  0.00    +0.000 A 
ENDROOT
BRANCH   7  11
ATOM     11  C   UNL     1       3.029   5.768  18.415  0.00  0.00    +0.000 A 
ATOM     12  C   UNL     1       2.260   4.775  17.777  0.00  0.00    +0.000 A 
ATOM     13  C   UNL     1       2.817   3.548  17.400  0.00  0.00    +0.000 A 
ATOM     14  C   UNL     1       4.157   3.281  17.661  0.00  0.00    +0.000 A 
ATOM     15  C   UNL     1       4.927   4.247  18.296  0.00  0.00    +0.000 A 
ATOM     16  C   UNL     1       4.381   5.475  18.665  0.00  0.00    +0.000 A 
BRANCH  15  17
ATOM     17  O   UNL     1       6.242   4.028  18.589  0.00  0.00    +0.000 OA
ATOM     18  H   UNL     1       6.580   3.338  17.997  0.00  0.00    +0.000 HD
ENDBRANCH  15  17
ENDBRANCH   7  11
BRANCH   1  19
ATOM     19  N   UNL     1      -0.400   9.672  23.410  0.00  0.00    +0.000 N 
ATOM     20  H   UNL     1      -0.973   8.860  23.619  0.00  0.00    +0.000 HD
ATOM     21  H   UNL     1      -0.888  10.544  23.588  0.00  0.00    +0.000 HD
ENDBRANCH   1  19
TORSDOF 3
ENDMDL
MODEL 6
REMARK VINA RESULT:      -7.1      3.099      6.660
REMARK  Name = 
REMARK  3 active torsions:
REMARK  status: ('A' for Active; 'I' for Inactive)
REMARK    1  A    between atoms: N_1  and  C_2
REMARK    2  A    between atoms: C_8  and  C_9
REMARK    3  A    between atoms: C_13  and  O_14
REMARK                            x       y       z     vdW  Elec       q    Type
REMARK                         _______ _______ _______ _____ _____    ______ ____
ROOT
ATOM      1  C   UNL     1       6.317   4.011  13.625  0.00  0.00    +0.000 A 
ATOM      2  C   UNL     1       7.358   4.842  14.030  0.00  0.00    +0.000 A 
ATOM      3  C   UNL     1       7.307   5.479  15.272  0.00  0.00    +0.000 A 
ATOM      4  C   UNL     1       6.255   5.261  16.149  0.00  0.00    +0.000 A 
ATOM      5  N   UNL     1       6.251   5.881  17.341  0.00  0.00    +0.000 NA
ATOM      6  C   UNL     1       5.209   5.594  18.159  0.00  0.00    +0.000 A 
ATOM      7  C   UNL     1       4.185   4.717  17.819  0.00  0.00    +0.000 A 
ATOM      8  N   UNL     1       4.198   4.095  16.611  0.00  0.00    +0.000 NA
ATOM      9  C   UNL     1       5.225   4.368  15.777  0.00  0.00    +0.000 A 
ATOM     10  C   UNL     1       5.284   3.754  14.529  0.00  0.00    +0.000 A 
ENDROOT
BRANCH   7  11
ATOM     11  C   UNL     1       3.058   4.395  18.714  0.00  0.00    +0.000 A 
ATOM     12  C   UNL     1       2.905   5.061  19.946  0.00  0.00    +0.000 A 
ATOM     13  C   UNL     1       1.842   4.769  20.809  0.00  0.00    +0.000 A 
ATOM     14  C   UNL     1       0.911   3.795  20.464  0.00  0.00    +0.000 A 
ATOM     15  C   UNL     1       1.052   3.124  19.256  0.00  0.00    +0.000 A 
ATOM     16  C   UNL     1       2.102   3.416  18.388  0.00  0.00    +0.000 A 
BRANCH  15  17
ATOM     17  O   UNL     1       0.176   2.148  18.879  0.00  0.00    +0.000 OA
ATOM     18  H   UNL     1       0.600   1.284  19.008  0.00  0.00    +0.000 HD
ENDBRANCH  15  17
ENDBRANCH   7  11
BRANCH   1  19
ATOM     19  N   UNL     1       6.428   3.271  12.444  0.00  0.00    +0.000 N 
ATOM     20  H   UNL     1       6.497   3.833  11.601  0.00  0.00    +0.000 HD
ATOM     21  H   UNL     1       5.746   2.525  12.353  0.00  0.00    +0.000 HD
ENDBRANCH   1  19
TORSDOF 3
ENDMDL
MODEL 7
REMARK VINA RESULT:      -7.1      4.829      7.142
REMARK  Name = 
REMARK  3 active torsions:
REMARK  status: ('A' for Active; 'I' for Inactive)
REMARK    1  A    between atoms: N_1  and  C_2
REMARK    2  A    between atoms: C_8  and  C_9
REMARK    3  A    between atoms: C_13  and  O_14
REMARK                            x       y       z     vdW  Elec       q    Type
REMARK                         _______ _______ _______ _____ _____    ______ ____
ROOT
ATOM      1  C   UNL     1       6.524   5.130  15.453  0.00  0.00    +0.000 A 
ATOM      2  C   UNL     1       6.068   3.822  15.594  0.00  0.00    +0.000 A 
ATOM      3  C   UNL     1       4.961   3.546  16.400  0.00  0.00    +0.000 A 
ATOM      4  C   UNL     1       4.259   4.564  17.029  0.00  0.00    +0.000 A 
ATOM      5  N   UNL     1       3.189   4.258  17.783  0.00  0.00    +0.000 NA
ATOM      6  C   UNL     1       2.533   5.305  18.339  0.00  0.00    +0.000 A 
ATOM      7  C   UNL     1       2.916   6.631  18.166  0.00  0.00    +0.000 A 
ATOM      8  N   UNL     1       3.999   6.930  17.403  0.00  0.00    +0.000 NA
ATOM      9  C   UNL     1       4.672   5.902  16.840  0.00  0.00    +0.000 A 
ATOM     10  C   UNL     1       5.788   6.157  16.047  0.00  0.00    +0.000 A 
ENDROOT
BRANCH   7  11
ATOM     11  C   UNL     1       2.194   7.771  18.762  0.00  0.00    +0.000 A 
ATOM     12  C   UNL     1       1.848   8.891  17.981  0.00  0.00    +0.000 A 
ATOM     13  C   UNL     1       1.165   9.983  18.528  0.00  0.00    +0.000 A 
ATOM     14  C   UNL     1       0.819   9.985  19.876  0.00  0.00    +0.000 A 
ATOM     15  C   UNL     1       1.160   8.891  20.661  0.00  0.00    +0.000 A 
ATOM     16  C   UNL     1       1.832   7.797  20.120  0.00  0.00    +0.000 A 
BRANCH  15  17
ATOM     17  O   UNL     1       0.859   8.851  21.992  0.00  0.00    +0.000 OA
ATOM     18  H   UNL     1       0.167   9.508  22.172  0.00  0.00    +0.000 HD
ENDBRANCH  15  17
ENDBRANCH   7  11
BRANCH   1  19
ATOM     19  N   UNL     1       7.548   5.423  14.546  0.00  0.00    +0.000 N 
ATOM     20  H   UNL     1       7.229   5.818  13.667  0.00  0.00    +0.000 HD
ATOM     21  H   UNL     1       8.214   4.668  14.411  0.00  0.00    +0.000 HD
ENDBRANCH   1  19
TORSDOF 3
ENDMDL
MODEL 8
REMARK VINA RESULT:      -7.1      5.467      6.338
REMARK  Name = 
REMARK  3 active torsions:
REMARK  status: ('A' for Active; 'I' for Inactive)
REMARK    1  A    between atoms: N_1  and  C_2
REMARK    2  A    between atoms: C_8  and  C_9
REMARK    3  A    between atoms: C_13  and  O_14
REMARK                            x       y       z     vdW  Elec       q    Type
REMARK                         _______ _______ _______ _____ _____    ______ ____
ROOT
ATOM      1  C   UNL     1       0.173   9.557  22.300  0.00  0.00    +0.000 A 
ATOM      2  C   UNL     1      -0.276  10.629  21.534  0.00  0.00    +0.000 A 
ATOM      3  C   UNL     1       0.110  10.748  20.197  0.00  0.00    +0.000 A 
ATOM      4  C   UNL     1       0.897   9.782  19.588  0.00  0.00    +0.000 A 
ATOM      5  N   UNL     1       1.233   9.925  18.294  0.00  0.00    +0.000 NA
ATOM      6  C   UNL     1       1.975   8.927  17.757  0.00  0.00    +0.000 A 
ATOM      7  C   UNL     1       2.386   7.806  18.471  0.00  0.00    +0.000 A 
ATOM      8  N   UNL     1       2.042   7.671  19.778  0.00  0.00    +0.000 NA
ATOM      9  C   UNL     1       1.305   8.655  20.337  0.00  0.00    +0.000 A 
ATOM     10  C   UNL     1       0.925   8.561  21.673  0.00  0.00    +0.000 A 
ENDROOT
BRANCH   7  11
ATOM     11  C   UNL     1       3.184   6.713  17.883  0.00  0.00    +0.000 A 
ATOM     12  C   UNL     1       2.778   5.372  18.022  0.00  0.00    +0.000 A 
ATOM     13  C   UNL     1       3.522   4.321  17.471  0.00  0.00    +0.000 A 
ATOM     14  C   UNL     1       4.697   4.588  16.776  0.00  0.00    +0.000 A 
ATOM     15  C   UNL     1       5.115   5.905  16.637  0.00  0.00    +0.000 A 
ATOM     16  C   UNL     1       4.374   6.957  17.174  0.00  0.00    +0.000 A 
BRANCH  15  17
ATOM     17  O   UNL     1       6.268   6.219  15.979  0.00  0.00    +0.000 OA
ATOM     18  H   UNL     1       6.873   5.463  16.037  0.00  0.00    +0.000 HD
ENDBRANCH  15  17
ENDBRANCH   7  11
BRANCH   1  19
ATOM     19  N   UNL     1      -0.317   9.367  23.597  0.00  0.00    +0.000 N 
ATOM     20  H   UNL     1       0.402   9.265  24.307  0.00  0.00    +0.000 HD
ATOM     21  H   UNL     1      -1.035   8.652  23.670  0.00  0.00    +0.000 HD
ENDBRANCH   1  19
TORSDOF 3
ENDMDL
MODEL 9
REMARK VINA RESULT:      -7.0      5.655      6.652
REMARK  Name = 
REMARK  3 active torsions:
REMARK  status: ('A' for Active; 'I' for Inactive)
REMARK    1  A    between atoms: N_1  and  C_2
REMARK    2  A    between atoms: C_8  and  C_9
REMARK    3  A    between atoms: C_13  and  O_14
REMARK                            x       y       z     vdW  Elec       q    Type
REMARK                         _______ _______ _______ _____ _____    ______ ____
ROOT
ATOM      1  C   UNL     1       0.262   9.626  22.248  0.00  0.00    +0.000 A 
ATOM      2  C   UNL     1      -0.000  10.740  21.455  0.00  0.00    +0.000 A 
ATOM      3  C   UNL     1       0.444  10.782  20.132  0.00  0.00    +0.000 A 
ATOM      4  C   UNL     1       1.103   9.704  19.561  0.00  0.00    +0.000 A 
ATOM      5  N   UNL     1       1.502   9.777  18.279  0.00  0.00    +0.000 NA
ATOM      6  C   UNL     1       2.109   8.674  17.779  0.00  0.00    +0.000 A 
ATOM      7  C   UNL     1       2.328   7.517  18.518  0.00  0.00    +0.000 A 
ATOM      8  N   UNL     1       1.922   7.452  19.813  0.00  0.00    +0.000 NA
ATOM      9  C   UNL     1       1.317   8.541  20.335  0.00  0.00    +0.000 A 
ATOM     10  C   UNL     1       0.882   8.523  21.658  0.00  0.00    +0.000 A 
ENDROOT
BRANCH   7  11
ATOM     11  C   UNL     1       2.978   6.311  17.970  0.00  0.00    +0.000 A 
ATOM     12  C   UNL     1       4.295   6.367  17.473  0.00  0.00    +0.000 A 
ATOM     13  C   UNL     1       4.928   5.235  16.948  0.00  0.00    +0.000 A 
ATOM     14  C   UNL     1       4.254   4.019  16.898  0.00  0.00    +0.000 A 
ATOM     15  C   UNL     1       2.952   3.949  17.377  0.00  0.00    +0.000 A 
ATOM     16  C   UNL     1       2.319   5.070  17.910  0.00  0.00    +0.000 A 
BRANCH  15  17
ATOM     17  O   UNL     1       2.241   2.785  17.336  0.00  0.00    +0.000 OA
ATOM     18  H   UNL     1       2.750   2.096  17.794  0.00  0.00    +0.000 HD
ENDBRANCH  15  17
ENDBRANCH   7  11
BRANCH   1  19
ATOM     19  N   UNL     1      -0.295   9.528  23.527  0.00  0.00    +0.000 N 
ATOM     20  H   UNL     1      -0.308  10.400  24.048  0.00  0.00    +0.000 HD
ATOM     21  H   UNL     1       0.064   8.755  24.080  0.00  0.00    +0.000 HD
ENDBRANCH   1  19
TORSDOF 3
ENDMDL
