MODEL 1
REMARK VINA RESULT:     -10.4      0.000      0.000
REMARK  Name = 
REMARK  4 active torsions:
REMARK  status: ('A' for Active; 'I' for Inactive)
REMARK    1  A    between atoms: C_1  and  C_2
REMARK    2  A    between atoms: C_5  and  C_6
REMARK    3  A    between atoms: C_13  and  C_14
REMARK    4  A    between atoms: N_16  and  C_17
REMARK                            x       y       z     vdW  Elec       q    Type
REMARK                         _______ _______ _______ _____ _____    ______ ____
ROOT
ATOM      1  C   UNL     1       2.465   5.578  19.696  0.00  0.00    +0.000 C 
ATOM      2  O   UNL     1       2.210   6.001  18.576  0.00  0.00    +0.000 OA
ATOM      3  N   UNL     1       2.194   6.275  20.873  0.00  0.00    +0.000 N 
ATOM      4  H   UNL     1       2.767   6.032  21.673  0.00  0.00    +0.000 HD
ENDROOT
BRANCH   3   5
ATOM      5  C   UNL     1       1.605   7.559  20.863  0.00  0.00    +0.000 A 
ATOM      6  C   UNL     1       1.785   8.368  19.744  0.00  0.00    +0.000 A 
ATOM      7  C   UNL     1       1.106   9.592  19.648  0.00  0.00    +0.000 A 
ATOM      8  C   UNL     1       0.317  10.052  20.691  0.00  0.00    +0.000 A 
ATOM      9  C   UNL     1      -0.354  11.262  20.580  0.00  0.00    +0.000 A 
ATOM     10  C   UNL     1      -1.122  11.751  21.646  0.00  0.00    +0.000 A 
ATOM     11  C   UNL     1      -1.219  11.015  22.825  0.00  0.00    +0.000 A 
ATOM     12  C   UNL     1      -0.569   9.785  22.933  0.00  0.00    +0.000 A 
ATOM     13  C   UNL     1       0.195   9.281  21.867  0.00  0.00    +0.000 A 
ATOM     14  C   UNL     1       0.828   8.027  21.929  0.00  0.00    +0.000 A 
ATOM     15  C   UNL     1      -0.262  12.031  19.327  0.00  0.00    +0.000 C 
ATOM     16  O   UNL     1      -0.871  13.087  19.210  0.00  0.00    +0.000 OA
ATOM     17  O   UNL     1       0.501  11.542  18.324  0.00  0.00    +0.000 OA
ATOM     18  C   UNL     1       1.192  10.386  18.411  0.00  0.00    +0.000 C 
ATOM     19  O   UNL     1       1.878   9.976  17.480  0.00  0.00    +0.000 OA
ENDBRANCH   3   5
BRANCH   1  25
ATOM     20  C   UNL     1       1.590   2.858  21.354  0.00  0.00    +0.000 C 
ATOM     21  C   UNL     1       2.788   3.228  20.576  0.00  0.00    +0.000 A 
ATOM     22  O   UNL     1       3.733   2.262  20.471  0.00  0.00    +0.000 OA
ATOM     23  N   UNL     1       4.795   2.728  19.743  0.00  0.00    +0.000 NA
ATOM     24  C   UNL     1       4.491   3.978  19.356  0.00  0.00    +0.000 A 
ATOM     25  C   UNL     1       3.203   4.346  19.880  0.00  0.00    +0.000 A 
BRANCH  24  26
ATOM     26  C   UNL     1       5.474   4.787  18.616  0.00  0.00    +0.000 A 
ATOM     27  C   UNL     1       6.486   5.451  19.340  0.00  0.00    +0.000 A 
ATOM     28  C   UNL     1       7.495   6.172  18.693  0.00  0.00    +0.000 A 
ATOM     29  C   UNL     1       7.531   6.226  17.305  0.00  0.00    +0.000 A 
ATOM     30  C   UNL     1       6.544   5.579  16.566  0.00  0.00    +0.000 A 
ATOM     31  C   UNL     1       5.514   4.874  17.209  0.00  0.00    +0.000 A 
ATOM     32 CL   UNL     1       4.313   4.178  16.171  0.00  0.00    +0.000 Cl
ENDBRANCH  24  26
ENDBRANCH   1  25
TORSDOF 3
ENDMDL
MODEL 2
REMARK VINA RESULT:     -10.2      1.441      2.447
REMARK  Name = 
REMARK  4 active torsions:
REMARK  status: ('A' for Active; 'I' for Inactive)
REMARK    1  A    between atoms: C_1  and  C_2
REMARK    2  A    between atoms: C_5  and  C_6
REMARK    3  A    between atoms: C_13  and  C_14
REMARK    4  A    between atoms: N_16  and  C_17
REMARK                            x       y       z     vdW  Elec       q    Type
REMARK                         _______ _______ _______ _____ _____    ______ ____
ROOT
ATOM      1  C   UNL     1       2.433   5.507  19.586  0.00  0.00    +0.000 C 
ATOM      2  O   UNL     1       2.005   5.772  18.470  0.00  0.00    +0.000 OA
ATOM      3  N   UNL     1       2.337   6.363  20.682  0.00  0.00    +0.000 N 
ATOM      4  H   UNL     1       3.028   6.229  21.411  0.00  0.00    +0.000 HD
ENDROOT
BRANCH   3   5
ATOM      5  C   UNL     1       1.738   7.640  20.583  0.00  0.00    +0.000 A 
ATOM      6  C   UNL     1       1.075   8.154  21.694  0.00  0.00    +0.000 A 
ATOM      7  C   UNL     1       0.586   9.470  21.670  0.00  0.00    +0.000 A 
ATOM      8  C   UNL     1       0.678  10.243  20.523  0.00  0.00    +0.000 A 
ATOM      9  C   UNL     1       0.195  11.544  20.516  0.00  0.00    +0.000 A 
ATOM     10  C   UNL     1       0.252  12.318  19.348  0.00  0.00    +0.000 A 
ATOM     11  C   UNL     1       0.802  11.781  18.187  0.00  0.00    +0.000 A 
ATOM     12  C   UNL     1       1.315  10.482  18.195  0.00  0.00    +0.000 A 
ATOM     13  C   UNL     1       1.272   9.702  19.362  0.00  0.00    +0.000 A 
ATOM     14  C   UNL     1       1.817   8.407  19.415  0.00  0.00    +0.000 A 
ATOM     15  C   UNL     1      -0.372  12.115  21.749  0.00  0.00    +0.000 C 
ATOM     16  O   UNL     1      -0.777  13.271  21.759  0.00  0.00    +0.000 OA
ATOM     17  O   UNL     1      -0.429  11.338  22.853  0.00  0.00    +0.000 OA
ATOM     18  C   UNL     1       0.001  10.059  22.886  0.00  0.00    +0.000 C 
ATOM     19  O   UNL     1      -0.071   9.383  23.907  0.00  0.00    +0.000 OA
ENDBRANCH   3   5
BRANCH   1  25
ATOM     20  C   UNL     1       1.599   2.805  21.295  0.00  0.00    +0.000 C 
ATOM     21  C   UNL     1       2.807   3.193  20.540  0.00  0.00    +0.000 A 
ATOM     22  O   UNL     1       3.785   2.257  20.488  0.00  0.00    +0.000 OA
ATOM     23  N   UNL     1       4.852   2.738  19.779  0.00  0.00    +0.000 NA
ATOM     24  C   UNL     1       4.518   3.966  19.348  0.00  0.00    +0.000 A 
ATOM     25  C   UNL     1       3.205   4.305  19.825  0.00  0.00    +0.000 A 
BRANCH  24  26
ATOM     26  C   UNL     1       5.497   4.787  18.614  0.00  0.00    +0.000 A 
ATOM     27  C   UNL     1       6.500   5.458  19.342  0.00  0.00    +0.000 A 
ATOM     28  C   UNL     1       7.504   6.191  18.701  0.00  0.00    +0.000 A 
ATOM     29  C   UNL     1       7.543   6.250  17.313  0.00  0.00    +0.000 A 
ATOM     30  C   UNL     1       6.565   5.595  16.570  0.00  0.00    +0.000 A 
ATOM     31  C   UNL     1       5.539   4.879  17.207  0.00  0.00    +0.000 A 
ATOM     32 CL   UNL     1       4.349   4.174  16.163  0.00  0.00    +0.000 Cl
ENDBRANCH  24  26
ENDBRANCH   1  25
TORSDOF 3
ENDMDL
MODEL 3
REMARK VINA RESULT:     -10.1      0.981      1.384
REMARK  Name = 
REMARK  4 active torsions:
REMARK  status: ('A' for Active; 'I' for Inactive)
REMARK    1  A    between atoms: C_1  and  C_2
REMARK    2  A    between atoms: C_5  and  C_6
REMARK    3  A    between atoms: C_13  and  C_14
REMARK    4  A    between atoms: N_16  and  C_17
REMARK                            x       y       z     vdW  Elec       q    Type
REMARK                         _______ _______ _______ _____ _____    ______ ____
ROOT
ATOM      1  C   UNL     1       2.501   5.426  19.546  0.00  0.00    +0.000 C 
ATOM      2  O   UNL     1       2.210   5.848  18.435  0.00  0.00    +0.000 OA
ATOM      3  N   UNL     1       2.278   6.128  20.730  0.00  0.00    +0.000 N 
ATOM      4  H   UNL     1       2.876   5.883  21.510  0.00  0.00    +0.000 HD
ENDROOT
BRANCH   3   5
ATOM      5  C   UNL     1       1.699   7.418  20.737  0.00  0.00    +0.000 A 
ATOM      6  C   UNL     1       1.884   8.238  19.628  0.00  0.00    +0.000 A 
ATOM      7  C   UNL     1       1.214   9.469  19.548  0.00  0.00    +0.000 A 
ATOM      8  C   UNL     1       0.431   9.922  20.598  0.00  0.00    +0.000 A 
ATOM      9  C   UNL     1      -0.230  11.139  20.503  0.00  0.00    +0.000 A 
ATOM     10  C   UNL     1      -0.993  11.620  21.576  0.00  0.00    +0.000 A 
ATOM     11  C   UNL     1      -1.094  10.871  22.746  0.00  0.00    +0.000 A 
ATOM     12  C   UNL     1      -0.454   9.634  22.838  0.00  0.00    +0.000 A 
ATOM     13  C   UNL     1       0.305   9.138  21.765  0.00  0.00    +0.000 A 
ATOM     14  C   UNL     1       0.927   7.878  21.810  0.00  0.00    +0.000 A 
ATOM     15  C   UNL     1      -0.134  11.923  19.260  0.00  0.00    +0.000 C 
ATOM     16  O   UNL     1      -0.735  12.985  19.157  0.00  0.00    +0.000 OA
ATOM     17  O   UNL     1       0.623  11.440  18.250  0.00  0.00    +0.000 OA
ATOM     18  C   UNL     1       1.305  10.278  18.321  0.00  0.00    +0.000 C 
ATOM     19  O   UNL     1       1.987   9.874  17.384  0.00  0.00    +0.000 OA
ENDBRANCH   3   5
BRANCH   1  25
ATOM     20  C   UNL     1       2.054   3.016  21.762  0.00  0.00    +0.000 C 
ATOM     21  C   UNL     1       3.003   3.204  20.647  0.00  0.00    +0.000 A 
ATOM     22  O   UNL     1       3.863   2.177  20.438  0.00  0.00    +0.000 OA
ATOM     23  N   UNL     1       4.696   2.474  19.393  0.00  0.00    +0.000 NA
ATOM     24  C   UNL     1       4.324   3.676  18.920  0.00  0.00    +0.000 A 
ATOM     25  C   UNL     1       3.235   4.188  19.708  0.00  0.00    +0.000 A 
BRANCH  24  26
ATOM     26  C   UNL     1       5.086   4.315  17.834  0.00  0.00    +0.000 A 
ATOM     27  C   UNL     1       4.673   4.105  16.502  0.00  0.00    +0.000 A 
ATOM     28  C   UNL     1       5.305   4.743  15.431  0.00  0.00    +0.000 A 
ATOM     29  C   UNL     1       6.352   5.626  15.666  0.00  0.00    +0.000 A 
ATOM     30  C   UNL     1       6.780   5.851  16.972  0.00  0.00    +0.000 A 
ATOM     31  C   UNL     1       6.166   5.195  18.051  0.00  0.00    +0.000 A 
ATOM     32 CL   UNL     1       6.845   5.514  19.613  0.00  0.00    +0.000 Cl
ENDBRANCH  24  26
ENDBRANCH   1  25
TORSDOF 3
ENDMDL
MODEL 4
REMARK VINA RESULT:     -10.0      1.742      2.813
REMARK  Name = 
REMARK  4 active torsions:
REMARK  status: ('A' for Active; 'I' for Inactive)
REMARK    1  A    between atoms: C_1  and  C_2
REMARK    2  A    between atoms: C_5  and  C_6
REMARK    3  A    between atoms: C_13  and  C_14
REMARK    4  A    between atoms: N_16  and  C_17
REMARK                            x       y       z     vdW  Elec       q    Type
REMARK                         _______ _______ _______ _____ _____    ______ ____
ROOT
ATOM      1  C   UNL     1       2.512   5.541  19.409  0.00  0.00    +0.000 C 
ATOM      2  O   UNL     1       2.184   5.876  18.279  0.00  0.00    +0.000 OA
ATOM      3  N   UNL     1       2.341   6.339  20.540  0.00  0.00    +0.000 N 
ATOM      4  H   UNL     1       2.965   6.149  21.314  0.00  0.00    +0.000 HD
ENDROOT
BRANCH   3   5
ATOM      5  C   UNL     1       1.778   7.633  20.463  0.00  0.00    +0.000 A 
ATOM      6  C   UNL     1       1.115   8.139  21.578  0.00  0.00    +0.000 A 
ATOM      7  C   UNL     1       0.661   9.468  21.579  0.00  0.00    +0.000 A 
ATOM      8  C   UNL     1       0.789  10.264  20.451  0.00  0.00    +0.000 A 
ATOM      9  C   UNL     1       0.340  11.578  20.469  0.00  0.00    +0.000 A 
ATOM     10  C   UNL     1       0.432  12.376  19.321  0.00  0.00    +0.000 A 
ATOM     11  C   UNL     1       0.982  11.851  18.153  0.00  0.00    +0.000 A 
ATOM     12  C   UNL     1       1.460  10.540  18.137  0.00  0.00    +0.000 A 
ATOM     13  C   UNL     1       1.382   9.735  19.285  0.00  0.00    +0.000 A 
ATOM     14  C   UNL     1       1.891   8.424  19.314  0.00  0.00    +0.000 A 
ATOM     15  C   UNL     1      -0.227  12.135  21.708  0.00  0.00    +0.000 C 
ATOM     16  O   UNL     1      -0.602  13.301  21.741  0.00  0.00    +0.000 OA
ATOM     17  O   UNL     1      -0.319  11.335  22.794  0.00  0.00    +0.000 OA
ATOM     18  C   UNL     1       0.077  10.044  22.801  0.00  0.00    +0.000 C 
ATOM     19  O   UNL     1      -0.026   9.347  23.806  0.00  0.00    +0.000 OA
ENDBRANCH   3   5
BRANCH   1  25
ATOM     20  C   UNL     1       2.011   3.240  21.727  0.00  0.00    +0.000 C 
ATOM     21  C   UNL     1       2.982   3.371  20.623  0.00  0.00    +0.000 A 
ATOM     22  O   UNL     1       3.841   2.333  20.480  0.00  0.00    +0.000 OA
ATOM     23  N   UNL     1       4.696   2.577  19.439  0.00  0.00    +0.000 NA
ATOM     24  C   UNL     1       4.339   3.756  18.902  0.00  0.00    +0.000 A 
ATOM     25  C   UNL     1       3.237   4.309  19.643  0.00  0.00    +0.000 A 
BRANCH  24  26
ATOM     26  C   UNL     1       5.125   4.341  17.802  0.00  0.00    +0.000 A 
ATOM     27  C   UNL     1       4.709   4.108  16.475  0.00  0.00    +0.000 A 
ATOM     28  C   UNL     1       5.366   4.696  15.390  0.00  0.00    +0.000 A 
ATOM     29  C   UNL     1       6.440   5.551  15.605  0.00  0.00    +0.000 A 
ATOM     30  C   UNL     1       6.870   5.798  16.906  0.00  0.00    +0.000 A 
ATOM     31  C   UNL     1       6.231   5.192  18.000  0.00  0.00    +0.000 A 
ATOM     32 CL   UNL     1       6.915   5.530  19.556  0.00  0.00    +0.000 Cl
ENDBRANCH  24  26
ENDBRANCH   1  25
TORSDOF 3
ENDMDL
MODEL 5
REMARK VINA RESULT:      -9.9      1.489      1.590
REMARK  Name = 
REMARK  4 active torsions:
REMARK  status: ('A' for Active; 'I' for Inactive)
REMARK    1  A    between atoms: C_1  and  C_2
REMARK    2  A    between atoms: C_5  and  C_6
REMARK    3  A    between atoms: C_13  and  C_14
REMARK    4  A    between atoms: N_16  and  C_17
REMARK                            x       y       z     vdW  Elec       q    Type
REMARK                         _______ _______ _______ _____ _____    ______ ____
ROOT
ATOM      1  C   UNL     1       2.555   5.672  19.629  0.00  0.00    +0.000 C 
ATOM      2  O   UNL     1       2.197   5.449  20.777  0.00  0.00    +0.000 OA
ATOM      3  N   UNL     1       2.432   6.911  19.000  0.00  0.00    +0.000 N 
ATOM      4  H   UNL     1       2.392   6.892  17.988  0.00  0.00    +0.000 HD
ENDROOT
BRANCH   3   5
ATOM      5  C   UNL     1       1.857   8.026  19.652  0.00  0.00    +0.000 A 
ATOM      6  C   UNL     1       1.981   9.281  19.062  0.00  0.00    +0.000 A 
ATOM      7  C   UNL     1       1.309  10.383  19.614  0.00  0.00    +0.000 A 
ATOM      8  C   UNL     1       0.588  10.260  20.791  0.00  0.00    +0.000 A 
ATOM      9  C   UNL     1      -0.076  11.358  21.322  0.00  0.00    +0.000 A 
ATOM     10  C   UNL     1      -0.776  11.249  22.532  0.00  0.00    +0.000 A 
ATOM     11  C   UNL     1      -0.812  10.030  23.205  0.00  0.00    +0.000 A 
ATOM     12  C   UNL     1      -0.171   8.915  22.662  0.00  0.00    +0.000 A 
ATOM     13  C   UNL     1       0.525   9.011  21.445  0.00  0.00    +0.000 A 
ATOM     14  C   UNL     1       1.147   7.898  20.851  0.00  0.00    +0.000 A 
ATOM     15  C   UNL     1      -0.049  12.641  20.602  0.00  0.00    +0.000 C 
ATOM     16  O   UNL     1      -0.653  13.609  21.050  0.00  0.00    +0.000 OA
ATOM     17  O   UNL     1       0.649  12.719  19.447  0.00  0.00    +0.000 OA
ATOM     18  C   UNL     1       1.332  11.681  18.920  0.00  0.00    +0.000 C 
ATOM     19  O   UNL     1       1.959  11.792  17.871  0.00  0.00    +0.000 OA
ENDBRANCH   3   5
BRANCH   1  25
ATOM     20  C   UNL     1       0.983   2.935  18.655  0.00  0.00    +0.000 C 
ATOM     21  C   UNL     1       2.326   3.482  18.383  0.00  0.00    +0.000 A 
ATOM     22  O   UNL     1       3.089   2.751  17.535  0.00  0.00    +0.000 OA
ATOM     23  N   UNL     1       4.311   3.349  17.376  0.00  0.00    +0.000 NA
ATOM     24  C   UNL     1       4.292   4.483  18.096  0.00  0.00    +0.000 A 
ATOM     25  C   UNL     1       3.028   4.605  18.772  0.00  0.00    +0.000 A 
BRANCH  24  26
ATOM     26  C   UNL     1       5.499   5.320  18.195  0.00  0.00    +0.000 A 
ATOM     27  C   UNL     1       6.373   5.123  19.283  0.00  0.00    +0.000 A 
ATOM     28  C   UNL     1       7.574   5.831  19.395  0.00  0.00    +0.000 A 
ATOM     29  C   UNL     1       7.943   6.736  18.408  0.00  0.00    +0.000 A 
ATOM     30  C   UNL     1       7.098   6.950  17.321  0.00  0.00    +0.000 A 
ATOM     31  C   UNL     1       5.879   6.261  17.215  0.00  0.00    +0.000 A 
ATOM     32 CL   UNL     1       4.895   6.676  15.851  0.00  0.00    +0.000 Cl
ENDBRANCH  24  26
ENDBRANCH   1  25
TORSDOF 3
ENDMDL
MODEL 6
REMARK VINA RESULT:      -9.8      2.061      4.065
REMARK  Name = 
REMARK  4 active torsions:
REMARK  status: ('A' for Active; 'I' for Inactive)
REMARK    1  A    between atoms: C_1  and  C_2
REMARK    2  A    between atoms: C_5  and  C_6
REMARK    3  A    between atoms: C_13  and  C_14
REMARK    4  A    between atoms: N_16  and  C_17
REMARK                            x       y       z     vdW  Elec       q    Type
REMARK                         _______ _______ _______ _____ _____    ______ ____
ROOT
ATOM      1  C   UNL     1       3.337   7.012  18.533  0.00  0.00    +0.000 C 
ATOM      2  O   UNL     1       3.207   7.776  17.587  0.00  0.00    +0.000 OA
ATOM      3  N   UNL     1       2.616   7.113  19.723  0.00  0.00    +0.000 N 
ATOM      4  H   UNL     1       3.051   6.703  20.541  0.00  0.00    +0.000 HD
ENDROOT
BRANCH   3   5
ATOM      5  C   UNL     1       1.668   8.140  19.937  0.00  0.00    +0.000 A 
ATOM      6  C   UNL     1       1.325   8.468  21.246  0.00  0.00    +0.000 A 
ATOM      7  C   UNL     1       0.490   9.568  21.495  0.00  0.00    +0.000 A 
ATOM      8  C   UNL     1      -0.069  10.289  20.451  0.00  0.00    +0.000 A 
ATOM      9  C   UNL     1      -0.888  11.378  20.713  0.00  0.00    +0.000 A 
ATOM     10  C   UNL     1      -1.487  12.087  19.662  0.00  0.00    +0.000 A 
ATOM     11  C   UNL     1      -1.255  11.701  18.344  0.00  0.00    +0.000 A 
ATOM     12  C   UNL     1      -0.409  10.623  18.073  0.00  0.00    +0.000 A 
ATOM     13  C   UNL     1       0.203   9.912  19.118  0.00  0.00    +0.000 A 
ATOM     14  C   UNL     1       1.091   8.849  18.878  0.00  0.00    +0.000 A 
ATOM     15  C   UNL     1      -1.121  11.794  22.106  0.00  0.00    +0.000 C 
ATOM     16  O   UNL     1      -1.821  12.770  22.346  0.00  0.00    +0.000 OA
ATOM     17  O   UNL     1      -0.544  11.080  23.098  0.00  0.00    +0.000 OA
ATOM     18  C   UNL     1       0.231   9.996  22.880  0.00  0.00    +0.000 C 
ATOM     19  O   UNL     1       0.734   9.369  23.807  0.00  0.00    +0.000 OA
ENDBRANCH   3   5
BRANCH   1  25
ATOM     20  C   UNL     1       6.423   7.174  17.364  0.00  0.00    +0.000 C 
ATOM     21  C   UNL     1       5.651   6.115  18.044  0.00  0.00    +0.000 A 
ATOM     22  O   UNL     1       6.330   4.967  18.284  0.00  0.00    +0.000 OA
ATOM     23  N   UNL     1       5.509   4.061  18.901  0.00  0.00    +0.000 NA
ATOM     24  C   UNL     1       4.322   4.666  19.085  0.00  0.00    +0.000 A 
ATOM     25  C   UNL     1       4.368   5.995  18.537  0.00  0.00    +0.000 A 
BRANCH  24  26
ATOM     26  C   UNL     1       3.190   3.920  19.659  0.00  0.00    +0.000 A 
ATOM     27  C   UNL     1       3.045   3.883  21.061  0.00  0.00    +0.000 A 
ATOM     28  C   UNL     1       1.950   3.257  21.667  0.00  0.00    +0.000 A 
ATOM     29  C   UNL     1       0.962   2.673  20.884  0.00  0.00    +0.000 A 
ATOM     30  C   UNL     1       1.081   2.696  19.497  0.00  0.00    +0.000 A 
ATOM     31  C   UNL     1       2.189   3.301  18.883  0.00  0.00    +0.000 A 
ATOM     32 CL   UNL     1       2.245   3.194  17.154  0.00  0.00    +0.000 Cl
ENDBRANCH  24  26
ENDBRANCH   1  25
TORSDOF 3
ENDMDL
MODEL 7
REMARK VINA RESULT:      -9.7      1.746      2.599
REMARK  Name = 
REMARK  4 active torsions:
REMARK  status: ('A' for Active; 'I' for Inactive)
REMARK    1  A    between atoms: C_1  and  C_2
REMARK    2  A    between atoms: C_5  and  C_6
REMARK    3  A    between atoms: C_13  and  C_14
REMARK    4  A    between atoms: N_16  and  C_17
REMARK                            x       y       z     vdW  Elec       q    Type
REMARK                         _______ _______ _______ _____ _____    ______ ____
ROOT
ATOM      1  C   UNL     1       1.943   5.273  20.467  0.00  0.00    +0.000 C 
ATOM      2  O   UNL     1       0.742   5.068  20.355  0.00  0.00    +0.000 OA
ATOM      3  N   UNL     1       2.511   6.543  20.569  0.00  0.00    +0.000 N 
ATOM      4  H   UNL     1       3.478   6.620  20.276  0.00  0.00    +0.000 HD
ENDROOT
BRANCH   3   5
ATOM      5  C   UNL     1       1.727   7.718  20.536  0.00  0.00    +0.000 A 
ATOM      6  C   UNL     1       1.215   8.214  21.732  0.00  0.00    +0.000 A 
ATOM      7  C   UNL     1       0.545   9.447  21.749  0.00  0.00    +0.000 A 
ATOM      8  C   UNL     1       0.310  10.145  20.575  0.00  0.00    +0.000 A 
ATOM      9  C   UNL     1      -0.349  11.367  20.608  0.00  0.00    +0.000 A 
ATOM     10  C   UNL     1      -0.623  12.059  19.420  0.00  0.00    +0.000 A 
ATOM     11  C   UNL     1      -0.228  11.523  18.197  0.00  0.00    +0.000 A 
ATOM     12  C   UNL     1       0.460  10.308  18.159  0.00  0.00    +0.000 A 
ATOM     13  C   UNL     1       0.748   9.611  19.344  0.00  0.00    +0.000 A 
ATOM     14  C   UNL     1       1.474   8.407  19.344  0.00  0.00    +0.000 A 
ATOM     15  C   UNL     1      -0.753  11.939  21.903  0.00  0.00    +0.000 C 
ATOM     16  O   UNL     1      -1.312  13.029  21.944  0.00  0.00    +0.000 OA
ATOM     17  O   UNL     1      -0.490  11.239  23.029  0.00  0.00    +0.000 OA
ATOM     18  C   UNL     1       0.119  10.035  23.030  0.00  0.00    +0.000 C 
ATOM     19  O   UNL     1       0.337   9.426  24.073  0.00  0.00    +0.000 OA
ENDBRANCH   3   5
BRANCH   1  25
ATOM     20  C   UNL     1       1.911   2.330  21.967  0.00  0.00    +0.000 C 
ATOM     21  C   UNL     1       2.836   2.970  21.011  0.00  0.00    +0.000 A 
ATOM     22  O   UNL     1       3.885   2.206  20.620  0.00  0.00    +0.000 OA
ATOM     23  N   UNL     1       4.674   2.910  19.751  0.00  0.00    +0.000 NA
ATOM     24  C   UNL     1       4.089   4.106  19.566  0.00  0.00    +0.000 A 
ATOM     25  C   UNL     1       2.899   4.190  20.370  0.00  0.00    +0.000 A 
BRANCH  24  26
ATOM     26  C   UNL     1       4.743   5.133  18.737  0.00  0.00    +0.000 A 
ATOM     27  C   UNL     1       6.104   5.419  18.962  0.00  0.00    +0.000 A 
ATOM     28  C   UNL     1       6.804   6.327  18.160  0.00  0.00    +0.000 A 
ATOM     29  C   UNL     1       6.164   6.953  17.097  0.00  0.00    +0.000 A 
ATOM     30  C   UNL     1       4.819   6.688  16.853  0.00  0.00    +0.000 A 
ATOM     31  C   UNL     1       4.104   5.796  17.669  0.00  0.00    +0.000 A 
ATOM     32 CL   UNL     1       2.422   5.615  17.295  0.00  0.00    +0.000 Cl
ENDBRANCH  24  26
ENDBRANCH   1  25
TORSDOF 3
ENDMDL
MODEL 8
REMARK VINA RESULT:      -9.4      3.396      8.424
REMARK  Name = 
REMARK  4 active torsions:
REMARK  status: ('A' for Active; 'I' for Inactive)
REMARK    1  A    between atoms: C_1  and  C_2
REMARK    2  A    between atoms: C_5  and  C_6
REMARK    3  A    between atoms: C_13  and  C_14
REMARK    4  A    between atoms: N_16  and  C_17
REMARK                            x       y       z     vdW  Elec       q    Type
REMARK                         _______ _______ _______ _____ _____    ______ ____
ROOT
ATOM      1  C   UNL     1       0.785   9.822  18.988  0.00  0.00    +0.000 C 
ATOM      2  O   UNL     1       1.096   9.672  20.162  0.00  0.00    +0.000 OA
ATOM      3  N   UNL     1       1.284   9.043  17.944  0.00  0.00    +0.000 N 
ATOM      4  H   UNL     1       1.274   9.474  17.027  0.00  0.00    +0.000 HD
ENDROOT
BRANCH   3   5
ATOM      5  C   UNL     1       2.220   8.008  18.165  0.00  0.00    +0.000 A 
ATOM      6  C   UNL     1       1.921   7.026  19.105  0.00  0.00    +0.000 A 
ATOM      7  C   UNL     1       2.767   5.916  19.252  0.00  0.00    +0.000 A 
ATOM      8  C   UNL     1       3.947   5.821  18.530  0.00  0.00    +0.000 A 
ATOM      9  C   UNL     1       4.771   4.714  18.682  0.00  0.00    +0.000 A 
ATOM     10  C   UNL     1       5.984   4.629  17.983  0.00  0.00    +0.000 A 
ATOM     11  C   UNL     1       6.364   5.659  17.126  0.00  0.00    +0.000 A 
ATOM     12  C   UNL     1       5.526   6.762  16.948  0.00  0.00    +0.000 A 
ATOM     13  C   UNL     1       4.305   6.852  17.636  0.00  0.00    +0.000 A 
ATOM     14  C   UNL     1       3.420   7.929  17.448  0.00  0.00    +0.000 A 
ATOM     15  C   UNL     1       4.361   3.619  19.577  0.00  0.00    +0.000 C 
ATOM     16  O   UNL     1       5.069   2.627  19.697  0.00  0.00    +0.000 OA
ATOM     17  O   UNL     1       3.195   3.738  20.250  0.00  0.00    +0.000 OA
ATOM     18  C   UNL     1       2.386   4.815  20.151  0.00  0.00    +0.000 C 
ATOM     19  O   UNL     1       1.336   4.889  20.782  0.00  0.00    +0.000 OA
ENDBRANCH   3   5
BRANCH   1  25
ATOM     20  C   UNL     1      -2.234   9.765  17.647  0.00  0.00    +0.000 C 
ATOM     21  C   UNL     1      -1.313  10.856  18.023  0.00  0.00    +0.000 A 
ATOM     22  O   UNL     1      -1.785  12.110  17.819  0.00  0.00    +0.000 OA
ATOM     23  N   UNL     1      -0.839  13.028  18.189  0.00  0.00    +0.000 NA
ATOM     24  C   UNL     1       0.213  12.341  18.668  0.00  0.00    +0.000 A 
ATOM     25  C   UNL     1      -0.048  10.930  18.571  0.00  0.00    +0.000 A 
BRANCH  24  26
ATOM     26  C   UNL     1       1.437  13.049  19.078  0.00  0.00    +0.000 A 
ATOM     27  C   UNL     1       2.455  13.250  18.124  0.00  0.00    +0.000 A 
ATOM     28  C   UNL     1       3.609  13.980  18.427  0.00  0.00    +0.000 A 
ATOM     29  C   UNL     1       3.762  14.548  19.686  0.00  0.00    +0.000 A 
ATOM     30  C   UNL     1       2.771  14.365  20.647  0.00  0.00    +0.000 A 
ATOM     31  C   UNL     1       1.622  13.612  20.357  0.00  0.00    +0.000 A 
ATOM     32 CL   UNL     1       0.505  13.405  21.667  0.00  0.00    +0.000 Cl
ENDBRANCH  24  26
ENDBRANCH   1  25
TORSDOF 3
ENDMDL
MODEL 9
REMARK VINA RESULT:      -9.4      1.982      2.850
REMARK  Name = 
REMARK  4 active torsions:
REMARK  status: ('A' for Active; 'I' for Inactive)
REMARK    1  A    between atoms: C_1  and  C_2
REMARK    2  A    between atoms: C_5  and  C_6
REMARK    3  A    between atoms: C_13  and  C_14
REMARK    4  A    between atoms: N_16  and  C_17
REMARK                            x       y       z     vdW  Elec       q    Type
REMARK                         _______ _______ _______ _____ _____    ______ ____
ROOT
ATOM      1  C   UNL     1       2.478   6.151  19.290  0.00  0.00    +0.000 C 
ATOM      2  O   UNL     1       2.030   6.125  20.428  0.00  0.00    +0.000 OA
ATOM      3  N   UNL     1       2.458   7.277  18.468  0.00  0.00    +0.000 N 
ATOM      4  H   UNL     1       2.489   7.099  17.471  0.00  0.00    +0.000 HD
ENDROOT
BRANCH   3   5
ATOM      5  C   UNL     1       1.890   8.500  18.891  0.00  0.00    +0.000 A 
ATOM      6  C   UNL     1       1.063   8.500  20.011  0.00  0.00    +0.000 A 
ATOM      7  C   UNL     1       0.592   9.715  20.533  0.00  0.00    +0.000 A 
ATOM      8  C   UNL     1       0.870  10.917  19.900  0.00  0.00    +0.000 A 
ATOM      9  C   UNL     1       0.402  12.111  20.431  0.00  0.00    +0.000 A 
ATOM     10  C   UNL     1       0.647  13.326  19.776  0.00  0.00    +0.000 A 
ATOM     11  C   UNL     1       1.370  13.338  18.586  0.00  0.00    +0.000 A 
ATOM     12  C   UNL     1       1.868  12.144  18.061  0.00  0.00    +0.000 A 
ATOM     13  C   UNL     1       1.636  10.922  18.715  0.00  0.00    +0.000 A 
ATOM     14  C   UNL     1       2.157   9.707  18.235  0.00  0.00    +0.000 A 
ATOM     15  C   UNL     1      -0.350  12.098  21.698  0.00  0.00    +0.000 C 
ATOM     16  O   UNL     1      -0.744  13.150  22.187  0.00  0.00    +0.000 OA
ATOM     17  O   UNL     1      -0.586  10.910  22.296  0.00  0.00    +0.000 OA
ATOM     18  C   UNL     1      -0.174   9.728  21.790  0.00  0.00    +0.000 C 
ATOM     19  O   UNL     1      -0.411   8.668  22.361  0.00  0.00    +0.000 OA
ENDBRANCH   3   5
BRANCH   1  25
ATOM     20  C   UNL     1       0.840   3.367  18.593  0.00  0.00    +0.000 C 
ATOM     21  C   UNL     1       2.231   3.807  18.369  0.00  0.00    +0.000 A 
ATOM     22  O   UNL     1       3.021   2.922  17.713  0.00  0.00    +0.000 OA
ATOM     23  N   UNL     1       4.283   3.434  17.581  0.00  0.00    +0.000 NA
ATOM     24  C   UNL     1       4.268   4.666  18.119  0.00  0.00    +0.000 A 
ATOM     25  C   UNL     1       2.961   4.945  18.649  0.00  0.00    +0.000 A 
BRANCH  24  26
ATOM     26  C   UNL     1       5.509   5.455  18.204  0.00  0.00    +0.000 A 
ATOM     27  C   UNL     1       6.382   5.230  19.288  0.00  0.00    +0.000 A 
ATOM     28  C   UNL     1       7.611   5.890  19.386  0.00  0.00    +0.000 A 
ATOM     29  C   UNL     1       8.008   6.773  18.390  0.00  0.00    +0.000 A 
ATOM     30  C   UNL     1       7.165   7.013  17.308  0.00  0.00    +0.000 A 
ATOM     31  C   UNL     1       5.919   6.373  17.215  0.00  0.00    +0.000 A 
ATOM     32 CL   UNL     1       4.942   6.817  15.854  0.00  0.00    +0.000 Cl
ENDBRANCH  24  26
ENDBRANCH   1  25
TORSDOF 3
ENDMDL
