MODEL 1
REMARK VINA RESULT:      -8.4      0.000      0.000
REMARK  Name = 
REMARK  6 active torsions:
REMARK  status: ('A' for Active; 'I' for Inactive)
REMARK    1  A    between atoms: C_2  and  O_3
REMARK    2  A    between atoms: C_2  and  C_4
REMARK    3  A    between atoms: C_4  and  C_5
REMARK    4  A    between atoms: N_7  and  C_8
REMARK    5  A    between atoms: C_8  and  C_9
REMARK    6  A    between atoms: C_11  and  C_12
REMARK                            x       y       z     vdW  Elec       q    Type
REMARK                         _______ _______ _______ _____ _____    ______ ____
ROOT
ATOM      1  C   UNL     1      -2.061  10.326  17.544  0.00  0.00    +0.000 A 
ATOM      2  N   UNL     1      -0.775  10.149  17.511  0.00  0.00    +0.000 NA
ATOM      3  N   UNL     1       0.014  10.766  18.457  0.00  0.00    +0.000 N 
ATOM      4  C   UNL     1      -0.471  11.589  19.467  0.00  0.00    +0.000 A 
ATOM      5  O   UNL     1       0.231  12.112  20.327  0.00  0.00    +0.000 OA
ATOM      6  C   UNL     1      -1.924  11.835  19.470  0.00  0.00    +0.000 A 
ATOM      7  C   UNL     1      -2.475  12.734  20.393  0.00  0.00    +0.000 A 
ATOM      8  C   UNL     1      -3.846  12.981  20.392  0.00  0.00    +0.000 A 
ATOM      9  C   UNL     1      -4.667  12.317  19.485  0.00  0.00    +0.000 A 
ATOM     10  C   UNL     1      -4.117  11.422  18.562  0.00  0.00    +0.000 A 
ATOM     11  C   UNL     1      -2.734  11.191  18.541  0.00  0.00    +0.000 A 
ENDROOT
BRANCH   1  12
ATOM     12  C   UNL     1      -2.869   9.669  16.439  0.00  0.00    +0.000 C 
BRANCH  12  14
ATOM     13  O   UNL     1      -2.576   9.924  14.047  0.00  0.00    +0.000 OA
ATOM     14  C   UNL     1      -2.879  10.403  15.128  0.00  0.00    +0.000 C 
BRANCH  14  15
ATOM     15  O   UNL     1      -3.318  11.680  15.251  0.00  0.00    +0.000 OA
ATOM     16  H   UNL     1      -3.393  11.999  16.171  0.00  0.00    +0.000 HD
ENDBRANCH  14  15
ENDBRANCH  12  14
ENDBRANCH   1  12
BRANCH   3  17
ATOM     17  C   UNL     1       1.462  10.604  18.316  0.00  0.00    +0.000 C 
BRANCH  17  18
ATOM     18  C   UNL     1       1.833   9.189  18.580  0.00  0.00    +0.000 A 
ATOM     19  N   UNL     1       2.324   8.278  17.770  0.00  0.00    +0.000 NA
ATOM     20  C   UNL     1       2.352   7.148  18.560  0.00  0.00    +0.000 A 
ATOM     21  N   UNL     1       1.992   7.374  19.833  0.00  0.00    +0.000 NA
ATOM     22  O   UNL     1       1.624   8.720  19.844  0.00  0.00    +0.000 OA
BRANCH  20  23
ATOM     23  C   UNL     1       2.746   5.860  18.003  0.00  0.00    +0.000 A 
ATOM     24  C   UNL     1       1.827   4.793  18.095  0.00  0.00    +0.000 A 
ATOM     25  C   UNL     1       2.163   3.507  17.664  0.00  0.00    +0.000 A 
ATOM     26  C   UNL     1       3.424   3.263  17.130  0.00  0.00    +0.000 A 
ATOM     27  C   UNL     1       4.342   4.307  17.019  0.00  0.00    +0.000 A 
ATOM     28  C   UNL     1       4.012   5.600  17.452  0.00  0.00    +0.000 A 
ATOM     29 CL   UNL     1       5.263   6.789  17.329  0.00  0.00    +0.000 Cl
ENDBRANCH  20  23
ENDBRANCH  17  18
ENDBRANCH   3  17
TORSDOF 6
ENDMDL
MODEL 2
REMARK VINA RESULT:      -8.2      4.724      9.282
REMARK  Name = 
REMARK  6 active torsions:
REMARK  status: ('A' for Active; 'I' for Inactive)
REMARK    1  A    between atoms: C_2  and  O_3
REMARK    2  A    between atoms: C_2  and  C_4
REMARK    3  A    between atoms: C_4  and  C_5
REMARK    4  A    between atoms: N_7  and  C_8
REMARK    5  A    between atoms: C_8  and  C_9
REMARK    6  A    between atoms: C_11  and  C_12
REMARK                            x       y       z     vdW  Elec       q    Type
REMARK                         _______ _______ _______ _____ _____    ______ ____
ROOT
ATOM      1  C   UNL     1       6.853   5.110  18.091  0.00  0.00    +0.000 A 
ATOM      2  N   UNL     1       6.046   4.815  19.065  0.00  0.00    +0.000 NA
ATOM      3  N   UNL     1       4.905   4.092  18.798  0.00  0.00    +0.000 N 
ATOM      4  C   UNL     1       4.536   3.648  17.533  0.00  0.00    +0.000 A 
ATOM      5  O   UNL     1       3.534   2.978  17.303  0.00  0.00    +0.000 OA
ATOM      6  C   UNL     1       5.422   4.032  16.420  0.00  0.00    +0.000 A 
ATOM      7  C   UNL     1       5.064   3.709  15.103  0.00  0.00    +0.000 A 
ATOM      8  C   UNL     1       5.890   4.082  14.046  0.00  0.00    +0.000 A 
ATOM      9  C   UNL     1       7.081   4.756  14.303  0.00  0.00    +0.000 A 
ATOM     10  C   UNL     1       7.436   5.080  15.617  0.00  0.00    +0.000 A 
ATOM     11  C   UNL     1       6.594   4.731  16.682  0.00  0.00    +0.000 A 
ENDROOT
BRANCH   1  12
ATOM     12  C   UNL     1       8.062   5.960  18.440  0.00  0.00    +0.000 C 
BRANCH  12  14
ATOM     13  O   UNL     1       7.163   7.916  17.327  0.00  0.00    +0.000 OA
ATOM     14  C   UNL     1       7.920   7.427  18.150  0.00  0.00    +0.000 C 
BRANCH  14  15
ATOM     15  O   UNL     1       8.703   8.192  18.950  0.00  0.00    +0.000 OA
ATOM     16  H   UNL     1       8.273   8.496  19.772  0.00  0.00    +0.000 HD
ENDBRANCH  14  15
ENDBRANCH  12  14
ENDBRANCH   1  12
BRANCH   3  17
ATOM     17  C   UNL     1       3.989   3.867  19.918  0.00  0.00    +0.000 C 
BRANCH  17  18
ATOM     18  C   UNL     1       3.049   5.013  20.030  0.00  0.00    +0.000 A 
ATOM     19  N   UNL     1       2.996   6.134  19.347  0.00  0.00    +0.000 NA
ATOM     20  C   UNL     1       1.989   6.831  19.979  0.00  0.00    +0.000 A 
ATOM     21  N   UNL     1       1.375   6.130  20.946  0.00  0.00    +0.000 NA
ATOM     22  O   UNL     1       2.091   4.935  20.999  0.00  0.00    +0.000 OA
BRANCH  20  23
ATOM     23  C   UNL     1       1.670   8.199  19.587  0.00  0.00    +0.000 A 
ATOM     24  C   UNL     1       2.014   8.608  18.283  0.00  0.00    +0.000 A 
ATOM     25  C   UNL     1       1.820   9.926  17.861  0.00  0.00    +0.000 A 
ATOM     26  C   UNL     1       1.275  10.860  18.736  0.00  0.00    +0.000 A 
ATOM     27  C   UNL     1       0.916  10.472  20.026  0.00  0.00    +0.000 A 
ATOM     28  C   UNL     1       1.110   9.151  20.456  0.00  0.00    +0.000 A 
ATOM     29 CL   UNL     1       0.694   8.815  22.103  0.00  0.00    +0.000 Cl
ENDBRANCH  20  23
ENDBRANCH  17  18
ENDBRANCH   3  17
TORSDOF 6
ENDMDL
MODEL 3
REMARK VINA RESULT:      -7.9      4.535      9.214
REMARK  Name = 
REMARK  6 active torsions:
REMARK  status: ('A' for Active; 'I' for Inactive)
REMARK    1  A    between atoms: C_2  and  O_3
REMARK    2  A    between atoms: C_2  and  C_4
REMARK    3  A    between atoms: C_4  and  C_5
REMARK    4  A    between atoms: N_7  and  C_8
REMARK    5  A    between atoms: C_8  and  C_9
REMARK    6  A    between atoms: C_11  and  C_12
REMARK                            x       y       z     vdW  Elec       q    Type
REMARK                         _______ _______ _______ _____ _____    ______ ____
ROOT
ATOM      1  C   UNL     1       6.762   4.895  18.053  0.00  0.00    +0.000 A 
ATOM      2  N   UNL     1       5.931   4.572  18.997  0.00  0.00    +0.000 NA
ATOM      3  N   UNL     1       4.777   3.893  18.674  0.00  0.00    +0.000 N 
ATOM      4  C   UNL     1       4.420   3.522  17.383  0.00  0.00    +0.000 A 
ATOM      5  O   UNL     1       3.407   2.889  17.102  0.00  0.00    +0.000 OA
ATOM      6  C   UNL     1       5.336   3.938  16.306  0.00  0.00    +0.000 A 
ATOM      7  C   UNL     1       4.994   3.691  14.969  0.00  0.00    +0.000 A 
ATOM      8  C   UNL     1       5.849   4.095  13.946  0.00  0.00    +0.000 A 
ATOM      9  C   UNL     1       7.051   4.725  14.257  0.00  0.00    +0.000 A 
ATOM     10  C   UNL     1       7.390   4.974  15.591  0.00  0.00    +0.000 A 
ATOM     11  C   UNL     1       6.520   4.594  16.623  0.00  0.00    +0.000 A 
ENDROOT
BRANCH   1  12
ATOM     12  C   UNL     1       7.984   5.696  18.466  0.00  0.00    +0.000 C 
BRANCH  12  14
ATOM     13  O   UNL     1       7.182   7.696  17.359  0.00  0.00    +0.000 OA
ATOM     14  C   UNL     1       7.912   7.169  18.183  0.00  0.00    +0.000 C 
BRANCH  14  15
ATOM     15  O   UNL     1       8.725   7.894  18.990  0.00  0.00    +0.000 OA
ATOM     16  H   UNL     1       8.865   8.817  18.706  0.00  0.00    +0.000 HD
ENDBRANCH  14  15
ENDBRANCH  12  14
ENDBRANCH   1  12
BRANCH   3  17
ATOM     17  C   UNL     1       3.835   3.635  19.766  0.00  0.00    +0.000 C 
BRANCH  17  18
ATOM     18  C   UNL     1       2.983   4.833  19.982  0.00  0.00    +0.000 A 
ATOM     19  N   UNL     1       2.894   5.944  19.285  0.00  0.00    +0.000 NA
ATOM     20  C   UNL     1       2.025   6.708  20.036  0.00  0.00    +0.000 A 
ATOM     21  N   UNL     1       1.518   6.058  21.096  0.00  0.00    +0.000 NA
ATOM     22  O   UNL     1       2.169   4.825  21.077  0.00  0.00    +0.000 OA
BRANCH  20  23
ATOM     23  C   UNL     1       1.727   8.084  19.660  0.00  0.00    +0.000 A 
ATOM     24  C   UNL     1       0.898   8.837  20.517  0.00  0.00    +0.000 A 
ATOM     25  C   UNL     1       0.496  10.133  20.183  0.00  0.00    +0.000 A 
ATOM     26  C   UNL     1       0.917  10.702  18.987  0.00  0.00    +0.000 A 
ATOM     27  C   UNL     1       1.748   9.979  18.132  0.00  0.00    +0.000 A 
ATOM     28  C   UNL     1       2.154   8.676  18.460  0.00  0.00    +0.000 A 
ATOM     29 CL   UNL     1       3.121   7.859  17.280  0.00  0.00    +0.000 Cl
ENDBRANCH  20  23
ENDBRANCH  17  18
ENDBRANCH   3  17
TORSDOF 6
ENDMDL
MODEL 4
REMARK VINA RESULT:      -7.9      5.041      7.749
REMARK  Name = 
REMARK  6 active torsions:
REMARK  status: ('A' for Active; 'I' for Inactive)
REMARK    1  A    between atoms: C_2  and  O_3
REMARK    2  A    between atoms: C_2  and  C_4
REMARK    3  A    between atoms: C_4  and  C_5
REMARK    4  A    between atoms: N_7  and  C_8
REMARK    5  A    between atoms: C_8  and  C_9
REMARK    6  A    between atoms: C_11  and  C_12
REMARK                            x       y       z     vdW  Elec       q    Type
REMARK                         _______ _______ _______ _____ _____    ______ ____
ROOT
ATOM      1  C   UNL     1       3.193   6.012  19.497  0.00  0.00    +0.000 A 
ATOM      2  N   UNL     1       4.446   6.037  19.160  0.00  0.00    +0.000 NA
ATOM      3  N   UNL     1       5.177   4.870  19.203  0.00  0.00    +0.000 N 
ATOM      4  C   UNL     1       4.666   3.638  19.595  0.00  0.00    +0.000 A 
ATOM      5  O   UNL     1       5.312   2.594  19.602  0.00  0.00    +0.000 OA
ATOM      6  C   UNL     1       3.259   3.622  20.030  0.00  0.00    +0.000 A 
ATOM      7  C   UNL     1       2.701   2.439  20.536  0.00  0.00    +0.000 A 
ATOM      8  C   UNL     1       1.375   2.422  20.963  0.00  0.00    +0.000 A 
ATOM      9  C   UNL     1       0.602   3.575  20.866  0.00  0.00    +0.000 A 
ATOM     10  C   UNL     1       1.160   4.756  20.364  0.00  0.00    +0.000 A 
ATOM     11  C   UNL     1       2.502   4.786  19.959  0.00  0.00    +0.000 A 
ENDROOT
BRANCH   1  12
ATOM     12  C   UNL     1       2.458   7.341  19.487  0.00  0.00    +0.000 C 
BRANCH  12  14
ATOM     13  O   UNL     1       1.352   8.637  17.764  0.00  0.00    +0.000 OA
ATOM     14  C   UNL     1       2.315   7.986  18.138  0.00  0.00    +0.000 C 
BRANCH  14  15
ATOM     15  O   UNL     1       3.412   7.815  17.362  0.00  0.00    +0.000 OA
ATOM     16  H   UNL     1       4.176   8.372  17.606  0.00  0.00    +0.000 HD
ENDBRANCH  14  15
ENDBRANCH  12  14
ENDBRANCH   1  12
BRANCH   3  17
ATOM     17  C   UNL     1       6.606   4.975  18.900  0.00  0.00    +0.000 C 
BRANCH  17  18
ATOM     18  C   UNL     1       6.791   5.201  17.443  0.00  0.00    +0.000 A 
ATOM     19  N   UNL     1       6.291   4.552  16.416  0.00  0.00    +0.000 NA
ATOM     20  C   UNL     1       6.908   5.156  15.341  0.00  0.00    +0.000 A 
ATOM     21  N   UNL     1       7.677   6.203  15.682  0.00  0.00    +0.000 NA
ATOM     22  O   UNL     1       7.621   6.220  17.075  0.00  0.00    +0.000 OA
BRANCH  20  23
ATOM     23  C   UNL     1       6.703   4.657  13.987  0.00  0.00    +0.000 A 
ATOM     24  C   UNL     1       5.617   3.785  13.763  0.00  0.00    +0.000 A 
ATOM     25  C   UNL     1       5.405   3.197  12.513  0.00  0.00    +0.000 A 
ATOM     26  C   UNL     1       6.274   3.471  11.463  0.00  0.00    +0.000 A 
ATOM     27  C   UNL     1       7.346   4.341  11.660  0.00  0.00    +0.000 A 
ATOM     28  C   UNL     1       7.566   4.933  12.913  0.00  0.00    +0.000 A 
ATOM     29 CL   UNL     1       8.972   5.932  13.049  0.00  0.00    +0.000 Cl
ENDBRANCH  20  23
ENDBRANCH  17  18
ENDBRANCH   3  17
TORSDOF 6
ENDMDL
MODEL 5
REMARK VINA RESULT:      -7.9      4.746      9.406
REMARK  Name = 
REMARK  6 active torsions:
REMARK  status: ('A' for Active; 'I' for Inactive)
REMARK    1  A    between atoms: C_2  and  O_3
REMARK    2  A    between atoms: C_2  and  C_4
REMARK    3  A    between atoms: C_4  and  C_5
REMARK    4  A    between atoms: N_7  and  C_8
REMARK    5  A    between atoms: C_8  and  C_9
REMARK    6  A    between atoms: C_11  and  C_12
REMARK                            x       y       z     vdW  Elec       q    Type
REMARK                         _______ _______ _______ _____ _____    ______ ____
ROOT
ATOM      1  C   UNL     1       6.786   4.391  17.955  0.00  0.00    +0.000 A 
ATOM      2  N   UNL     1       6.007   4.067  18.942  0.00  0.00    +0.000 NA
ATOM      3  N   UNL     1       4.728   3.631  18.676  0.00  0.00    +0.000 N 
ATOM      4  C   UNL     1       4.190   3.512  17.400  0.00  0.00    +0.000 A 
ATOM      5  O   UNL     1       3.061   3.093  17.164  0.00  0.00    +0.000 OA
ATOM      6  C   UNL     1       5.054   3.933  16.283  0.00  0.00    +0.000 A 
ATOM      7  C   UNL     1       4.547   3.940  14.976  0.00  0.00    +0.000 A 
ATOM      8  C   UNL     1       5.354   4.351  13.918  0.00  0.00    +0.000 A 
ATOM      9  C   UNL     1       6.671   4.734  14.161  0.00  0.00    +0.000 A 
ATOM     10  C   UNL     1       7.175   4.729  15.465  0.00  0.00    +0.000 A 
ATOM     11  C   UNL     1       6.358   4.343  16.537  0.00  0.00    +0.000 A 
ENDROOT
BRANCH   1  12
ATOM     12  C   UNL     1       8.161   4.922  18.316  0.00  0.00    +0.000 C 
BRANCH  12  14
ATOM     13  O   UNL     1       8.316   7.259  18.938  0.00  0.00    +0.000 OA
ATOM     14  C   UNL     1       8.171   6.091  19.260  0.00  0.00    +0.000 C 
BRANCH  14  15
ATOM     15  O   UNL     1       7.945   5.722  20.545  0.00  0.00    +0.000 OA
ATOM     16  H   UNL     1       7.679   4.790  20.662  0.00  0.00    +0.000 HD
ENDBRANCH  14  15
ENDBRANCH  12  14
ENDBRANCH   1  12
BRANCH   3  17
ATOM     17  C   UNL     1       3.867   3.366  19.830  0.00  0.00    +0.000 C 
BRANCH  17  18
ATOM     18  C   UNL     1       2.891   4.476  19.987  0.00  0.00    +0.000 A 
ATOM     19  N   UNL     1       3.050   5.771  19.832  0.00  0.00    +0.000 NA
ATOM     20  C   UNL     1       1.827   6.278  20.220  0.00  0.00    +0.000 A 
ATOM     21  N   UNL     1       0.918   5.332  20.502  0.00  0.00    +0.000 NA
ATOM     22  O   UNL     1       1.626   4.137  20.373  0.00  0.00    +0.000 OA
BRANCH  20  23
ATOM     23  C   UNL     1       1.608   7.718  20.295  0.00  0.00    +0.000 A 
ATOM     24  C   UNL     1       1.218   8.262  21.536  0.00  0.00    +0.000 A 
ATOM     25  C   UNL     1       0.905   9.617  21.667  0.00  0.00    +0.000 A 
ATOM     26  C   UNL     1       0.978  10.455  20.560  0.00  0.00    +0.000 A 
ATOM     27  C   UNL     1       1.374   9.939  19.327  0.00  0.00    +0.000 A 
ATOM     28  C   UNL     1       1.688   8.579  19.187  0.00  0.00    +0.000 A 
ATOM     29 CL   UNL     1       2.092   8.049  17.590  0.00  0.00    +0.000 Cl
ENDBRANCH  20  23
ENDBRANCH  17  18
ENDBRANCH   3  17
TORSDOF 6
ENDMDL
MODEL 6
REMARK VINA RESULT:      -7.8      3.892      9.208
REMARK  Name = 
REMARK  6 active torsions:
REMARK  status: ('A' for Active; 'I' for Inactive)
REMARK    1  A    between atoms: C_2  and  O_3
REMARK    2  A    between atoms: C_2  and  C_4
REMARK    3  A    between atoms: C_4  and  C_5
REMARK    4  A    between atoms: N_7  and  C_8
REMARK    5  A    between atoms: C_8  and  C_9
REMARK    6  A    between atoms: C_11  and  C_12
REMARK                            x       y       z     vdW  Elec       q    Type
REMARK                         _______ _______ _______ _____ _____    ______ ____
ROOT
ATOM      1  C   UNL     1       6.466   5.525  17.944  0.00  0.00    +0.000 A 
ATOM      2  N   UNL     1       5.515   5.488  18.827  0.00  0.00    +0.000 NA
ATOM      3  N   UNL     1       4.320   4.882  18.505  0.00  0.00    +0.000 N 
ATOM      4  C   UNL     1       4.044   4.298  17.274  0.00  0.00    +0.000 A 
ATOM      5  O   UNL     1       2.990   3.731  17.001  0.00  0.00    +0.000 OA
ATOM      6  C   UNL     1       5.103   4.389  16.254  0.00  0.00    +0.000 A 
ATOM      7  C   UNL     1       4.862   3.915  14.957  0.00  0.00    +0.000 A 
ATOM      8  C   UNL     1       5.854   4.012  13.984  0.00  0.00    +0.000 A 
ATOM      9  C   UNL     1       7.090   4.562  14.309  0.00  0.00    +0.000 A 
ATOM     10  C   UNL     1       7.330   5.038  15.603  0.00  0.00    +0.000 A 
ATOM     11  C   UNL     1       6.325   4.968  16.578  0.00  0.00    +0.000 A 
ENDROOT
BRANCH   1  12
ATOM     12  C   UNL     1       7.735   6.259  18.338  0.00  0.00    +0.000 C 
BRANCH  12  14
ATOM     13  O   UNL     1       8.530   8.543  18.493  0.00  0.00    +0.000 OA
ATOM     14  C   UNL     1       7.749   7.729  18.026  0.00  0.00    +0.000 C 
BRANCH  14  15
ATOM     15  O   UNL     1       6.813   8.074  17.109  0.00  0.00    +0.000 OA
ATOM     16  H   UNL     1       6.092   8.635  17.452  0.00  0.00    +0.000 HD
ENDBRANCH  14  15
ENDBRANCH  12  14
ENDBRANCH   1  12
BRANCH   3  17
ATOM     17  C   UNL     1       3.254   4.951  19.507  0.00  0.00    +0.000 C 
BRANCH  17  18
ATOM     18  C   UNL     1       2.684   6.322  19.534  0.00  0.00    +0.000 A 
ATOM     19  N   UNL     1       2.171   7.006  20.532  0.00  0.00    +0.000 NA
ATOM     20  C   UNL     1       1.720   8.155  19.918  0.00  0.00    +0.000 A 
ATOM     21  N   UNL     1       2.032   8.225  18.614  0.00  0.00    +0.000 NA
ATOM     22  O   UNL     1       2.649   7.002  18.351  0.00  0.00    +0.000 OA
BRANCH  20  23
ATOM     23  C   UNL     1       0.979   9.160  20.670  0.00  0.00    +0.000 A 
ATOM     24  C   UNL     1       0.370   8.764  21.878  0.00  0.00    +0.000 A 
ATOM     25  C   UNL     1      -0.429   9.645  22.612  0.00  0.00    +0.000 A 
ATOM     26  C   UNL     1      -0.632  10.942  22.151  0.00  0.00    +0.000 A 
ATOM     27  C   UNL     1      -0.028  11.357  20.965  0.00  0.00    +0.000 A 
ATOM     28  C   UNL     1       0.773  10.476  20.223  0.00  0.00    +0.000 A 
ATOM     29 CL   UNL     1       1.403  11.090  18.732  0.00  0.00    +0.000 Cl
ENDBRANCH  20  23
ENDBRANCH  17  18
ENDBRANCH   3  17
TORSDOF 6
ENDMDL
MODEL 7
REMARK VINA RESULT:      -7.8      1.467      1.809
REMARK  Name = 
REMARK  6 active torsions:
REMARK  status: ('A' for Active; 'I' for Inactive)
REMARK    1  A    between atoms: C_2  and  O_3
REMARK    2  A    between atoms: C_2  and  C_4
REMARK    3  A    between atoms: C_4  and  C_5
REMARK    4  A    between atoms: N_7  and  C_8
REMARK    5  A    between atoms: C_8  and  C_9
REMARK    6  A    between atoms: C_11  and  C_12
REMARK                            x       y       z     vdW  Elec       q    Type
REMARK                         _______ _______ _______ _____ _____    ______ ____
ROOT
ATOM      1  C   UNL     1      -1.746  10.588  18.240  0.00  0.00    +0.000 A 
ATOM      2  N   UNL     1      -0.589  10.113  17.891  0.00  0.00    +0.000 NA
ATOM      3  N   UNL     1       0.541  10.544  18.549  0.00  0.00    +0.000 N 
ATOM      4  C   UNL     1       0.542  11.477  19.580  0.00  0.00    +0.000 A 
ATOM      5  O   UNL     1       1.547  11.835  20.185  0.00  0.00    +0.000 OA
ATOM      6  C   UNL     1      -0.764  12.058  19.937  0.00  0.00    +0.000 A 
ATOM      7  C   UNL     1      -0.832  13.078  20.895  0.00  0.00    +0.000 A 
ATOM      8  C   UNL     1      -2.062  13.642  21.227  0.00  0.00    +0.000 A 
ATOM      9  C   UNL     1      -3.224  13.174  20.619  0.00  0.00    +0.000 A 
ATOM     10  C   UNL     1      -3.155  12.156  19.660  0.00  0.00    +0.000 A 
ATOM     11  C   UNL     1      -1.916  11.605  19.303  0.00  0.00    +0.000 A 
ENDROOT
BRANCH   1  12
ATOM     12  C   UNL     1      -2.947  10.120  17.436  0.00  0.00    +0.000 C 
BRANCH  12  14
ATOM     13  O   UNL     1      -2.748  10.587  15.067  0.00  0.00    +0.000 OA
ATOM     14  C   UNL     1      -3.201  10.876  16.163  0.00  0.00    +0.000 C 
BRANCH  14  15
ATOM     15  O   UNL     1      -4.050  11.918  16.337  0.00  0.00    +0.000 OA
ATOM     16  H   UNL     1      -3.665  12.794  16.146  0.00  0.00    +0.000 HD
ENDBRANCH  14  15
ENDBRANCH  12  14
ENDBRANCH   1  12
BRANCH   3  17
ATOM     17  C   UNL     1       1.825  10.042  18.053  0.00  0.00    +0.000 C 
BRANCH  17  18
ATOM     18  C   UNL     1       2.047   8.661  18.555  0.00  0.00    +0.000 A 
ATOM     19  N   UNL     1       2.459   7.587  17.920  0.00  0.00    +0.000 NA
ATOM     20  C   UNL     1       2.359   6.605  18.883  0.00  0.00    +0.000 A 
ATOM     21  N   UNL     1       2.001   7.071  20.090  0.00  0.00    +0.000 NA
ATOM     22  O   UNL     1       1.770   8.428  19.871  0.00  0.00    +0.000 OA
BRANCH  20  23
ATOM     23  C   UNL     1       2.632   5.210  18.556  0.00  0.00    +0.000 A 
ATOM     24  C   UNL     1       3.543   4.943  17.514  0.00  0.00    +0.000 A 
ATOM     25  C   UNL     1       3.791   3.637  17.085  0.00  0.00    +0.000 A 
ATOM     26  C   UNL     1       3.134   2.572  17.691  0.00  0.00    +0.000 A 
ATOM     27  C   UNL     1       2.238   2.814  18.732  0.00  0.00    +0.000 A 
ATOM     28  C   UNL     1       1.983   4.124  19.167  0.00  0.00    +0.000 A 
ATOM     29 CL   UNL     1       0.795   4.296  20.414  0.00  0.00    +0.000 Cl
ENDBRANCH  20  23
ENDBRANCH  17  18
ENDBRANCH   3  17
TORSDOF 6
ENDMDL
MODEL 8
REMARK VINA RESULT:      -7.8      3.769      9.272
REMARK  Name = 
REMARK  6 active torsions:
REMARK  status: ('A' for Active; 'I' for Inactive)
REMARK    1  A    between atoms: C_2  and  O_3
REMARK    2  A    between atoms: C_2  and  C_4
REMARK    3  A    between atoms: C_4  and  C_5
REMARK    4  A    between atoms: N_7  and  C_8
REMARK    5  A    between atoms: C_8  and  C_9
REMARK    6  A    between atoms: C_11  and  C_12
REMARK                            x       y       z     vdW  Elec       q    Type
REMARK                         _______ _______ _______ _____ _____    ______ ____
ROOT
ATOM      1  C   UNL     1       6.356   5.620  18.196  0.00  0.00    +0.000 A 
ATOM      2  N   UNL     1       5.363   5.743  19.024  0.00  0.00    +0.000 NA
ATOM      3  N   UNL     1       4.122   5.269  18.661  0.00  0.00    +0.000 N 
ATOM      4  C   UNL     1       3.840   4.659  17.443  0.00  0.00    +0.000 A 
ATOM      5  O   UNL     1       2.741   4.209  17.136  0.00  0.00    +0.000 OA
ATOM      6  C   UNL     1       4.954   4.571  16.482  0.00  0.00    +0.000 A 
ATOM      7  C   UNL     1       4.724   4.063  15.196  0.00  0.00    +0.000 A 
ATOM      8  C   UNL     1       5.769   3.990  14.279  0.00  0.00    +0.000 A 
ATOM      9  C   UNL     1       7.045   4.405  14.650  0.00  0.00    +0.000 A 
ATOM     10  C   UNL     1       7.274   4.914  15.933  0.00  0.00    +0.000 A 
ATOM     11  C   UNL     1       6.218   5.015  16.851  0.00  0.00    +0.000 A 
ENDROOT
BRANCH   1  12
ATOM     12  C   UNL     1       7.683   6.217  18.629  0.00  0.00    +0.000 C 
BRANCH  12  14
ATOM     13  O   UNL     1       7.418   8.152  17.196  0.00  0.00    +0.000 OA
ATOM     14  C   UNL     1       7.937   7.623  18.166  0.00  0.00    +0.000 C 
BRANCH  14  15
ATOM     15  O   UNL     1       8.789   8.293  18.979  0.00  0.00    +0.000 OA
ATOM     16  H   UNL     1       9.289   7.729  19.599  0.00  0.00    +0.000 HD
ENDBRANCH  14  15
ENDBRANCH  12  14
ENDBRANCH   1  12
BRANCH   3  17
ATOM     17  C   UNL     1       3.022   5.515  19.595  0.00  0.00    +0.000 C 
BRANCH  17  18
ATOM     18  C   UNL     1       2.481   6.882  19.378  0.00  0.00    +0.000 A 
ATOM     19  N   UNL     1       1.979   7.740  20.237  0.00  0.00    +0.000 NA
ATOM     20  C   UNL     1       1.554   8.772  19.428  0.00  0.00    +0.000 A 
ATOM     21  N   UNL     1       1.872   8.607  18.134  0.00  0.00    +0.000 NA
ATOM     22  O   UNL     1       2.464   7.344  18.094  0.00  0.00    +0.000 OA
BRANCH  20  23
ATOM     23  C   UNL     1       0.832   9.909  19.987  0.00  0.00    +0.000 A 
ATOM     24  C   UNL     1       1.135  11.193  19.487  0.00  0.00    +0.000 A 
ATOM     25  C   UNL     1       0.550  12.339  20.031  0.00  0.00    +0.000 A 
ATOM     26  C   UNL     1      -0.351  12.224  21.084  0.00  0.00    +0.000 A 
ATOM     27  C   UNL     1      -0.673  10.962  21.583  0.00  0.00    +0.000 A 
ATOM     28  C   UNL     1      -0.088   9.807  21.043  0.00  0.00    +0.000 A 
ATOM     29 CL   UNL     1      -0.513   8.311  21.801  0.00  0.00    +0.000 Cl
ENDBRANCH  20  23
ENDBRANCH  17  18
ENDBRANCH   3  17
TORSDOF 6
ENDMDL
MODEL 9
REMARK VINA RESULT:      -7.6      1.359      1.523
REMARK  Name = 
REMARK  6 active torsions:
REMARK  status: ('A' for Active; 'I' for Inactive)
REMARK    1  A    between atoms: C_2  and  O_3
REMARK    2  A    between atoms: C_2  and  C_4
REMARK    3  A    between atoms: C_4  and  C_5
REMARK    4  A    between atoms: N_7  and  C_8
REMARK    5  A    between atoms: C_8  and  C_9
REMARK    6  A    between atoms: C_11  and  C_12
REMARK                            x       y       z     vdW  Elec       q    Type
REMARK                         _______ _______ _______ _____ _____    ______ ____
ROOT
ATOM      1  C   UNL     1      -2.651  10.565  17.770  0.00  0.00    +0.000 A 
ATOM      2  N   UNL     1      -1.363  10.502  17.919  0.00  0.00    +0.000 NA
ATOM      3  N   UNL     1      -0.765  11.229  18.925  0.00  0.00    +0.000 N 
ATOM      4  C   UNL     1      -1.451  12.051  19.812  0.00  0.00    +0.000 A 
ATOM      5  O   UNL     1      -0.920  12.673  20.726  0.00  0.00    +0.000 OA
ATOM      6  C   UNL     1      -2.906  12.166  19.607  0.00  0.00    +0.000 A 
ATOM      7  C   UNL     1      -3.651  13.055  20.394  0.00  0.00    +0.000 A 
ATOM      8  C   UNL     1      -5.024  13.178  20.195  0.00  0.00    +0.000 A 
ATOM      9  C   UNL     1      -5.655  12.403  19.227  0.00  0.00    +0.000 A 
ATOM     10  C   UNL     1      -4.911  11.519  18.439  0.00  0.00    +0.000 A 
ATOM     11  C   UNL     1      -3.524  11.411  18.617  0.00  0.00    +0.000 A 
ENDROOT
BRANCH   1  12
ATOM     12  C   UNL     1      -3.242   9.789  16.606  0.00  0.00    +0.000 C 
BRANCH  12  14
ATOM     13  O   UNL     1      -3.675  10.072  14.239  0.00  0.00    +0.000 OA
ATOM     14  C   UNL     1      -3.164  10.475  15.272  0.00  0.00    +0.000 C 
BRANCH  14  15
ATOM     15  O   UNL     1      -2.490  11.649  15.330  0.00  0.00    +0.000 OA
ATOM     16  H   UNL     1      -1.663  11.620  15.846  0.00  0.00    +0.000 HD
ENDBRANCH  14  15
ENDBRANCH  12  14
ENDBRANCH   1  12
BRANCH   3  17
ATOM     17  C   UNL     1       0.697  11.190  18.988  0.00  0.00    +0.000 C 
BRANCH  17  18
ATOM     18  C   UNL     1       1.136   9.897  19.573  0.00  0.00    +0.000 A 
ATOM     19  N   UNL     1       1.636   8.830  18.990  0.00  0.00    +0.000 NA
ATOM     20  C   UNL     1       1.739   7.931  20.030  0.00  0.00    +0.000 A 
ATOM     21  N   UNL     1       1.415   8.452  21.225  0.00  0.00    +0.000 NA
ATOM     22  O   UNL     1       0.992   9.746  20.922  0.00  0.00    +0.000 OA
BRANCH  20  23
ATOM     23  C   UNL     1       2.167   6.559  19.789  0.00  0.00    +0.000 A 
ATOM     24  C   UNL     1       1.735   5.565  20.691  0.00  0.00    +0.000 A 
ATOM     25  C   UNL     1       2.171   4.243  20.578  0.00  0.00    +0.000 A 
ATOM     26  C   UNL     1       3.048   3.888  19.559  0.00  0.00    +0.000 A 
ATOM     27  C   UNL     1       3.477   4.853  18.649  0.00  0.00    +0.000 A 
ATOM     28  C   UNL     1       3.044   6.183  18.758  0.00  0.00    +0.000 A 
ATOM     29 CL   UNL     1       3.708   7.298  17.613  0.00  0.00    +0.000 Cl
ENDBRANCH  20  23
ENDBRANCH  17  18
ENDBRANCH   3  17
TORSDOF 6
ENDMDL
