MODEL 1
REMARK VINA RESULT:      -6.9      0.000      0.000
REMARK  Name = 
REMARK  1 active torsions:
REMARK  status: ('A' for Active; 'I' for Inactive)
REMARK    1  A    between atoms: N_8  and  C_9
REMARK                            x       y       z     vdW  Elec       q    Type
REMARK                         _______ _______ _______ _____ _____    ______ ____
ROOT
ATOM      1  O   UNL     1       7.842   5.256  20.305  0.00  0.00    +0.000 OA
ATOM      2  C   UNL     1       7.431   5.783  19.276  0.00  0.00    +0.000 C 
ATOM      3  C   UNL     1       8.064   7.011  18.671  0.00  0.00    +0.000 C 
ATOM      4  S   UNL     1       7.228   7.279  17.091  0.00  0.00    +0.000 S 
ATOM      5  C   UNL     1       6.165   5.923  17.328  0.00  0.00    +0.000 C 
ATOM      6  N   UNL     1       5.314   5.590  16.434  0.00  0.00    +0.000 NA
ATOM      7  C   UNL     1       4.484   4.445  16.785  0.00  0.00    +0.000 C 
ATOM      8  N   UNL     1       4.396   4.172  18.206  0.00  0.00    +0.000 N 
ATOM      9  C   UNL     1       5.671   4.134  18.883  0.00  0.00    +0.000 C 
ATOM     10  N   UNL     1       6.382   5.323  18.523  0.00  0.00    +0.000 N 
ENDROOT
BRANCH   8  11
ATOM     11  C   UNL     1       3.198   4.050  18.879  0.00  0.00    +0.000 A 
ATOM     12  C   UNL     1       2.931   4.773  20.053  0.00  0.00    +0.000 A 
ATOM     13  C   UNL     1       1.720   4.639  20.746  0.00  0.00    +0.000 A 
ATOM     14  C   UNL     1       0.738   3.775  20.275  0.00  0.00    +0.000 A 
ATOM     15  C   UNL     1       0.967   3.054  19.111  0.00  0.00    +0.000 A 
ATOM     16  C   UNL     1       2.179   3.196  18.427  0.00  0.00    +0.000 A 
ENDBRANCH   8  11
TORSDOF 1
ENDMDL
MODEL 2
REMARK VINA RESULT:      -6.9      2.756      5.502
REMARK  Name = 
REMARK  1 active torsions:
REMARK  status: ('A' for Active; 'I' for Inactive)
REMARK    1  A    between atoms: N_8  and  C_9
REMARK                            x       y       z     vdW  Elec       q    Type
REMARK                         _______ _______ _______ _____ _____    ______ ____
ROOT
ATOM      1  O   UNL     1       1.371   5.660  20.712  0.00  0.00    +0.000 OA
ATOM      2  C   UNL     1       1.695   4.625  20.139  0.00  0.00    +0.000 C 
ATOM      3  C   UNL     1       1.138   3.272  20.509  0.00  0.00    +0.000 C 
ATOM      4  S   UNL     1       1.770   2.115  19.271  0.00  0.00    +0.000 S 
ATOM      5  C   UNL     1       2.682   3.353  18.458  0.00  0.00    +0.000 C 
ATOM      6  N   UNL     1       3.351   3.091  17.401  0.00  0.00    +0.000 NA
ATOM      7  C   UNL     1       4.076   4.226  16.846  0.00  0.00    +0.000 C 
ATOM      8  N   UNL     1       4.328   5.303  17.783  0.00  0.00    +0.000 N 
ATOM      9  C   UNL     1       3.167   5.724  18.529  0.00  0.00    +0.000 C 
ATOM     10  N   UNL     1       2.563   4.550  19.081  0.00  0.00    +0.000 N 
ENDROOT
BRANCH   8  11
ATOM     11  C   UNL     1       5.585   5.822  18.017  0.00  0.00    +0.000 A 
ATOM     12  C   UNL     1       6.413   5.327  19.037  0.00  0.00    +0.000 A 
ATOM     13  C   UNL     1       7.684   5.863  19.285  0.00  0.00    +0.000 A 
ATOM     14  C   UNL     1       8.163   6.912  18.509  0.00  0.00    +0.000 A 
ATOM     15  C   UNL     1       7.373   7.417  17.485  0.00  0.00    +0.000 A 
ATOM     16  C   UNL     1       6.106   6.874  17.245  0.00  0.00    +0.000 A 
ENDBRANCH   8  11
TORSDOF 1
ENDMDL
MODEL 3
REMARK VINA RESULT:      -6.9      0.040      1.197
REMARK  Name = 
REMARK  1 active torsions:
REMARK  status: ('A' for Active; 'I' for Inactive)
REMARK    1  A    between atoms: N_8  and  C_9
REMARK                            x       y       z     vdW  Elec       q    Type
REMARK                         _______ _______ _______ _____ _____    ______ ____
ROOT
ATOM      1  O   UNL     1       7.873   5.229  20.316  0.00  0.00    +0.000 OA
ATOM      2  C   UNL     1       7.458   5.765  19.293  0.00  0.00    +0.000 C 
ATOM      3  C   UNL     1       8.094   6.996  18.695  0.00  0.00    +0.000 C 
ATOM      4  S   UNL     1       7.252   7.280  17.121  0.00  0.00    +0.000 S 
ATOM      5  C   UNL     1       6.184   5.926  17.352  0.00  0.00    +0.000 C 
ATOM      6  N   UNL     1       5.327   5.603  16.460  0.00  0.00    +0.000 NA
ATOM      7  C   UNL     1       4.495   4.459  16.806  0.00  0.00    +0.000 C 
ATOM      8  N   UNL     1       4.413   4.175  18.226  0.00  0.00    +0.000 N 
ATOM      9  C   UNL     1       5.690   4.127  18.896  0.00  0.00    +0.000 C 
ATOM     10  N   UNL     1       6.404   5.316  18.541  0.00  0.00    +0.000 N 
ENDROOT
BRANCH   8  11
ATOM     11  C   UNL     1       3.217   4.053  18.903  0.00  0.00    +0.000 A 
ATOM     12  C   UNL     1       2.210   3.173  18.475  0.00  0.00    +0.000 A 
ATOM     13  C   UNL     1       0.989   3.059  19.154  0.00  0.00    +0.000 A 
ATOM     14  C   UNL     1       0.747   3.824  20.289  0.00  0.00    +0.000 A 
ATOM     15  C   UNL     1       1.727   4.695  20.745  0.00  0.00    +0.000 A 
ATOM     16  C   UNL     1       2.943   4.801  20.060  0.00  0.00    +0.000 A 
ENDBRANCH   8  11
TORSDOF 1
ENDMDL
MODEL 4
REMARK VINA RESULT:      -6.9      2.772      5.527
REMARK  Name = 
REMARK  1 active torsions:
REMARK  status: ('A' for Active; 'I' for Inactive)
REMARK    1  A    between atoms: N_8  and  C_9
REMARK                            x       y       z     vdW  Elec       q    Type
REMARK                         _______ _______ _______ _____ _____    ______ ____
ROOT
ATOM      1  O   UNL     1       1.328   5.776  20.709  0.00  0.00    +0.000 OA
ATOM      2  C   UNL     1       1.656   4.720  20.177  0.00  0.00    +0.000 C 
ATOM      3  C   UNL     1       1.099   3.381  20.595  0.00  0.00    +0.000 C 
ATOM      4  S   UNL     1       1.738   2.179  19.405  0.00  0.00    +0.000 S 
ATOM      5  C   UNL     1       2.652   3.387  18.549  0.00  0.00    +0.000 C 
ATOM      6  N   UNL     1       3.327   3.086  17.506  0.00  0.00    +0.000 NA
ATOM      7  C   UNL     1       4.052   4.200  16.912  0.00  0.00    +0.000 C 
ATOM      8  N   UNL     1       4.299   5.312  17.809  0.00  0.00    +0.000 N 
ATOM      9  C   UNL     1       3.134   5.760  18.533  0.00  0.00    +0.000 C 
ATOM     10  N   UNL     1       2.529   4.606  19.126  0.00  0.00    +0.000 N 
ENDROOT
BRANCH   8  11
ATOM     11  C   UNL     1       5.554   5.841  18.028  0.00  0.00    +0.000 A 
ATOM     12  C   UNL     1       6.053   6.906  17.261  0.00  0.00    +0.000 A 
ATOM     13  C   UNL     1       7.334   7.435  17.473  0.00  0.00    +0.000 A 
ATOM     14  C   UNL     1       8.151   6.910  18.467  0.00  0.00    +0.000 A 
ATOM     15  C   UNL     1       7.683   5.863  19.250  0.00  0.00    +0.000 A 
ATOM     16  C   UNL     1       6.402   5.343  19.031  0.00  0.00    +0.000 A 
ENDBRANCH   8  11
TORSDOF 1
ENDMDL
MODEL 5
REMARK VINA RESULT:      -6.8      2.766      3.214
REMARK  Name = 
REMARK  1 active torsions:
REMARK  status: ('A' for Active; 'I' for Inactive)
REMARK    1  A    between atoms: N_8  and  C_9
REMARK                            x       y       z     vdW  Elec       q    Type
REMARK                         _______ _______ _______ _____ _____    ______ ____
ROOT
ATOM      1  O   UNL     1       7.171   5.464  19.915  0.00  0.00    +0.000 OA
ATOM      2  C   UNL     1       6.701   5.174  18.819  0.00  0.00    +0.000 C 
ATOM      3  C   UNL     1       7.551   4.750  17.646  0.00  0.00    +0.000 C 
ATOM      4  S   UNL     1       6.399   4.256  16.344  0.00  0.00    +0.000 S 
ATOM      5  C   UNL     1       5.007   4.650  17.311  0.00  0.00    +0.000 C 
ATOM      6  N   UNL     1       3.823   4.451  16.873  0.00  0.00    +0.000 NA
ATOM      7  C   UNL     1       2.763   4.848  17.790  0.00  0.00    +0.000 C 
ATOM      8  N   UNL     1       3.160   5.812  18.797  0.00  0.00    +0.000 N 
ATOM      9  C   UNL     1       4.374   5.470  19.499  0.00  0.00    +0.000 C 
ATOM     10  N   UNL     1       5.364   5.157  18.516  0.00  0.00    +0.000 N 
ENDROOT
BRANCH   8  11
ATOM     11  C   UNL     1       2.495   7.002  19.007  0.00  0.00    +0.000 A 
ATOM     12  C   UNL     1       1.962   7.341  20.261  0.00  0.00    +0.000 A 
ATOM     13  C   UNL     1       1.272   8.543  20.472  0.00  0.00    +0.000 A 
ATOM     14  C   UNL     1       1.102   9.443  19.427  0.00  0.00    +0.000 A 
ATOM     15  C   UNL     1       1.627   9.143  18.178  0.00  0.00    +0.000 A 
ATOM     16  C   UNL     1       2.314   7.941  17.978  0.00  0.00    +0.000 A 
ENDBRANCH   8  11
TORSDOF 1
ENDMDL
MODEL 6
REMARK VINA RESULT:      -6.8      2.752      3.298
REMARK  Name = 
REMARK  1 active torsions:
REMARK  status: ('A' for Active; 'I' for Inactive)
REMARK    1  A    between atoms: N_8  and  C_9
REMARK                            x       y       z     vdW  Elec       q    Type
REMARK                         _______ _______ _______ _____ _____    ______ ____
ROOT
ATOM      1  O   UNL     1       7.179   5.457  19.887  0.00  0.00    +0.000 OA
ATOM      2  C   UNL     1       6.705   5.164  18.794  0.00  0.00    +0.000 C 
ATOM      3  C   UNL     1       7.551   4.744  17.617  0.00  0.00    +0.000 C 
ATOM      4  S   UNL     1       6.394   4.244  16.321  0.00  0.00    +0.000 S 
ATOM      5  C   UNL     1       5.005   4.631  17.295  0.00  0.00    +0.000 C 
ATOM      6  N   UNL     1       3.820   4.426  16.863  0.00  0.00    +0.000 NA
ATOM      7  C   UNL     1       2.763   4.817  17.785  0.00  0.00    +0.000 C 
ATOM      8  N   UNL     1       3.161   5.784  18.790  0.00  0.00    +0.000 N 
ATOM      9  C   UNL     1       4.379   5.448  19.486  0.00  0.00    +0.000 C 
ATOM     10  N   UNL     1       5.367   5.140  18.497  0.00  0.00    +0.000 N 
ENDROOT
BRANCH   8  11
ATOM     11  C   UNL     1       2.490   6.971  19.003  0.00  0.00    +0.000 A 
ATOM     12  C   UNL     1       2.298   7.908  17.975  0.00  0.00    +0.000 A 
ATOM     13  C   UNL     1       1.631   9.121  18.194  0.00  0.00    +0.000 A 
ATOM     14  C   UNL     1       1.131   9.425  19.454  0.00  0.00    +0.000 A 
ATOM     15  C   UNL     1       1.294   8.515  20.490  0.00  0.00    +0.000 A 
ATOM     16  C   UNL     1       1.961   7.306  20.260  0.00  0.00    +0.000 A 
ENDBRANCH   8  11
TORSDOF 1
ENDMDL
MODEL 7
REMARK VINA RESULT:      -6.8      1.364      1.742
REMARK  Name = 
REMARK  1 active torsions:
REMARK  status: ('A' for Active; 'I' for Inactive)
REMARK    1  A    between atoms: N_8  and  C_9
REMARK                            x       y       z     vdW  Elec       q    Type
REMARK                         _______ _______ _______ _____ _____    ______ ____
ROOT
ATOM      1  O   UNL     1       8.219   5.090  19.791  0.00  0.00    +0.000 OA
ATOM      2  C   UNL     1       7.823   5.909  18.967  0.00  0.00    +0.000 C 
ATOM      3  C   UNL     1       8.333   7.328  18.908  0.00  0.00    +0.000 C 
ATOM      4  S   UNL     1       7.596   8.064  17.431  0.00  0.00    +0.000 S 
ATOM      5  C   UNL     1       6.707   6.617  17.051  0.00  0.00    +0.000 C 
ATOM      6  N   UNL     1       5.982   6.546  16.001  0.00  0.00    +0.000 NA
ATOM      7  C   UNL     1       5.287   5.278  15.829  0.00  0.00    +0.000 C 
ATOM      8  N   UNL     1       5.125   4.504  17.045  0.00  0.00    +0.000 N 
ATOM      9  C   UNL     1       6.336   4.350  17.815  0.00  0.00    +0.000 C 
ATOM     10  N   UNL     1       6.908   5.651  17.980  0.00  0.00    +0.000 N 
ENDROOT
BRANCH   8  11
ATOM     11  C   UNL     1       3.904   4.034  17.483  0.00  0.00    +0.000 A 
ATOM     12  C   UNL     1       3.675   2.666  17.705  0.00  0.00    +0.000 A 
ATOM     13  C   UNL     1       2.431   2.185  18.136  0.00  0.00    +0.000 A 
ATOM     14  C   UNL     1       1.381   3.067  18.361  0.00  0.00    +0.000 A 
ATOM     15  C   UNL     1       1.579   4.427  18.162  0.00  0.00    +0.000 A 
ATOM     16  C   UNL     1       2.825   4.897  17.732  0.00  0.00    +0.000 A 
ENDBRANCH   8  11
TORSDOF 1
ENDMDL
MODEL 8
REMARK VINA RESULT:      -6.7      1.369      1.534
REMARK  Name = 
REMARK  1 active torsions:
REMARK  status: ('A' for Active; 'I' for Inactive)
REMARK    1  A    between atoms: N_8  and  C_9
REMARK                            x       y       z     vdW  Elec       q    Type
REMARK                         _______ _______ _______ _____ _____    ______ ____
ROOT
ATOM      1  O   UNL     1       8.240   5.066  19.730  0.00  0.00    +0.000 OA
ATOM      2  C   UNL     1       7.831   5.903  18.931  0.00  0.00    +0.000 C 
ATOM      3  C   UNL     1       8.335   7.324  18.899  0.00  0.00    +0.000 C 
ATOM      4  S   UNL     1       7.577   8.092  17.448  0.00  0.00    +0.000 S 
ATOM      5  C   UNL     1       6.689   6.651  17.046  0.00  0.00    +0.000 C 
ATOM      6  N   UNL     1       5.950   6.603  16.004  0.00  0.00    +0.000 NA
ATOM      7  C   UNL     1       5.258   5.336  15.811  0.00  0.00    +0.000 C 
ATOM      8  N   UNL     1       5.113   4.534  17.010  0.00  0.00    +0.000 N 
ATOM      9  C   UNL     1       6.334   4.366  17.762  0.00  0.00    +0.000 C 
ATOM     10  N   UNL     1       6.904   5.665  17.949  0.00  0.00    +0.000 N 
ENDROOT
BRANCH   8  11
ATOM     11  C   UNL     1       3.900   4.048  17.453  0.00  0.00    +0.000 A 
ATOM     12  C   UNL     1       2.815   4.899  17.719  0.00  0.00    +0.000 A 
ATOM     13  C   UNL     1       1.587   4.408  18.183  0.00  0.00    +0.000 A 
ATOM     14  C   UNL     1       1.412   3.045  18.389  0.00  0.00    +0.000 A 
ATOM     15  C   UNL     1       2.462   2.176  18.124  0.00  0.00    +0.000 A 
ATOM     16  C   UNL     1       3.684   2.676  17.660  0.00  0.00    +0.000 A 
ENDBRANCH   8  11
TORSDOF 1
ENDMDL
MODEL 9
REMARK VINA RESULT:      -6.7      0.912      1.030
REMARK  Name = 
REMARK  1 active torsions:
REMARK  status: ('A' for Active; 'I' for Inactive)
REMARK    1  A    between atoms: N_8  and  C_9
REMARK                            x       y       z     vdW  Elec       q    Type
REMARK                         _______ _______ _______ _____ _____    ______ ____
ROOT
ATOM      1  O   UNL     1       8.132   5.125  19.955  0.00  0.00    +0.000 OA
ATOM      2  C   UNL     1       7.498   5.723  19.090  0.00  0.00    +0.000 C 
ATOM      3  C   UNL     1       7.953   7.033  18.497  0.00  0.00    +0.000 C 
ATOM      4  S   UNL     1       6.799   7.403  17.155  0.00  0.00    +0.000 S 
ATOM      5  C   UNL     1       5.852   5.977  17.464  0.00  0.00    +0.000 C 
ATOM      6  N   UNL     1       4.845   5.683  16.734  0.00  0.00    +0.000 NA
ATOM      7  C   UNL     1       4.144   4.470  17.128  0.00  0.00    +0.000 C 
ATOM      8  N   UNL     1       4.362   4.061  18.502  0.00  0.00    +0.000 N 
ATOM      9  C   UNL     1       5.749   4.028  18.898  0.00  0.00    +0.000 C 
ATOM     10  N   UNL     1       6.331   5.281  18.523  0.00  0.00    +0.000 N 
ENDROOT
BRANCH   8  11
ATOM     11  C   UNL     1       3.334   3.815  19.389  0.00  0.00    +0.000 A 
ATOM     12  C   UNL     1       3.456   2.870  20.420  0.00  0.00    +0.000 A 
ATOM     13  C   UNL     1       2.407   2.608  21.313  0.00  0.00    +0.000 A 
ATOM     14  C   UNL     1       1.204   3.294  21.197  0.00  0.00    +0.000 A 
ATOM     15  C   UNL     1       1.055   4.243  20.194  0.00  0.00    +0.000 A 
ATOM     16  C   UNL     1       2.109   4.498  19.309  0.00  0.00    +0.000 A 
ENDBRANCH   8  11
TORSDOF 1
ENDMDL
