MODEL 1
REMARK VINA RESULT:      -9.0      0.000      0.000
REMARK  Name = 
REMARK  5 active torsions:
REMARK  status: ('A' for Active; 'I' for Inactive)
REMARK    1  A    between atoms: N_3  and  N_4
REMARK    2  A    between atoms: C_5  and  C_6
REMARK    3  A    between atoms: N_13  and  C_14
REMARK    4  A    between atoms: C_17  and  O_18
REMARK    5  A    between atoms: O_18  and  C_19
REMARK                            x       y       z     vdW  Elec       q    Type
REMARK                         _______ _______ _______ _____ _____    ______ ____
ROOT
ATOM      1  C   UNL     1       1.864   7.057  20.352  0.00  0.00    +0.000 A 
ATOM      2  C   UNL     1       2.353   7.662  19.192  0.00  0.00    +0.000 A 
ATOM      3  C   UNL     1       2.936   6.897  18.176  0.00  0.00    +0.000 A 
ATOM      4  C   UNL     1       3.041   5.516  18.312  0.00  0.00    +0.000 A 
ATOM      5  C   UNL     1       2.487   4.893  19.430  0.00  0.00    +0.000 A 
ATOM      6  C   UNL     1       1.925   5.661  20.456  0.00  0.00    +0.000 A 
ENDROOT
BRANCH   1  10
ATOM      7  O   UNL     1       0.759   9.793  20.445  0.00  0.00    +0.000 OA
ATOM      8  C   UNL     1       0.843   9.073  21.436  0.00  0.00    +0.000 C 
ATOM      9  N   UNL     1       0.447   9.485  22.709  0.00  0.00    +0.000 N 
ATOM     10  N   UNL     1       1.321   7.771  21.445  0.00  0.00    +0.000 N 
ATOM     11  H   UNL     1       0.707   8.948  23.524  0.00  0.00    +0.000 HD
ATOM     12  H   UNL     1       1.245   7.269  22.314  0.00  0.00    +0.000 HD
BRANCH   9  13
ATOM     13  N   UNL     1       0.001  10.764  22.874  0.00  0.00    +0.000 NA
ATOM     14  C   UNL     1      -1.275  10.921  23.006  0.00  0.00    +0.000 C 
BRANCH  14  15
ATOM     15  C   UNL     1      -1.861  12.260  23.228  0.00  0.00    +0.000 A 
ATOM     16  C   UNL     1      -1.071  13.414  23.132  0.00  0.00    +0.000 A 
ATOM     17  C   UNL     1      -1.640  14.667  23.368  0.00  0.00    +0.000 A 
ATOM     18  C   UNL     1      -2.989  14.756  23.695  0.00  0.00    +0.000 A 
ATOM     19  F   UNL     1      -3.533  15.957  23.927  0.00  0.00    +0.000 F 
ATOM     20  C   UNL     1      -3.782  13.616  23.786  0.00  0.00    +0.000 A 
ATOM     21  C   UNL     1      -3.218  12.360  23.552  0.00  0.00    +0.000 A 
ENDBRANCH  14  15
ENDBRANCH   9  13
ENDBRANCH   1  10
BRANCH   4  22
ATOM     22  O   UNL     1       3.656   4.841  17.282  0.00  0.00    +0.000 OA
BRANCH  22  23
ATOM     23  C   UNL     1       5.034   4.793  17.233  0.00  0.00    +0.000 A 
ATOM     24  C   UNL     1       5.864   4.934  18.353  0.00  0.00    +0.000 A 
ATOM     25  C   UNL     1       7.240   4.837  18.193  0.00  0.00    +0.000 A 
ATOM     26  N   UNL     1       7.888   4.662  17.022  0.00  0.00    +0.000 NA
ATOM     27  C   UNL     1       7.054   4.602  15.969  0.00  0.00    +0.000 A 
ATOM     28  N   UNL     1       7.464   4.470  14.671  0.00  0.00    +0.000 N 
ATOM     29  C   UNL     1       6.374   4.445  13.839  0.00  0.00    +0.000 A 
ATOM     30  C   UNL     1       5.244   4.561  14.623  0.00  0.00    +0.000 A 
ATOM     31  C   UNL     1       5.665   4.661  15.981  0.00  0.00    +0.000 A 
ATOM     32  H   UNL     1       8.433   4.408  14.397  0.00  0.00    +0.000 HD
ENDBRANCH  22  23
ENDBRANCH   4  22
TORSDOF 5
ENDMDL
MODEL 2
REMARK VINA RESULT:      -8.8      0.719      1.828
REMARK  Name = 
REMARK  5 active torsions:
REMARK  status: ('A' for Active; 'I' for Inactive)
REMARK    1  A    between atoms: N_3  and  N_4
REMARK    2  A    between atoms: C_5  and  C_6
REMARK    3  A    between atoms: N_13  and  C_14
REMARK    4  A    between atoms: C_17  and  O_18
REMARK    5  A    between atoms: O_18  and  C_19
REMARK                            x       y       z     vdW  Elec       q    Type
REMARK                         _______ _______ _______ _____ _____    ______ ____
ROOT
ATOM      1  C   UNL     1       2.056   6.704  20.224  0.00  0.00    +0.000 A 
ATOM      2  C   UNL     1       2.449   7.180  18.971  0.00  0.00    +0.000 A 
ATOM      3  C   UNL     1       2.987   6.315  18.012  0.00  0.00    +0.000 A 
ATOM      4  C   UNL     1       3.145   4.963  18.298  0.00  0.00    +0.000 A 
ATOM      5  C   UNL     1       2.684   4.461  19.516  0.00  0.00    +0.000 A 
ATOM      6  C   UNL     1       2.167   5.331  20.483  0.00  0.00    +0.000 A 
ENDROOT
BRANCH   1  10
ATOM      7  O   UNL     1       0.743   9.343  20.065  0.00  0.00    +0.000 OA
ATOM      8  C   UNL     1       0.981   8.779  21.129  0.00  0.00    +0.000 C 
ATOM      9  N   UNL     1       0.677   9.340  22.370  0.00  0.00    +0.000 N 
ATOM     10  N   UNL     1       1.563   7.527  21.262  0.00  0.00    +0.000 N 
ATOM     11  H   UNL     1       1.058   8.944  23.217  0.00  0.00    +0.000 HD
ATOM     12  H   UNL     1       1.614   7.151  22.194  0.00  0.00    +0.000 HD
BRANCH   9  13
ATOM     13  N   UNL     1       0.144  10.596  22.407  0.00  0.00    +0.000 NA
ATOM     14  C   UNL     1      -1.002  10.723  22.990  0.00  0.00    +0.000 C 
BRANCH  14  15
ATOM     15  C   UNL     1      -1.651  12.046  23.120  0.00  0.00    +0.000 A 
ATOM     16  C   UNL     1      -0.934  13.224  22.871  0.00  0.00    +0.000 A 
ATOM     17  C   UNL     1      -1.560  14.463  23.022  0.00  0.00    +0.000 A 
ATOM     18  C   UNL     1      -2.892  14.513  23.417  0.00  0.00    +0.000 A 
ATOM     19  F   UNL     1      -3.491  15.701  23.568  0.00  0.00    +0.000 F 
ATOM     20  C   UNL     1      -3.614  13.348  23.659  0.00  0.00    +0.000 A 
ATOM     21  C   UNL     1      -2.992  12.105  23.512  0.00  0.00    +0.000 A 
ENDBRANCH  14  15
ENDBRANCH   9  13
ENDBRANCH   1  10
BRANCH   4  22
ATOM     22  O   UNL     1       3.711   4.186  17.313  0.00  0.00    +0.000 OA
BRANCH  22  23
ATOM     23  C   UNL     1       4.903   4.583  16.743  0.00  0.00    +0.000 A 
ATOM     24  C   UNL     1       5.168   4.540  15.368  0.00  0.00    +0.000 A 
ATOM     25  C   UNL     1       6.393   4.995  14.899  0.00  0.00    +0.000 A 
ATOM     26  N   UNL     1       7.411   5.446  15.661  0.00  0.00    +0.000 NA
ATOM     27  C   UNL     1       7.136   5.403  16.977  0.00  0.00    +0.000 A 
ATOM     28  N   UNL     1       8.017   5.767  17.958  0.00  0.00    +0.000 N 
ATOM     29  C   UNL     1       7.435   5.603  19.189  0.00  0.00    +0.000 A 
ATOM     30  C   UNL     1       6.155   5.127  18.989  0.00  0.00    +0.000 A 
ATOM     31  C   UNL     1       5.953   4.997  17.585  0.00  0.00    +0.000 A 
ATOM     32  H   UNL     1       8.952   6.097  17.772  0.00  0.00    +0.000 HD
ENDBRANCH  22  23
ENDBRANCH   4  22
TORSDOF 5
ENDMDL
MODEL 3
REMARK VINA RESULT:      -8.7      1.601      1.897
REMARK  Name = 
REMARK  5 active torsions:
REMARK  status: ('A' for Active; 'I' for Inactive)
REMARK    1  A    between atoms: N_3  and  N_4
REMARK    2  A    between atoms: C_5  and  C_6
REMARK    3  A    between atoms: N_13  and  C_14
REMARK    4  A    between atoms: C_17  and  O_18
REMARK    5  A    between atoms: O_18  and  C_19
REMARK                            x       y       z     vdW  Elec       q    Type
REMARK                         _______ _______ _______ _____ _____    ______ ____
ROOT
ATOM      1  C   UNL     1       1.748   8.484  19.554  0.00  0.00    +0.000 A 
ATOM      2  C   UNL     1       2.281   8.437  18.264  0.00  0.00    +0.000 A 
ATOM      3  C   UNL     1       2.885   7.271  17.780  0.00  0.00    +0.000 A 
ATOM      4  C   UNL     1       2.968   6.139  18.585  0.00  0.00    +0.000 A 
ATOM      5  C   UNL     1       2.370   6.149  19.846  0.00  0.00    +0.000 A 
ATOM      6  C   UNL     1       1.787   7.322  20.337  0.00  0.00    +0.000 A 
ENDROOT
BRANCH   1  10
ATOM      7  O   UNL     1      -0.541   8.732  21.403  0.00  0.00    +0.000 OA
ATOM      8  C   UNL     1       0.079   9.701  20.973  0.00  0.00    +0.000 C 
ATOM      9  N   UNL     1      -0.252  11.017  21.296  0.00  0.00    +0.000 N 
ATOM     10  N   UNL     1       1.180   9.642  20.132  0.00  0.00    +0.000 N 
ATOM     11  H   UNL     1       0.147  11.786  20.779  0.00  0.00    +0.000 HD
ATOM     12  H   UNL     1       1.643  10.513  19.934  0.00  0.00    +0.000 HD
BRANCH   9  13
ATOM     13  N   UNL     1      -1.349  11.244  22.078  0.00  0.00    +0.000 NA
ATOM     14  C   UNL     1      -2.173  12.152  21.672  0.00  0.00    +0.000 C 
BRANCH  14  15
ATOM     15  C   UNL     1      -3.411  12.451  22.424  0.00  0.00    +0.000 A 
ATOM     16  C   UNL     1      -4.565  12.890  21.761  0.00  0.00    +0.000 A 
ATOM     17  C   UNL     1      -5.715  13.189  22.493  0.00  0.00    +0.000 A 
ATOM     18  C   UNL     1      -5.704  13.044  23.876  0.00  0.00    +0.000 A 
ATOM     19  F   UNL     1      -6.805  13.337  24.579  0.00  0.00    +0.000 F 
ATOM     20  C   UNL     1      -4.565  12.602  24.542  0.00  0.00    +0.000 A 
ATOM     21  C   UNL     1      -3.410  12.303  23.815  0.00  0.00    +0.000 A 
ENDBRANCH  14  15
ENDBRANCH   9  13
ENDBRANCH   1  10
BRANCH   4  22
ATOM     22  O   UNL     1       3.606   5.045  18.046  0.00  0.00    +0.000 OA
BRANCH  22  23
ATOM     23  C   UNL     1       4.982   5.045  17.948  0.00  0.00    +0.000 A 
ATOM     24  C   UNL     1       5.844   5.296  19.024  0.00  0.00    +0.000 A 
ATOM     25  C   UNL     1       7.216   5.239  18.819  0.00  0.00    +0.000 A 
ATOM     26  N   UNL     1       7.829   5.006  17.639  0.00  0.00    +0.000 NA
ATOM     27  C   UNL     1       6.962   4.842  16.625  0.00  0.00    +0.000 A 
ATOM     28  N   UNL     1       7.331   4.634  15.325  0.00  0.00    +0.000 N 
ATOM     29  C   UNL     1       6.214   4.510  14.538  0.00  0.00    +0.000 A 
ATOM     30  C   UNL     1       5.109   4.638  15.355  0.00  0.00    +0.000 A 
ATOM     31  C   UNL     1       5.573   4.849  16.686  0.00  0.00    +0.000 A 
ATOM     32  H   UNL     1       8.292   4.589  15.019  0.00  0.00    +0.000 HD
ENDBRANCH  22  23
ENDBRANCH   4  22
TORSDOF 5
ENDMDL
MODEL 4
REMARK VINA RESULT:      -8.7      0.773      1.169
REMARK  Name = 
REMARK  5 active torsions:
REMARK  status: ('A' for Active; 'I' for Inactive)
REMARK    1  A    between atoms: N_3  and  N_4
REMARK    2  A    between atoms: C_5  and  C_6
REMARK    3  A    between atoms: N_13  and  C_14
REMARK    4  A    between atoms: C_17  and  O_18
REMARK    5  A    between atoms: O_18  and  C_19
REMARK                            x       y       z     vdW  Elec       q    Type
REMARK                         _______ _______ _______ _____ _____    ______ ____
ROOT
ATOM      1  C   UNL     1       1.714   7.497  20.276  0.00  0.00    +0.000 A 
ATOM      2  C   UNL     1       2.251   7.947  19.067  0.00  0.00    +0.000 A 
ATOM      3  C   UNL     1       2.853   7.055  18.174  0.00  0.00    +0.000 A 
ATOM      4  C   UNL     1       2.929   5.700  18.481  0.00  0.00    +0.000 A 
ATOM      5  C   UNL     1       2.327   5.227  19.648  0.00  0.00    +0.000 A 
ATOM      6  C   UNL     1       1.746   6.124  20.552  0.00  0.00    +0.000 A 
ENDROOT
BRANCH   1  10
ATOM      7  O   UNL     1      -0.287   9.645  19.965  0.00  0.00    +0.000 OA
ATOM      8  C   UNL     1       0.231   9.366  21.043  0.00  0.00    +0.000 C 
ATOM      9  N   UNL     1      -0.056  10.052  22.223  0.00  0.00    +0.000 N 
ATOM     10  N   UNL     1       1.149   8.347  21.253  0.00  0.00    +0.000 N 
ATOM     11  H   UNL     1       0.523   9.928  23.041  0.00  0.00    +0.000 HD
ATOM     12  H   UNL     1       1.419   8.175  22.207  0.00  0.00    +0.000 HD
BRANCH   9  13
ATOM     13  N   UNL     1      -0.907  11.118  22.170  0.00  0.00    +0.000 NA
ATOM     14  C   UNL     1      -1.683  11.293  23.189  0.00  0.00    +0.000 C 
BRANCH  14  15
ATOM     15  C   UNL     1      -2.616  12.438  23.250  0.00  0.00    +0.000 A 
ATOM     16  C   UNL     1      -3.789  12.369  24.014  0.00  0.00    +0.000 A 
ATOM     17  C   UNL     1      -4.667  13.454  24.040  0.00  0.00    +0.000 A 
ATOM     18  C   UNL     1      -4.366  14.595  23.306  0.00  0.00    +0.000 A 
ATOM     19  F   UNL     1      -5.211  15.634  23.325  0.00  0.00    +0.000 F 
ATOM     20  C   UNL     1      -3.200  14.676  22.549  0.00  0.00    +0.000 A 
ATOM     21  C   UNL     1      -2.319  13.593  22.518  0.00  0.00    +0.000 A 
ENDBRANCH  14  15
ENDBRANCH   9  13
ENDBRANCH   1  10
BRANCH   4  22
ATOM     22  O   UNL     1       3.564   4.894  17.564  0.00  0.00    +0.000 OA
BRANCH  22  23
ATOM     23  C   UNL     1       4.943   4.861  17.535  0.00  0.00    +0.000 A 
ATOM     24  C   UNL     1       5.756   5.020  18.665  0.00  0.00    +0.000 A 
ATOM     25  C   UNL     1       7.134   4.936  18.526  0.00  0.00    +0.000 A 
ATOM     26  N   UNL     1       7.801   4.759  17.365  0.00  0.00    +0.000 NA
ATOM     27  C   UNL     1       6.982   4.682  16.300  0.00  0.00    +0.000 A 
ATOM     28  N   UNL     1       7.412   4.544  15.010  0.00  0.00    +0.000 N 
ATOM     29  C   UNL     1       6.334   4.501  14.163  0.00  0.00    +0.000 A 
ATOM     30  C   UNL     1       5.193   4.611  14.930  0.00  0.00    +0.000 A 
ATOM     31  C   UNL     1       5.593   4.726  16.293  0.00  0.00    +0.000 A 
ATOM     32  H   UNL     1       8.386   4.491  14.750  0.00  0.00    +0.000 HD
ENDBRANCH  22  23
ENDBRANCH   4  22
TORSDOF 5
ENDMDL
MODEL 5
REMARK VINA RESULT:      -8.7      4.213     11.549
REMARK  Name = 
REMARK  5 active torsions:
REMARK  status: ('A' for Active; 'I' for Inactive)
REMARK    1  A    between atoms: N_3  and  N_4
REMARK    2  A    between atoms: C_5  and  C_6
REMARK    3  A    between atoms: N_13  and  C_14
REMARK    4  A    between atoms: C_17  and  O_18
REMARK    5  A    between atoms: O_18  and  C_19
REMARK                            x       y       z     vdW  Elec       q    Type
REMARK                         _______ _______ _______ _____ _____    ______ ____
ROOT
ATOM      1  C   UNL     1       0.683   9.462  21.856  0.00  0.00    +0.000 A 
ATOM      2  C   UNL     1       0.885  10.666  21.176  0.00  0.00    +0.000 A 
ATOM      3  C   UNL     1       0.121  11.797  21.480  0.00  0.00    +0.000 A 
ATOM      4  C   UNL     1      -0.858  11.737  22.467  0.00  0.00    +0.000 A 
ATOM      5  C   UNL     1      -1.016  10.564  23.206  0.00  0.00    +0.000 A 
ATOM      6  C   UNL     1      -0.267   9.426  22.885  0.00  0.00    +0.000 A 
ENDROOT
BRANCH   1  10
ATOM      7  O   UNL     1       1.635   8.436  19.256  0.00  0.00    +0.000 OA
ATOM      8  C   UNL     1       1.768   7.816  20.308  0.00  0.00    +0.000 C 
ATOM      9  N   UNL     1       2.360   6.555  20.375  0.00  0.00    +0.000 N 
ATOM     10  N   UNL     1       1.372   8.263  21.560  0.00  0.00    +0.000 N 
ATOM     11  H   UNL     1       2.279   5.996  21.212  0.00  0.00    +0.000 HD
ATOM     12  H   UNL     1       1.627   7.688  22.345  0.00  0.00    +0.000 HD
BRANCH   9  13
ATOM     13  N   UNL     1       2.758   5.956  19.215  0.00  0.00    +0.000 NA
ATOM     14  C   UNL     1       3.922   6.284  18.762  0.00  0.00    +0.000 C 
BRANCH  14  15
ATOM     15  C   UNL     1       4.466   5.667  17.533  0.00  0.00    +0.000 A 
ATOM     16  C   UNL     1       4.973   6.460  16.495  0.00  0.00    +0.000 A 
ATOM     17  C   UNL     1       5.460   5.858  15.334  0.00  0.00    +0.000 A 
ATOM     18  C   UNL     1       5.437   4.472  15.221  0.00  0.00    +0.000 A 
ATOM     19  F   UNL     1       5.898   3.894  14.104  0.00  0.00    +0.000 F 
ATOM     20  C   UNL     1       4.941   3.676  16.249  0.00  0.00    +0.000 A 
ATOM     21  C   UNL     1       4.451   4.273  17.413  0.00  0.00    +0.000 A 
ENDBRANCH  14  15
ENDBRANCH   9  13
ENDBRANCH   1  10
BRANCH   4  22
ATOM     22  O   UNL     1      -1.587  12.885  22.684  0.00  0.00    +0.000 OA
BRANCH  22  23
ATOM     23  C   UNL     1      -2.957  12.800  22.817  0.00  0.00    +0.000 A 
ATOM     24  C   UNL     1      -3.624  12.741  24.048  0.00  0.00    +0.000 A 
ATOM     25  C   UNL     1      -5.011  12.689  24.066  0.00  0.00    +0.000 A 
ATOM     26  N   UNL     1      -5.812  12.640  22.981  0.00  0.00    +0.000 NA
ATOM     27  C   UNL     1      -5.125  12.627  21.825  0.00  0.00    +0.000 A 
ATOM     28  N   UNL     1      -5.703  12.539  20.589  0.00  0.00    +0.000 N 
ATOM     29  C   UNL     1      -4.732  12.546  19.620  0.00  0.00    +0.000 A 
ATOM     30  C   UNL     1      -3.510  12.644  20.252  0.00  0.00    +0.000 A 
ATOM     31  C   UNL     1      -3.747  12.698  21.656  0.00  0.00    +0.000 A 
ATOM     32  H   UNL     1      -6.699  12.473  20.443  0.00  0.00    +0.000 HD
ENDBRANCH  22  23
ENDBRANCH   4  22
TORSDOF 5
ENDMDL
MODEL 6
REMARK VINA RESULT:      -8.5      0.148      1.275
REMARK  Name = 
REMARK  5 active torsions:
REMARK  status: ('A' for Active; 'I' for Inactive)
REMARK    1  A    between atoms: N_3  and  N_4
REMARK    2  A    between atoms: C_5  and  C_6
REMARK    3  A    between atoms: N_13  and  C_14
REMARK    4  A    between atoms: C_17  and  O_18
REMARK    5  A    between atoms: O_18  and  C_19
REMARK                            x       y       z     vdW  Elec       q    Type
REMARK                         _______ _______ _______ _____ _____    ______ ____
ROOT
ATOM      1  C   UNL     1       1.895   6.990  20.444  0.00  0.00    +0.000 A 
ATOM      2  C   UNL     1       2.126   5.613  20.496  0.00  0.00    +0.000 A 
ATOM      3  C   UNL     1       2.734   4.948  19.425  0.00  0.00    +0.000 A 
ATOM      4  C   UNL     1       3.113   5.652  18.287  0.00  0.00    +0.000 A 
ATOM      5  C   UNL     1       2.958   7.039  18.255  0.00  0.00    +0.000 A 
ATOM      6  C   UNL     1       2.330   7.699  19.317  0.00  0.00    +0.000 A 
ENDROOT
BRANCH   1  10
ATOM      7  O   UNL     1       0.891   9.766  20.414  0.00  0.00    +0.000 OA
ATOM      8  C   UNL     1       0.808   9.036  21.398  0.00  0.00    +0.000 C 
ATOM      9  N   UNL     1       0.254   9.455  22.608  0.00  0.00    +0.000 N 
ATOM     10  N   UNL     1       1.231   7.717  21.458  0.00  0.00    +0.000 N 
ATOM     11  H   UNL     1       0.376   8.904  23.444  0.00  0.00    +0.000 HD
ATOM     12  H   UNL     1       1.016   7.213  22.302  0.00  0.00    +0.000 HD
BRANCH   9  13
ATOM     13  N   UNL     1      -0.163  10.750  22.724  0.00  0.00    +0.000 NA
ATOM     14  C   UNL     1      -1.388  10.934  23.095  0.00  0.00    +0.000 C 
BRANCH  14  15
ATOM     15  C   UNL     1      -1.930  12.296  23.288  0.00  0.00    +0.000 A 
ATOM     16  C   UNL     1      -3.283  12.492  23.599  0.00  0.00    +0.000 A 
ATOM     17  C   UNL     1      -3.779  13.787  23.754  0.00  0.00    +0.000 A 
ATOM     18  C   UNL     1      -2.923  14.872  23.598  0.00  0.00    +0.000 A 
ATOM     19  F   UNL     1      -3.400  16.115  23.740  0.00  0.00    +0.000 F 
ATOM     20  C   UNL     1      -1.577  14.686  23.295  0.00  0.00    +0.000 A 
ATOM     21  C   UNL     1      -1.075  13.392  23.137  0.00  0.00    +0.000 A 
ENDBRANCH  14  15
ENDBRANCH   9  13
ENDBRANCH   1  10
BRANCH   4  22
ATOM     22  O   UNL     1       3.675   4.919  17.266  0.00  0.00    +0.000 OA
BRANCH  22  23
ATOM     23  C   UNL     1       5.048   4.805  17.194  0.00  0.00    +0.000 A 
ATOM     24  C   UNL     1       5.900   4.863  18.304  0.00  0.00    +0.000 A 
ATOM     25  C   UNL     1       7.267   4.705  18.119  0.00  0.00    +0.000 A 
ATOM     26  N   UNL     1       7.888   4.541  16.932  0.00  0.00    +0.000 NA
ATOM     27  C   UNL     1       7.037   4.563  15.890  0.00  0.00    +0.000 A 
ATOM     28  N   UNL     1       7.422   4.459  14.582  0.00  0.00    +0.000 N 
ATOM     29  C   UNL     1       6.320   4.519  13.768  0.00  0.00    +0.000 A 
ATOM     30  C   UNL     1       5.209   4.661  14.574  0.00  0.00    +0.000 A 
ATOM     31  C   UNL     1       5.653   4.689  15.928  0.00  0.00    +0.000 A 
ATOM     32  H   UNL     1       8.382   4.360  14.290  0.00  0.00    +0.000 HD
ENDBRANCH  22  23
ENDBRANCH   4  22
TORSDOF 5
ENDMDL
MODEL 7
REMARK VINA RESULT:      -8.5      1.410      1.948
REMARK  Name = 
REMARK  5 active torsions:
REMARK  status: ('A' for Active; 'I' for Inactive)
REMARK    1  A    between atoms: N_3  and  N_4
REMARK    2  A    between atoms: C_5  and  C_6
REMARK    3  A    between atoms: N_13  and  C_14
REMARK    4  A    between atoms: C_17  and  O_18
REMARK    5  A    between atoms: O_18  and  C_19
REMARK                            x       y       z     vdW  Elec       q    Type
REMARK                         _______ _______ _______ _____ _____    ______ ____
ROOT
ATOM      1  C   UNL     1       1.687   8.525  19.172  0.00  0.00    +0.000 A 
ATOM      2  C   UNL     1       1.714   7.519  20.143  0.00  0.00    +0.000 A 
ATOM      3  C   UNL     1       2.463   6.354  19.946  0.00  0.00    +0.000 A 
ATOM      4  C   UNL     1       3.190   6.178  18.773  0.00  0.00    +0.000 A 
ATOM      5  C   UNL     1       3.233   7.207  17.832  0.00  0.00    +0.000 A 
ATOM      6  C   UNL     1       2.466   8.362  18.019  0.00  0.00    +0.000 A 
ENDROOT
BRANCH   1  10
ATOM      7  O   UNL     1       1.320  10.343  21.469  0.00  0.00    +0.000 OA
ATOM      8  C   UNL     1       0.745  10.499  20.395  0.00  0.00    +0.000 C 
ATOM      9  N   UNL     1      -0.157  11.538  20.161  0.00  0.00    +0.000 N 
ATOM     10  N   UNL     1       0.906   9.698  19.274  0.00  0.00    +0.000 N 
ATOM     11  H   UNL     1      -0.751  11.525  19.346  0.00  0.00    +0.000 HD
ATOM     12  H   UNL     1       0.440  10.000  18.435  0.00  0.00    +0.000 HD
BRANCH   9  13
ATOM     13  N   UNL     1      -0.460  12.385  21.188  0.00  0.00    +0.000 NA
ATOM     14  C   UNL     1      -1.623  12.243  21.733  0.00  0.00    +0.000 C 
BRANCH  14  15
ATOM     15  C   UNL     1      -2.039  13.083  22.876  0.00  0.00    +0.000 A 
ATOM     16  C   UNL     1      -3.314  12.947  23.441  0.00  0.00    +0.000 A 
ATOM     17  C   UNL     1      -3.694  13.767  24.505  0.00  0.00    +0.000 A 
ATOM     18  C   UNL     1      -2.799  14.711  24.996  0.00  0.00    +0.000 A 
ATOM     19  F   UNL     1      -3.165  15.502  26.012  0.00  0.00    +0.000 F 
ATOM     20  C   UNL     1      -1.527  14.848  24.445  0.00  0.00    +0.000 A 
ATOM     21  C   UNL     1      -1.142  14.032  23.379  0.00  0.00    +0.000 A 
ENDBRANCH  14  15
ENDBRANCH   9  13
ENDBRANCH   1  10
BRANCH   4  22
ATOM     22  O   UNL     1       3.873   4.990  18.644  0.00  0.00    +0.000 OA
BRANCH  22  23
ATOM     23  C   UNL     1       5.228   5.016  18.384  0.00  0.00    +0.000 A 
ATOM     24  C   UNL     1       6.199   5.405  19.317  0.00  0.00    +0.000 A 
ATOM     25  C   UNL     1       7.539   5.362  18.958  0.00  0.00    +0.000 A 
ATOM     26  N   UNL     1       8.020   5.017  17.745  0.00  0.00    +0.000 NA
ATOM     27  C   UNL     1       7.049   4.719  16.864  0.00  0.00    +0.000 A 
ATOM     28  N   UNL     1       7.273   4.379  15.558  0.00  0.00    +0.000 N 
ATOM     29  C   UNL     1       6.079   4.141  14.928  0.00  0.00    +0.000 A 
ATOM     30  C   UNL     1       5.072   4.329  15.852  0.00  0.00    +0.000 A 
ATOM     31  C   UNL     1       5.677   4.697  17.088  0.00  0.00    +0.000 A 
ATOM     32  H   UNL     1       8.193   4.327  15.147  0.00  0.00    +0.000 HD
ENDBRANCH  22  23
ENDBRANCH   4  22
TORSDOF 5
ENDMDL
MODEL 8
REMARK VINA RESULT:      -8.5      4.517     11.872
REMARK  Name = 
REMARK  5 active torsions:
REMARK  status: ('A' for Active; 'I' for Inactive)
REMARK    1  A    between atoms: N_3  and  N_4
REMARK    2  A    between atoms: C_5  and  C_6
REMARK    3  A    between atoms: N_13  and  C_14
REMARK    4  A    between atoms: C_17  and  O_18
REMARK    5  A    between atoms: O_18  and  C_19
REMARK                            x       y       z     vdW  Elec       q    Type
REMARK                         _______ _______ _______ _____ _____    ______ ____
ROOT
ATOM      1  C   UNL     1      -0.617  11.128  22.074  0.00  0.00    +0.000 A 
ATOM      2  C   UNL     1      -0.857  12.154  21.157  0.00  0.00    +0.000 A 
ATOM      3  C   UNL     1      -1.938  13.027  21.324  0.00  0.00    +0.000 A 
ATOM      4  C   UNL     1      -2.796  12.880  22.410  0.00  0.00    +0.000 A 
ATOM      5  C   UNL     1      -2.521  11.910  23.374  0.00  0.00    +0.000 A 
ATOM      6  C   UNL     1      -1.453  11.023  23.194  0.00  0.00    +0.000 A 
ENDROOT
BRANCH   1  10
ATOM      7  O   UNL     1      -0.182   9.126  19.949  0.00  0.00    +0.000 OA
ATOM      8  C   UNL     1       0.551   9.231  20.928  0.00  0.00    +0.000 C 
ATOM      9  N   UNL     1       1.649   8.398  21.146  0.00  0.00    +0.000 N 
ATOM     10  N   UNL     1       0.415  10.173  21.937  0.00  0.00    +0.000 N 
ATOM     11  H   UNL     1       2.109   8.383  22.044  0.00  0.00    +0.000 HD
ATOM     12  H   UNL     1       1.144  10.199  22.630  0.00  0.00    +0.000 HD
BRANCH   9  13
ATOM     13  N   UNL     1       1.887   7.384  20.263  0.00  0.00    +0.000 NA
ATOM     14  C   UNL     1       1.623   6.187  20.670  0.00  0.00    +0.000 C 
BRANCH  14  15
ATOM     15  C   UNL     1       1.809   5.019  19.782  0.00  0.00    +0.000 A 
ATOM     16  C   UNL     1       1.073   3.843  19.979  0.00  0.00    +0.000 A 
ATOM     17  C   UNL     1       1.282   2.745  19.142  0.00  0.00    +0.000 A 
ATOM     18  C   UNL     1       2.218   2.832  18.119  0.00  0.00    +0.000 A 
ATOM     19  F   UNL     1       2.422   1.777  17.320  0.00  0.00    +0.000 F 
ATOM     20  C   UNL     1       2.949   3.999  17.911  0.00  0.00    +0.000 A 
ATOM     21  C   UNL     1       2.746   5.100  18.746  0.00  0.00    +0.000 A 
ENDBRANCH  14  15
ENDBRANCH   9  13
ENDBRANCH   1  10
BRANCH   4  22
ATOM     22  O   UNL     1      -3.852  13.759  22.484  0.00  0.00    +0.000 OA
BRANCH  22  23
ATOM     23  C   UNL     1      -5.132  13.265  22.631  0.00  0.00    +0.000 A 
ATOM     24  C   UNL     1      -5.834  13.253  23.843  0.00  0.00    +0.000 A 
ATOM     25  C   UNL     1      -7.132  12.761  23.870  0.00  0.00    +0.000 A 
ATOM     26  N   UNL     1      -7.796  12.229  22.822  0.00  0.00    +0.000 NA
ATOM     27  C   UNL     1      -7.057  12.198  21.698  0.00  0.00    +0.000 A 
ATOM     28  N   UNL     1      -7.486  11.671  20.512  0.00  0.00    +0.000 N 
ATOM     29  C   UNL     1      -6.499  11.789  19.566  0.00  0.00    +0.000 A 
ATOM     30  C   UNL     1      -5.419  12.407  20.163  0.00  0.00    +0.000 A 
ATOM     31  C   UNL     1      -5.763  12.673  21.520  0.00  0.00    +0.000 A 
ATOM     32  H   UNL     1      -8.398  11.258  20.383  0.00  0.00    +0.000 HD
ENDBRANCH  22  23
ENDBRANCH   4  22
TORSDOF 5
ENDMDL
MODEL 9
REMARK VINA RESULT:      -8.4      1.778      2.187
REMARK  Name = 
REMARK  5 active torsions:
REMARK  status: ('A' for Active; 'I' for Inactive)
REMARK    1  A    between atoms: N_3  and  N_4
REMARK    2  A    between atoms: C_5  and  C_6
REMARK    3  A    between atoms: N_13  and  C_14
REMARK    4  A    between atoms: C_17  and  O_18
REMARK    5  A    between atoms: O_18  and  C_19
REMARK                            x       y       z     vdW  Elec       q    Type
REMARK                         _______ _______ _______ _____ _____    ______ ____
ROOT
ATOM      1  C   UNL     1       1.817   8.810  19.019  0.00  0.00    +0.000 A 
ATOM      2  C   UNL     1       1.866   7.788  19.971  0.00  0.00    +0.000 A 
ATOM      3  C   UNL     1       2.521   6.583  19.695  0.00  0.00    +0.000 A 
ATOM      4  C   UNL     1       3.131   6.384  18.460  0.00  0.00    +0.000 A 
ATOM      5  C   UNL     1       3.156   7.426  17.532  0.00  0.00    +0.000 A 
ATOM      6  C   UNL     1       2.481   8.622  17.800  0.00  0.00    +0.000 A 
ENDROOT
BRANCH   1  10
ATOM      7  O   UNL     1      -0.674   9.341  20.512  0.00  0.00    +0.000 OA
ATOM      8  C   UNL     1      -0.069  10.211  19.892  0.00  0.00    +0.000 C 
ATOM      9  N   UNL     1      -0.511  11.532  19.812  0.00  0.00    +0.000 N 
ATOM     10  N   UNL     1       1.121  10.027  19.204  0.00  0.00    +0.000 N 
ATOM     11  H   UNL     1      -0.102  12.168  19.144  0.00  0.00    +0.000 HD
ATOM     12  H   UNL     1       1.551  10.851  18.819  0.00  0.00    +0.000 HD
BRANCH   9  13
ATOM     13  N   UNL     1      -1.699  11.862  20.399  0.00  0.00    +0.000 NA
ATOM     14  C   UNL     1      -1.639  12.365  21.588  0.00  0.00    +0.000 C 
BRANCH  14  15
ATOM     15  C   UNL     1      -2.863  12.791  22.299  0.00  0.00    +0.000 A 
ATOM     16  C   UNL     1      -3.176  12.274  23.564  0.00  0.00    +0.000 A 
ATOM     17  C   UNL     1      -4.349  12.673  24.207  0.00  0.00    +0.000 A 
ATOM     18  C   UNL     1      -5.196  13.583  23.584  0.00  0.00    +0.000 A 
ATOM     19  F   UNL     1      -6.324  13.960  24.198  0.00  0.00    +0.000 F 
ATOM     20  C   UNL     1      -4.891  14.106  22.331  0.00  0.00    +0.000 A 
ATOM     21  C   UNL     1      -3.719  13.709  21.681  0.00  0.00    +0.000 A 
ENDBRANCH  14  15
ENDBRANCH   9  13
ENDBRANCH   1  10
BRANCH   4  22
ATOM     22  O   UNL     1       3.727   5.160  18.257  0.00  0.00    +0.000 OA
BRANCH  22  23
ATOM     23  C   UNL     1       5.103   5.077  18.218  0.00  0.00    +0.000 A 
ATOM     24  C   UNL     1       5.937   5.348  19.311  0.00  0.00    +0.000 A 
ATOM     25  C   UNL     1       7.310   5.201  19.169  0.00  0.00    +0.000 A 
ATOM     26  N   UNL     1       7.953   4.858  18.032  0.00  0.00    +0.000 NA
ATOM     27  C   UNL     1       7.118   4.677  16.994  0.00  0.00    +0.000 A 
ATOM     28  N   UNL     1       7.524   4.364  15.727  0.00  0.00    +0.000 N 
ATOM     29  C   UNL     1       6.433   4.253  14.903  0.00  0.00    +0.000 A 
ATOM     30  C   UNL     1       5.307   4.496  15.663  0.00  0.00    +0.000 A 
ATOM     31  C   UNL     1       5.730   4.766  16.996  0.00  0.00    +0.000 A 
ATOM     32  H   UNL     1       8.491   4.246  15.465  0.00  0.00    +0.000 HD
ENDBRANCH  22  23
ENDBRANCH   4  22
TORSDOF 5
ENDMDL
