MODEL 1
REMARK VINA RESULT:      -8.1      0.000      0.000
REMARK  Name = 
REMARK  6 active torsions:
REMARK  status: ('A' for Active; 'I' for Inactive)
REMARK    1  A    between atoms: C_1  and  C_2
REMARK    2  A    between atoms: C_4  and  C_5
REMARK    3  A    between atoms: C_7  and  N_8
REMARK    4  A    between atoms: C_9  and  C_10
REMARK    5  A    between atoms: N_12  and  C_13
REMARK    6  A    between atoms: C_13  and  C_14
REMARK                            x       y       z     vdW  Elec       q    Type
REMARK                         _______ _______ _______ _____ _____    ______ ____
ROOT
ATOM      1  C   UNL     1      -2.096  13.768  21.535  0.00  0.00    +0.000 C 
ATOM      2  C   UNL     1      -1.300  12.508  21.369  0.00  0.00    +0.000 A 
ATOM      3  C   UNL     1      -1.077  11.654  22.460  0.00  0.00    +0.000 A 
ATOM      4  C   UNL     1      -0.314  10.477  22.316  0.00  0.00    +0.000 A 
ATOM      5  C   UNL     1      -0.132   9.635  23.548  0.00  0.00    +0.000 C 
ATOM      6  C   UNL     1       0.231  10.176  21.027  0.00  0.00    +0.000 A 
ATOM      7  C   UNL     1       1.052   9.085  20.566  0.00  0.00    +0.000 A 
ATOM      8  C   UNL     1       1.363   9.173  19.176  0.00  0.00    +0.000 A 
ATOM      9  S   UNL     1       0.641  10.572  18.565  0.00  0.00    +0.000 S 
ATOM     10  C   UNL     1      -0.049  11.066  19.993  0.00  0.00    +0.000 A 
ATOM     11  N   UNL     1      -0.783  12.192  20.153  0.00  0.00    +0.000 NA
ENDROOT
BRANCH   8  12
ATOM     12  C   UNL     1       2.176   8.253  18.305  0.00  0.00    +0.000 C 
ATOM     13  O   UNL     1       2.647   8.661  17.255  0.00  0.00    +0.000 OA
ATOM     14  N   UNL     1       2.397   6.956  18.688  0.00  0.00    +0.000 N 
ATOM     15  H   UNL     1       1.998   6.613  19.573  0.00  0.00    +0.000 HD
BRANCH  14  16
ATOM     16  C   UNL     1       3.157   5.981  17.915  0.00  0.00    +0.000 C 
BRANCH  16  17
ATOM     17  C   UNL     1       2.711   4.575  18.258  0.00  0.00    +0.000 A 
ATOM     18  C   UNL     1       1.906   4.325  19.388  0.00  0.00    +0.000 A 
ATOM     19  C   UNL     1       1.505   3.019  19.697  0.00  0.00    +0.000 A 
ATOM     20  F   UNL     1       0.736   2.782  20.791  0.00  0.00    +0.000 F 
ATOM     21  C   UNL     1       1.892   1.955  18.881  0.00  0.00    +0.000 A 
ATOM     22  C   UNL     1       2.683   2.194  17.754  0.00  0.00    +0.000 A 
ATOM     23  C   UNL     1       3.092   3.494  17.442  0.00  0.00    +0.000 A 
ATOM     24  F   UNL     1       3.858   3.700  16.341  0.00  0.00    +0.000 F 
ENDBRANCH  16  17
ENDBRANCH  14  16
ENDBRANCH   8  12
BRANCH   7  25
ATOM     25  N   UNL     1       1.520   8.023  21.393  0.00  0.00    +0.000 N 
ATOM     26  H   UNL     1       0.980   7.646  22.173  0.00  0.00    +0.000 HD
ATOM     27  H   UNL     1       2.442   7.595  21.258  0.00  0.00    +0.000 HD
ENDBRANCH   7  25
TORSDOF 4
ENDMDL
MODEL 2
REMARK VINA RESULT:      -8.0      1.510      2.154
REMARK  Name = 
REMARK  6 active torsions:
REMARK  status: ('A' for Active; 'I' for Inactive)
REMARK    1  A    between atoms: C_1  and  C_2
REMARK    2  A    between atoms: C_4  and  C_5
REMARK    3  A    between atoms: C_7  and  N_8
REMARK    4  A    between atoms: C_9  and  C_10
REMARK    5  A    between atoms: N_12  and  C_13
REMARK    6  A    between atoms: C_13  and  C_14
REMARK                            x       y       z     vdW  Elec       q    Type
REMARK                         _______ _______ _______ _____ _____    ______ ____
ROOT
ATOM      1  C   UNL     1      -1.651  12.403  23.323  0.00  0.00    +0.000 C 
ATOM      2  C   UNL     1      -0.908  11.824  22.157  0.00  0.00    +0.000 A 
ATOM      3  C   UNL     1      -0.798  12.538  20.953  0.00  0.00    +0.000 A 
ATOM      4  C   UNL     1      -0.117  11.992  19.846  0.00  0.00    +0.000 A 
ATOM      5  C   UNL     1      -0.060  12.837  18.603  0.00  0.00    +0.000 C 
ATOM      6  C   UNL     1       0.458  10.688  19.978  0.00  0.00    +0.000 A 
ATOM      7  C   UNL     1       1.185   9.863  19.047  0.00  0.00    +0.000 A 
ATOM      8  C   UNL     1       1.592   8.616  19.611  0.00  0.00    +0.000 A 
ATOM      9  S   UNL     1       1.047   8.559  21.207  0.00  0.00    +0.000 S 
ATOM     10  C   UNL     1       0.318  10.052  21.210  0.00  0.00    +0.000 A 
ATOM     11  N   UNL     1      -0.342  10.594  22.261  0.00  0.00    +0.000 NA
ENDROOT
BRANCH   8  12
ATOM     12  C   UNL     1       2.365   7.481  18.993  0.00  0.00    +0.000 C 
ATOM     13  O   UNL     1       2.291   7.272  17.792  0.00  0.00    +0.000 OA
ATOM     14  N   UNL     1       3.158   6.681  19.773  0.00  0.00    +0.000 N 
ATOM     15  H   UNL     1       3.218   6.857  20.785  0.00  0.00    +0.000 HD
BRANCH  14  16
ATOM     16  C   UNL     1       3.936   5.551  19.279  0.00  0.00    +0.000 C 
BRANCH  16  17
ATOM     17  C   UNL     1       3.102   4.287  19.308  0.00  0.00    +0.000 A 
ATOM     18  C   UNL     1       2.384   3.918  20.464  0.00  0.00    +0.000 A 
ATOM     19  C   UNL     1       1.620   2.744  20.478  0.00  0.00    +0.000 A 
ATOM     20  F   UNL     1       0.936   2.390  21.597  0.00  0.00    +0.000 F 
ATOM     21  C   UNL     1       1.559   1.934  19.344  0.00  0.00    +0.000 A 
ATOM     22  C   UNL     1       2.261   2.294  18.191  0.00  0.00    +0.000 A 
ATOM     23  C   UNL     1       3.029   3.462  18.170  0.00  0.00    +0.000 A 
ATOM     24  F   UNL     1       3.700   3.792  17.038  0.00  0.00    +0.000 F 
ENDBRANCH  16  17
ENDBRANCH  14  16
ENDBRANCH   8  12
BRANCH   7  25
ATOM     25  N   UNL     1       1.474  10.228  17.701  0.00  0.00    +0.000 N 
ATOM     26  H   UNL     1       2.048  11.036  17.455  0.00  0.00    +0.000 HD
ATOM     27  H   UNL     1       1.096   9.707  16.903  0.00  0.00    +0.000 HD
ENDBRANCH   7  25
TORSDOF 4
ENDMDL
MODEL 3
REMARK VINA RESULT:      -7.9      3.687      8.090
REMARK  Name = 
REMARK  6 active torsions:
REMARK  status: ('A' for Active; 'I' for Inactive)
REMARK    1  A    between atoms: C_1  and  C_2
REMARK    2  A    between atoms: C_4  and  C_5
REMARK    3  A    between atoms: C_7  and  N_8
REMARK    4  A    between atoms: C_9  and  C_10
REMARK    5  A    between atoms: N_12  and  C_13
REMARK    6  A    between atoms: C_13  and  C_14
REMARK                            x       y       z     vdW  Elec       q    Type
REMARK                         _______ _______ _______ _____ _____    ______ ____
ROOT
ATOM      1  C   UNL     1       6.002   4.589  15.275  0.00  0.00    +0.000 C 
ATOM      2  C   UNL     1       5.169   4.910  16.480  0.00  0.00    +0.000 A 
ATOM      3  C   UNL     1       5.004   3.968  17.506  0.00  0.00    +0.000 A 
ATOM      4  C   UNL     1       4.207   4.255  18.633  0.00  0.00    +0.000 A 
ATOM      5  C   UNL     1       4.092   3.175  19.673  0.00  0.00    +0.000 C 
ATOM      6  C   UNL     1       3.568   5.534  18.704  0.00  0.00    +0.000 A 
ATOM      7  C   UNL     1       2.694   6.114  19.691  0.00  0.00    +0.000 A 
ATOM      8  C   UNL     1       2.290   7.443  19.363  0.00  0.00    +0.000 A 
ATOM      9  S   UNL     1       2.997   7.857  17.887  0.00  0.00    +0.000 S 
ATOM     10  C   UNL     1       3.795   6.418  17.652  0.00  0.00    +0.000 A 
ATOM     11  N   UNL     1       4.563   6.121  16.577  0.00  0.00    +0.000 NA
ENDROOT
BRANCH   8  12
ATOM     12  C   UNL     1       1.398   8.397  20.113  0.00  0.00    +0.000 C 
ATOM     13  O   UNL     1       1.027   8.126  21.244  0.00  0.00    +0.000 OA
ATOM     14  N   UNL     1       1.004   9.574  19.533  0.00  0.00    +0.000 N 
ATOM     15  H   UNL     1       1.317   9.800  18.579  0.00  0.00    +0.000 HD
BRANCH  14  16
ATOM     16  C   UNL     1       0.134  10.559  20.165  0.00  0.00    +0.000 C 
BRANCH  16  17
ATOM     17  C   UNL     1      -1.100  10.791  19.317  0.00  0.00    +0.000 A 
ATOM     18  C   UNL     1      -1.328  10.038  18.148  0.00  0.00    +0.000 A 
ATOM     19  C   UNL     1      -2.471  10.266  17.371  0.00  0.00    +0.000 A 
ATOM     20  F   UNL     1      -2.683   9.543  16.241  0.00  0.00    +0.000 F 
ATOM     21  C   UNL     1      -3.397  11.237  17.754  0.00  0.00    +0.000 A 
ATOM     22  C   UNL     1      -3.184  11.983  18.916  0.00  0.00    +0.000 A 
ATOM     23  C   UNL     1      -2.043  11.765  19.695  0.00  0.00    +0.000 A 
ATOM     24  F   UNL     1      -1.859  12.501  20.819  0.00  0.00    +0.000 F 
ENDBRANCH  16  17
ENDBRANCH  14  16
ENDBRANCH   8  12
BRANCH   7  25
ATOM     25  N   UNL     1       2.261   5.450  20.875  0.00  0.00    +0.000 N 
ATOM     26  H   UNL     1       2.777   4.677  21.299  0.00  0.00    +0.000 HD
ATOM     27  H   UNL     1       1.389   5.702  21.352  0.00  0.00    +0.000 HD
ENDBRANCH   7  25
TORSDOF 4
ENDMDL
MODEL 4
REMARK VINA RESULT:      -7.9      1.721      2.391
REMARK  Name = 
REMARK  6 active torsions:
REMARK  status: ('A' for Active; 'I' for Inactive)
REMARK    1  A    between atoms: C_1  and  C_2
REMARK    2  A    between atoms: C_4  and  C_5
REMARK    3  A    between atoms: C_7  and  N_8
REMARK    4  A    between atoms: C_9  and  C_10
REMARK    5  A    between atoms: N_12  and  C_13
REMARK    6  A    between atoms: C_13  and  C_14
REMARK                            x       y       z     vdW  Elec       q    Type
REMARK                         _______ _______ _______ _____ _____    ______ ____
ROOT
ATOM      1  C   UNL     1      -2.236  13.441  23.112  0.00  0.00    +0.000 C 
ATOM      2  C   UNL     1      -1.680  12.619  21.988  0.00  0.00    +0.000 A 
ATOM      3  C   UNL     1      -2.157  12.786  20.678  0.00  0.00    +0.000 A 
ATOM      4  C   UNL     1      -1.654  12.004  19.618  0.00  0.00    +0.000 A 
ATOM      5  C   UNL     1      -2.234  12.258  18.255  0.00  0.00    +0.000 C 
ATOM      6  C   UNL     1      -0.644  11.032  19.912  0.00  0.00    +0.000 A 
ATOM      7  C   UNL     1       0.047  10.085  19.074  0.00  0.00    +0.000 A 
ATOM      8  C   UNL     1       1.001   9.302  19.791  0.00  0.00    +0.000 A 
ATOM      9  S   UNL     1       0.963   9.781  21.409  0.00  0.00    +0.000 S 
ATOM     10  C   UNL     1      -0.214  10.940  21.234  0.00  0.00    +0.000 A 
ATOM     11  N   UNL     1      -0.713  11.700  22.238  0.00  0.00    +0.000 NA
ENDROOT
BRANCH   8  12
ATOM     12  C   UNL     1       1.927   8.219  19.303  0.00  0.00    +0.000 C 
ATOM     13  O   UNL     1       2.415   8.289  18.186  0.00  0.00    +0.000 OA
ATOM     14  N   UNL     1       2.229   7.154  20.110  0.00  0.00    +0.000 N 
ATOM     15  H   UNL     1       1.815   7.096  21.051  0.00  0.00    +0.000 HD
BRANCH  14  16
ATOM     16  C   UNL     1       3.101   6.049  19.732  0.00  0.00    +0.000 C 
BRANCH  16  17
ATOM     17  C   UNL     1       2.344   4.738  19.793  0.00  0.00    +0.000 A 
ATOM     18  C   UNL     1       2.245   4.013  20.998  0.00  0.00    +0.000 A 
ATOM     19  C   UNL     1       1.546   2.801  21.040  0.00  0.00    +0.000 A 
ATOM     20  F   UNL     1       1.459   2.103  22.202  0.00  0.00    +0.000 F 
ATOM     21  C   UNL     1       0.935   2.304  19.888  0.00  0.00    +0.000 A 
ATOM     22  C   UNL     1       1.021   3.018  18.690  0.00  0.00    +0.000 A 
ATOM     23  C   UNL     1       1.721   4.227  18.639  0.00  0.00    +0.000 A 
ATOM     24  F   UNL     1       1.789   4.903  17.465  0.00  0.00    +0.000 F 
ENDBRANCH  16  17
ENDBRANCH  14  16
ENDBRANCH   8  12
BRANCH   7  25
ATOM     25  N   UNL     1      -0.186   9.924  17.678  0.00  0.00    +0.000 N 
ATOM     26  H   UNL     1      -0.967  10.367  17.190  0.00  0.00    +0.000 HD
ATOM     27  H   UNL     1       0.412   9.333  17.091  0.00  0.00    +0.000 HD
ENDBRANCH   7  25
TORSDOF 4
ENDMDL
MODEL 5
REMARK VINA RESULT:      -7.9      1.808      2.586
REMARK  Name = 
REMARK  6 active torsions:
REMARK  status: ('A' for Active; 'I' for Inactive)
REMARK    1  A    between atoms: C_1  and  C_2
REMARK    2  A    between atoms: C_4  and  C_5
REMARK    3  A    between atoms: C_7  and  N_8
REMARK    4  A    between atoms: C_9  and  C_10
REMARK    5  A    between atoms: N_12  and  C_13
REMARK    6  A    between atoms: C_13  and  C_14
REMARK                            x       y       z     vdW  Elec       q    Type
REMARK                         _______ _______ _______ _____ _____    ______ ____
ROOT
ATOM      1  C   UNL     1      -2.054  13.727  22.550  0.00  0.00    +0.000 C 
ATOM      2  C   UNL     1      -1.094  13.184  21.534  0.00  0.00    +0.000 A 
ATOM      3  C   UNL     1      -0.391  14.049  20.681  0.00  0.00    +0.000 A 
ATOM      4  C   UNL     1       0.499  13.546  19.710  0.00  0.00    +0.000 A 
ATOM      5  C   UNL     1       1.198  14.557  18.844  0.00  0.00    +0.000 C 
ATOM      6  C   UNL     1       0.667  12.128  19.614  0.00  0.00    +0.000 A 
ATOM      7  C   UNL     1       1.470  11.316  18.736  0.00  0.00    +0.000 A 
ATOM      8  C   UNL     1       1.344   9.919  19.001  0.00  0.00    +0.000 A 
ATOM      9  S   UNL     1       0.258   9.724  20.279  0.00  0.00    +0.000 S 
ATOM     10  C   UNL     1      -0.054  11.339  20.508  0.00  0.00    +0.000 A 
ATOM     11  N   UNL     1      -0.906  11.843  21.432  0.00  0.00    +0.000 NA
ENDROOT
BRANCH   8  12
ATOM     12  C   UNL     1       2.003   8.743  18.330  0.00  0.00    +0.000 C 
ATOM     13  O   UNL     1       2.369   8.828  17.168  0.00  0.00    +0.000 OA
ATOM     14  N   UNL     1       2.200   7.576  19.020  0.00  0.00    +0.000 N 
ATOM     15  H   UNL     1       1.889   7.506  19.999  0.00  0.00    +0.000 HD
BRANCH  14  16
ATOM     16  C   UNL     1       2.814   6.377  18.462  0.00  0.00    +0.000 C 
BRANCH  16  17
ATOM     17  C   UNL     1       2.269   5.140  19.146  0.00  0.00    +0.000 A 
ATOM     18  C   UNL     1       2.550   4.879  20.503  0.00  0.00    +0.000 A 
ATOM     19  C   UNL     1       2.044   3.729  21.122  0.00  0.00    +0.000 A 
ATOM     20  F   UNL     1       2.322   3.478  22.427  0.00  0.00    +0.000 F 
ATOM     21  C   UNL     1       1.249   2.837  20.401  0.00  0.00    +0.000 A 
ATOM     22  C   UNL     1       0.959   3.091  19.058  0.00  0.00    +0.000 A 
ATOM     23  C   UNL     1       1.465   4.234  18.431  0.00  0.00    +0.000 A 
ATOM     24  F   UNL     1       1.167   4.459  17.127  0.00  0.00    +0.000 F 
ENDBRANCH  16  17
ENDBRANCH  14  16
ENDBRANCH   8  12
BRANCH   7  25
ATOM     25  N   UNL     1       2.305  11.830  17.702  0.00  0.00    +0.000 N 
ATOM     26  H   UNL     1       3.291  11.579  17.607  0.00  0.00    +0.000 HD
ATOM     27  H   UNL     1       1.960  12.501  17.008  0.00  0.00    +0.000 HD
ENDBRANCH   7  25
TORSDOF 4
ENDMDL
MODEL 6
REMARK VINA RESULT:      -7.7      2.717      3.853
REMARK  Name = 
REMARK  6 active torsions:
REMARK  status: ('A' for Active; 'I' for Inactive)
REMARK    1  A    between atoms: C_1  and  C_2
REMARK    2  A    between atoms: C_4  and  C_5
REMARK    3  A    between atoms: C_7  and  N_8
REMARK    4  A    between atoms: C_9  and  C_10
REMARK    5  A    between atoms: N_12  and  C_13
REMARK    6  A    between atoms: C_13  and  C_14
REMARK                            x       y       z     vdW  Elec       q    Type
REMARK                         _______ _______ _______ _____ _____    ______ ____
ROOT
ATOM      1  C   UNL     1      -0.870  14.269  19.003  0.00  0.00    +0.000 C 
ATOM      2  C   UNL     1      -0.438  12.908  19.460  0.00  0.00    +0.000 A 
ATOM      3  C   UNL     1      -0.792  12.435  20.733  0.00  0.00    +0.000 A 
ATOM      4  C   UNL     1      -0.373  11.163  21.177  0.00  0.00    +0.000 A 
ATOM      5  C   UNL     1      -0.803  10.754  22.558  0.00  0.00    +0.000 C 
ATOM      6  C   UNL     1       0.426  10.366  20.295  0.00  0.00    +0.000 A 
ATOM      7  C   UNL     1       1.014   9.061  20.454  0.00  0.00    +0.000 A 
ATOM      8  C   UNL     1       1.735   8.633  19.299  0.00  0.00    +0.000 A 
ATOM      9  S   UNL     1       1.639   9.855  18.138  0.00  0.00    +0.000 S 
ATOM     10  C   UNL     1       0.720  10.901  19.043  0.00  0.00    +0.000 A 
ATOM     11  N   UNL     1       0.309  12.126  18.637  0.00  0.00    +0.000 NA
ENDROOT
BRANCH   8  12
ATOM     12  C   UNL     1       2.485   7.352  19.045  0.00  0.00    +0.000 C 
ATOM     13  O   UNL     1       2.533   6.490  19.909  0.00  0.00    +0.000 OA
ATOM     14  N   UNL     1       3.111   7.144  17.844  0.00  0.00    +0.000 N 
ATOM     15  H   UNL     1       3.071   7.873  17.118  0.00  0.00    +0.000 HD
BRANCH  14  16
ATOM     16  C   UNL     1       3.873   5.949  17.502  0.00  0.00    +0.000 C 
BRANCH  16  17
ATOM     17  C   UNL     1       5.322   6.115  17.911  0.00  0.00    +0.000 A 
ATOM     18  C   UNL     1       6.141   7.087  17.301  0.00  0.00    +0.000 A 
ATOM     19  C   UNL     1       7.480   7.226  17.685  0.00  0.00    +0.000 A 
ATOM     20  F   UNL     1       8.267   8.160  17.090  0.00  0.00    +0.000 F 
ATOM     21  C   UNL     1       8.013   6.408  18.682  0.00  0.00    +0.000 A 
ATOM     22  C   UNL     1       7.207   5.447  19.298  0.00  0.00    +0.000 A 
ATOM     23  C   UNL     1       5.870   5.298  18.917  0.00  0.00    +0.000 A 
ATOM     24  F   UNL     1       5.108   4.359  19.531  0.00  0.00    +0.000 F 
ENDBRANCH  16  17
ENDBRANCH  14  16
ENDBRANCH   8  12
BRANCH   7  25
ATOM     25  N   UNL     1       0.906   8.265  21.631  0.00  0.00    +0.000 N 
ATOM     26  H   UNL     1       0.108   7.656  21.819  0.00  0.00    +0.000 HD
ATOM     27  H   UNL     1       1.621   8.282  22.366  0.00  0.00    +0.000 HD
ENDBRANCH   7  25
TORSDOF 4
ENDMDL
MODEL 7
REMARK VINA RESULT:      -7.6      2.763      4.117
REMARK  Name = 
REMARK  6 active torsions:
REMARK  status: ('A' for Active; 'I' for Inactive)
REMARK    1  A    between atoms: C_1  and  C_2
REMARK    2  A    between atoms: C_4  and  C_5
REMARK    3  A    between atoms: C_7  and  N_8
REMARK    4  A    between atoms: C_9  and  C_10
REMARK    5  A    between atoms: N_12  and  C_13
REMARK    6  A    between atoms: C_13  and  C_14
REMARK                            x       y       z     vdW  Elec       q    Type
REMARK                         _______ _______ _______ _____ _____    ______ ____
ROOT
ATOM      1  C   UNL     1      -1.183  13.129  23.118  0.00  0.00    +0.000 C 
ATOM      2  C   UNL     1      -0.565  12.320  22.017  0.00  0.00    +0.000 A 
ATOM      3  C   UNL     1      -0.509  12.822  20.707  0.00  0.00    +0.000 A 
ATOM      4  C   UNL     1       0.053  12.060  19.662  0.00  0.00    +0.000 A 
ATOM      5  C   UNL     1       0.060  12.687  18.296  0.00  0.00    +0.000 C 
ATOM      6  C   UNL     1       0.565  10.758  19.970  0.00  0.00    +0.000 A 
ATOM      7  C   UNL     1       1.171   9.748  19.142  0.00  0.00    +0.000 A 
ATOM      8  C   UNL     1       1.552   8.584  19.876  0.00  0.00    +0.000 A 
ATOM      9  S   UNL     1       1.129   8.822  21.493  0.00  0.00    +0.000 S 
ATOM     10  C   UNL     1       0.485  10.341  21.296  0.00  0.00    +0.000 A 
ATOM     11  N   UNL     1      -0.060  11.088  22.285  0.00  0.00    +0.000 NA
ENDROOT
BRANCH   8  12
ATOM     12  C   UNL     1       2.212   7.315  19.405  0.00  0.00    +0.000 C 
ATOM     13  O   UNL     1       2.161   6.307  20.094  0.00  0.00    +0.000 OA
ATOM     14  N   UNL     1       2.866   7.282  18.202  0.00  0.00    +0.000 N 
ATOM     15  H   UNL     1       2.909   8.133  17.624  0.00  0.00    +0.000 HD
BRANCH  14  16
ATOM     16  C   UNL     1       3.547   6.113  17.661  0.00  0.00    +0.000 C 
BRANCH  16  17
ATOM     17  C   UNL     1       5.022   6.157  18.005  0.00  0.00    +0.000 A 
ATOM     18  C   UNL     1       5.902   7.015  17.316  0.00  0.00    +0.000 A 
ATOM     19  C   UNL     1       7.264   7.043  17.642  0.00  0.00    +0.000 A 
ATOM     20  F   UNL     1       8.109   7.867  16.970  0.00  0.00    +0.000 F 
ATOM     21  C   UNL     1       7.759   6.225  18.658  0.00  0.00    +0.000 A 
ATOM     22  C   UNL     1       6.893   5.376  19.352  0.00  0.00    +0.000 A 
ATOM     23  C   UNL     1       5.533   5.339  19.030  0.00  0.00    +0.000 A 
ATOM     24  F   UNL     1       4.712   4.508  19.720  0.00  0.00    +0.000 F 
ENDBRANCH  16  17
ENDBRANCH  14  16
ENDBRANCH   8  12
BRANCH   7  25
ATOM     25  N   UNL     1       1.375   9.871  17.737  0.00  0.00    +0.000 N 
ATOM     26  H   UNL     1       2.086   9.342  17.230  0.00  0.00    +0.000 HD
ATOM     27  H   UNL     1       0.827  10.520  17.163  0.00  0.00    +0.000 HD
ENDBRANCH   7  25
TORSDOF 4
ENDMDL
MODEL 8
REMARK VINA RESULT:      -7.6      1.181      1.318
REMARK  Name = 
REMARK  6 active torsions:
REMARK  status: ('A' for Active; 'I' for Inactive)
REMARK    1  A    between atoms: C_1  and  C_2
REMARK    2  A    between atoms: C_4  and  C_5
REMARK    3  A    between atoms: C_7  and  N_8
REMARK    4  A    between atoms: C_9  and  C_10
REMARK    5  A    between atoms: N_12  and  C_13
REMARK    6  A    between atoms: C_13  and  C_14
REMARK                            x       y       z     vdW  Elec       q    Type
REMARK                         _______ _______ _______ _____ _____    ______ ____
ROOT
ATOM      1  C   UNL     1      -1.132  14.838  20.337  0.00  0.00    +0.000 C 
ATOM      2  C   UNL     1      -0.713  13.408  20.505  0.00  0.00    +0.000 A 
ATOM      3  C   UNL     1      -1.059  12.693  21.662  0.00  0.00    +0.000 A 
ATOM      4  C   UNL     1      -0.654  11.354  21.836  0.00  0.00    +0.000 A 
ATOM      5  C   UNL     1      -1.073  10.680  23.113  0.00  0.00    +0.000 C 
ATOM      6  C   UNL     1       0.123  10.740  20.801  0.00  0.00    +0.000 A 
ATOM      7  C   UNL     1       0.695   9.423  20.687  0.00  0.00    +0.000 A 
ATOM      8  C   UNL     1       1.396   9.227  19.459  0.00  0.00    +0.000 A 
ATOM      9  S   UNL     1       1.305  10.659  18.569  0.00  0.00    +0.000 S 
ATOM     10  C   UNL     1       0.411  11.513  19.678  0.00  0.00    +0.000 A 
ATOM     11  N   UNL     1       0.013  12.799  19.532  0.00  0.00    +0.000 NA
ENDROOT
BRANCH   8  12
ATOM     12  C   UNL     1       2.125   8.015  18.943  0.00  0.00    +0.000 C 
ATOM     13  O   UNL     1       2.268   7.853  17.741  0.00  0.00    +0.000 OA
ATOM     14  N   UNL     1       2.636   7.092  19.817  0.00  0.00    +0.000 N 
ATOM     15  H   UNL     1       2.513   7.230  20.830  0.00  0.00    +0.000 HD
BRANCH  14  16
ATOM     16  C   UNL     1       3.344   5.881  19.423  0.00  0.00    +0.000 C 
BRANCH  16  17
ATOM     17  C   UNL     1       2.449   4.670  19.589  0.00  0.00    +0.000 A 
ATOM     18  C   UNL     1       2.173   4.142  20.866  0.00  0.00    +0.000 A 
ATOM     19  C   UNL     1       1.347   3.020  21.005  0.00  0.00    +0.000 A 
ATOM     20  F   UNL     1       1.090   2.510  22.237  0.00  0.00    +0.000 F 
ATOM     21  C   UNL     1       0.784   2.420  19.878  0.00  0.00    +0.000 A 
ATOM     22  C   UNL     1       1.045   2.941  18.608  0.00  0.00    +0.000 A 
ATOM     23  C   UNL     1       1.872   4.058  18.461  0.00  0.00    +0.000 A 
ATOM     24  F   UNL     1       2.109   4.547  17.217  0.00  0.00    +0.000 F 
ENDBRANCH  16  17
ENDBRANCH  14  16
ENDBRANCH   8  12
BRANCH   7  25
ATOM     25  N   UNL     1       0.590   8.409  21.682  0.00  0.00    +0.000 N 
ATOM     26  H   UNL     1       0.423   8.614  22.669  0.00  0.00    +0.000 HD
ATOM     27  H   UNL     1       0.699   7.414  21.459  0.00  0.00    +0.000 HD
ENDBRANCH   7  25
TORSDOF 4
ENDMDL
MODEL 9
REMARK VINA RESULT:      -7.6      3.387      4.834
REMARK  Name = 
REMARK  6 active torsions:
REMARK  status: ('A' for Active; 'I' for Inactive)
REMARK    1  A    between atoms: C_1  and  C_2
REMARK    2  A    between atoms: C_4  and  C_5
REMARK    3  A    between atoms: C_7  and  N_8
REMARK    4  A    between atoms: C_9  and  C_10
REMARK    5  A    between atoms: N_12  and  C_13
REMARK    6  A    between atoms: C_13  and  C_14
REMARK                            x       y       z     vdW  Elec       q    Type
REMARK                         _______ _______ _______ _____ _____    ______ ____
ROOT
ATOM      1  C   UNL     1       0.728  12.296  18.626  0.00  0.00    +0.000 C 
ATOM      2  C   UNL     1       1.066  10.880  18.987  0.00  0.00    +0.000 A 
ATOM      3  C   UNL     1       0.633  10.329  20.203  0.00  0.00    +0.000 A 
ATOM      4  C   UNL     1       0.961   9.005  20.558  0.00  0.00    +0.000 A 
ATOM      5  C   UNL     1       0.452   8.513  21.884  0.00  0.00    +0.000 C 
ATOM      6  C   UNL     1       1.752   8.234  19.646  0.00  0.00    +0.000 A 
ATOM      7  C   UNL     1       2.261   6.889  19.720  0.00  0.00    +0.000 A 
ATOM      8  C   UNL     1       3.006   6.512  18.563  0.00  0.00    +0.000 A 
ATOM      9  S   UNL     1       3.027   7.825  17.502  0.00  0.00    +0.000 S 
ATOM     10  C   UNL     1       2.128   8.849  18.454  0.00  0.00    +0.000 A 
ATOM     11  N   UNL     1       1.803  10.124  18.133  0.00  0.00    +0.000 NA
ENDROOT
BRANCH   8  12
ATOM     12  C   UNL     1       3.695   5.214  18.235  0.00  0.00    +0.000 C 
ATOM     13  O   UNL     1       3.595   4.260  18.992  0.00  0.00    +0.000 OA
ATOM     14  N   UNL     1       4.431   5.093  17.086  0.00  0.00    +0.000 N 
ATOM     15  H   UNL     1       4.515   5.899  16.450  0.00  0.00    +0.000 HD
BRANCH  14  16
ATOM     16  C   UNL     1       5.146   3.889  16.682  0.00  0.00    +0.000 C 
BRANCH  16  17
ATOM     17  C   UNL     1       5.819   4.102  15.341  0.00  0.00    +0.000 A 
ATOM     18  C   UNL     1       5.323   3.482  14.176  0.00  0.00    +0.000 A 
ATOM     19  C   UNL     1       5.957   3.684  12.944  0.00  0.00    +0.000 A 
ATOM     20  F   UNL     1       5.480   3.079  11.825  0.00  0.00    +0.000 F 
ATOM     21  C   UNL     1       7.080   4.506  12.859  0.00  0.00    +0.000 A 
ATOM     22  C   UNL     1       7.574   5.131  14.007  0.00  0.00    +0.000 A 
ATOM     23  C   UNL     1       6.951   4.931  15.242  0.00  0.00    +0.000 A 
ATOM     24  F   UNL     1       7.448   5.550  16.342  0.00  0.00    +0.000 F 
ENDBRANCH  16  17
ENDBRANCH  14  16
ENDBRANCH   8  12
BRANCH   7  25
ATOM     25  N   UNL     1       2.060   6.011  20.825  0.00  0.00    +0.000 N 
ATOM     26  H   UNL     1       2.501   6.152  21.735  0.00  0.00    +0.000 HD
ATOM     27  H   UNL     1       1.474   5.172  20.753  0.00  0.00    +0.000 HD
ENDBRANCH   7  25
TORSDOF 4
ENDMDL
