MODEL 1
REMARK VINA RESULT:      -8.0      0.000      0.000
REMARK  Name = 
REMARK  3 active torsions:
REMARK  status: ('A' for Active; 'I' for Inactive)
REMARK    1  A    between atoms: C_2  and  C_3
REMARK    2  A    between atoms: C_2  and  C_10
REMARK    3  A    between atoms: C_16  and  O_17
REMARK                            x       y       z     vdW  Elec       q    Type
REMARK                         _______ _______ _______ _____ _____    ______ ____
ROOT
ATOM      1  C   UNL     1       5.216   6.035  17.025  0.00  0.00    +0.000 A 
ATOM      2  C   UNL     1       4.241   7.010  17.083  0.00  0.00    +0.000 A 
ATOM      3  O   UNL     1       3.274   6.680  17.980  0.00  0.00    +0.000 OA
ATOM      4  C   UNL     1       3.608   5.466  18.509  0.00  0.00    +0.000 A 
ATOM      5  C   UNL     1       4.802   5.026  17.947  0.00  0.00    +0.000 A 
ATOM      6  C   UNL     1       5.335   3.794  18.362  0.00  0.00    +0.000 A 
ATOM      7  C   UNL     1       4.649   3.051  19.328  0.00  0.00    +0.000 A 
ATOM      8  C   UNL     1       3.435   3.496  19.890  0.00  0.00    +0.000 A 
ATOM      9  C   UNL     1       2.726   2.756  20.853  0.00  0.00    +0.000 A 
ATOM     10  C   UNL     1       1.519   3.220  21.380  0.00  0.00    +0.000 A 
ATOM     11  C   UNL     1       0.989   4.440  20.957  0.00  0.00    +0.000 A 
ATOM     12  C   UNL     1       1.668   5.204  20.008  0.00  0.00    +0.000 A 
ATOM     13  C   UNL     1       2.884   4.733  19.476  0.00  0.00    +0.000 A 
ENDROOT
BRANCH   1  15
ATOM     14  O   UNL     1       7.407   6.638  16.458  0.00  0.00    +0.000 OA
ATOM     15  C   UNL     1       6.398   5.992  16.181  0.00  0.00    +0.000 C 
BRANCH  15  16
ATOM     16  C   UNL     1       6.406   5.190  14.930  0.00  0.00    +0.000 A 
ATOM     17  C   UNL     1       5.333   4.315  14.696  0.00  0.00    +0.000 A 
ATOM     18  C   UNL     1       5.318   3.509  13.555  0.00  0.00    +0.000 A 
ATOM     19  C   UNL     1       6.380   3.569  12.655  0.00  0.00    +0.000 A 
ATOM     20 BR   UNL     1       6.361   2.484  11.109  0.00  0.00    +0.000 Br
ATOM     21  C   UNL     1       7.463   4.415  12.891  0.00  0.00    +0.000 A 
ATOM     22  C   UNL     1       7.483   5.220  14.034  0.00  0.00    +0.000 A 
ENDBRANCH  15  16
ENDBRANCH   1  15
BRANCH   7  23
ATOM     23  O   UNL     1       5.178   1.855  19.742  0.00  0.00    +0.000 OA
ATOM     24  H   UNL     1       5.323   1.893  20.702  0.00  0.00    +0.000 HD
ENDBRANCH   7  23
TORSDOF 3
ENDMDL
MODEL 2
REMARK VINA RESULT:      -7.9      0.188      1.023
REMARK  Name = 
REMARK  3 active torsions:
REMARK  status: ('A' for Active; 'I' for Inactive)
REMARK    1  A    between atoms: C_2  and  C_3
REMARK    2  A    between atoms: C_2  and  C_10
REMARK    3  A    between atoms: C_16  and  O_17
REMARK                            x       y       z     vdW  Elec       q    Type
REMARK                         _______ _______ _______ _____ _____    ______ ____
ROOT
ATOM      1  C   UNL     1       5.260   6.022  17.033  0.00  0.00    +0.000 A 
ATOM      2  C   UNL     1       4.273   6.986  17.047  0.00  0.00    +0.000 A 
ATOM      3  O   UNL     1       3.279   6.653  17.914  0.00  0.00    +0.000 OA
ATOM      4  C   UNL     1       3.608   5.449  18.467  0.00  0.00    +0.000 A 
ATOM      5  C   UNL     1       4.826   5.017  17.951  0.00  0.00    +0.000 A 
ATOM      6  C   UNL     1       5.358   3.795  18.397  0.00  0.00    +0.000 A 
ATOM      7  C   UNL     1       4.647   3.055  19.347  0.00  0.00    +0.000 A 
ATOM      8  C   UNL     1       3.410   3.491  19.861  0.00  0.00    +0.000 A 
ATOM      9  C   UNL     1       2.676   2.752  20.808  0.00  0.00    +0.000 A 
ATOM     10  C   UNL     1       1.446   3.208  21.287  0.00  0.00    +0.000 A 
ATOM     11  C   UNL     1       0.918   4.417  20.834  0.00  0.00    +0.000 A 
ATOM     12  C   UNL     1       1.620   5.180  19.901  0.00  0.00    +0.000 A 
ATOM     13  C   UNL     1       2.859   4.718  19.416  0.00  0.00    +0.000 A 
ENDROOT
BRANCH   1  15
ATOM     14  O   UNL     1       7.452   6.666  16.519  0.00  0.00    +0.000 OA
ATOM     15  C   UNL     1       6.471   5.984  16.231  0.00  0.00    +0.000 C 
BRANCH  15  16
ATOM     16  C   UNL     1       6.544   5.140  15.009  0.00  0.00    +0.000 A 
ATOM     17  C   UNL     1       7.576   5.389  14.091  0.00  0.00    +0.000 A 
ATOM     18  C   UNL     1       7.659   4.651  12.908  0.00  0.00    +0.000 A 
ATOM     19  C   UNL     1       6.704   3.673  12.638  0.00  0.00    +0.000 A 
ATOM     20 BR   UNL     1       6.816   2.669  11.041  0.00  0.00    +0.000 Br
ATOM     21  C   UNL     1       5.660   3.435  13.531  0.00  0.00    +0.000 A 
ATOM     22  C   UNL     1       5.572   4.175  14.714  0.00  0.00    +0.000 A 
ENDBRANCH  15  16
ENDBRANCH   1  15
BRANCH   7  23
ATOM     23  O   UNL     1       5.175   1.869  19.791  0.00  0.00    +0.000 OA
ATOM     24  H   UNL     1       5.384   1.313  19.023  0.00  0.00    +0.000 HD
ENDBRANCH   7  23
TORSDOF 3
ENDMDL
MODEL 3
REMARK VINA RESULT:      -7.7      3.544      7.121
REMARK  Name = 
REMARK  3 active torsions:
REMARK  status: ('A' for Active; 'I' for Inactive)
REMARK    1  A    between atoms: C_2  and  C_3
REMARK    2  A    between atoms: C_2  and  C_10
REMARK    3  A    between atoms: C_16  and  O_17
REMARK                            x       y       z     vdW  Elec       q    Type
REMARK                         _______ _______ _______ _____ _____    ______ ____
ROOT
ATOM      1  C   UNL     1       3.147   5.034  18.460  0.00  0.00    +0.000 A 
ATOM      2  C   UNL     1       2.512   4.021  17.773  0.00  0.00    +0.000 A 
ATOM      3  O   UNL     1       3.198   3.692  16.646  0.00  0.00    +0.000 OA
ATOM      4  C   UNL     1       4.291   4.509  16.583  0.00  0.00    +0.000 A 
ATOM      5  C   UNL     1       4.301   5.359  17.684  0.00  0.00    +0.000 A 
ATOM      6  C   UNL     1       5.352   6.281  17.821  0.00  0.00    +0.000 A 
ATOM      7  C   UNL     1       6.355   6.313  16.847  0.00  0.00    +0.000 A 
ATOM      8  C   UNL     1       6.338   5.457  15.728  0.00  0.00    +0.000 A 
ATOM      9  C   UNL     1       7.332   5.484  14.733  0.00  0.00    +0.000 A 
ATOM     10  C   UNL     1       7.277   4.629  13.630  0.00  0.00    +0.000 A 
ATOM     11  C   UNL     1       6.226   3.722  13.493  0.00  0.00    +0.000 A 
ATOM     12  C   UNL     1       5.225   3.662  14.464  0.00  0.00    +0.000 A 
ATOM     13  C   UNL     1       5.281   4.526  15.575  0.00  0.00    +0.000 A 
ENDROOT
BRANCH   1  15
ATOM     14  O   UNL     1       2.794   5.113  20.774  0.00  0.00    +0.000 OA
ATOM     15  C   UNL     1       2.731   5.688  19.690  0.00  0.00    +0.000 C 
BRANCH  15  16
ATOM     16  C   UNL     1       2.176   7.067  19.664  0.00  0.00    +0.000 A 
ATOM     17  C   UNL     1       1.581   7.565  20.834  0.00  0.00    +0.000 A 
ATOM     18  C   UNL     1       1.008   8.838  20.845  0.00  0.00    +0.000 A 
ATOM     19  C   UNL     1       1.020   9.609  19.684  0.00  0.00    +0.000 A 
ATOM     20 BR   UNL     1       0.250  11.334  19.696  0.00  0.00    +0.000 Br
ATOM     21  C   UNL     1       1.585   9.114  18.509  0.00  0.00    +0.000 A 
ATOM     22  C   UNL     1       2.156   7.838  18.495  0.00  0.00    +0.000 A 
ENDBRANCH  15  16
ENDBRANCH   1  15
BRANCH   7  23
ATOM     23  O   UNL     1       7.388   7.204  16.990  0.00  0.00    +0.000 OA
ATOM     24  H   UNL     1       7.090   7.941  17.548  0.00  0.00    +0.000 HD
ENDBRANCH   7  23
TORSDOF 3
ENDMDL
MODEL 4
REMARK VINA RESULT:      -7.7      5.453      8.006
REMARK  Name = 
REMARK  3 active torsions:
REMARK  status: ('A' for Active; 'I' for Inactive)
REMARK    1  A    between atoms: C_2  and  C_3
REMARK    2  A    between atoms: C_2  and  C_10
REMARK    3  A    between atoms: C_16  and  O_17
REMARK                            x       y       z     vdW  Elec       q    Type
REMARK                         _______ _______ _______ _____ _____    ______ ____
ROOT
ATOM      1  C   UNL     1       1.359   9.337  18.903  0.00  0.00    +0.000 A 
ATOM      2  C   UNL     1       1.917   9.686  17.691  0.00  0.00    +0.000 A 
ATOM      3  O   UNL     1       2.750   8.711  17.238  0.00  0.00    +0.000 OA
ATOM      4  C   UNL     1       2.753   7.714  18.172  0.00  0.00    +0.000 A 
ATOM      5  C   UNL     1       1.908   8.057  19.222  0.00  0.00    +0.000 A 
ATOM      6  C   UNL     1       1.754   7.160  20.293  0.00  0.00    +0.000 A 
ATOM      7  C   UNL     1       2.455   5.950  20.266  0.00  0.00    +0.000 A 
ATOM      8  C   UNL     1       3.317   5.609  19.205  0.00  0.00    +0.000 A 
ATOM      9  C   UNL     1       4.039   4.402  19.169  0.00  0.00    +0.000 A 
ATOM     10  C   UNL     1       4.895   4.101  18.107  0.00  0.00    +0.000 A 
ATOM     11  C   UNL     1       5.050   4.999  17.051  0.00  0.00    +0.000 A 
ATOM     12  C   UNL     1       4.346   6.203  17.049  0.00  0.00    +0.000 A 
ATOM     13  C   UNL     1       3.485   6.507  18.122  0.00  0.00    +0.000 A 
ENDROOT
BRANCH   1  15
ATOM     14  O   UNL     1       0.729  10.418  20.883  0.00  0.00    +0.000 OA
ATOM     15  C   UNL     1       0.444  10.107  19.729  0.00  0.00    +0.000 C 
BRANCH  15  16
ATOM     16  C   UNL     1      -0.889  10.510  19.207  0.00  0.00    +0.000 A 
ATOM     17  C   UNL     1      -1.419   9.798  18.120  0.00  0.00    +0.000 A 
ATOM     18  C   UNL     1      -2.647  10.167  17.568  0.00  0.00    +0.000 A 
ATOM     19  C   UNL     1      -3.340  11.255  18.096  0.00  0.00    +0.000 A 
ATOM     20 BR   UNL     1      -5.005  11.755  17.355  0.00  0.00    +0.000 Br
ATOM     21  C   UNL     1      -2.810  11.986  19.159  0.00  0.00    +0.000 A 
ATOM     22  C   UNL     1      -1.579  11.620  19.710  0.00  0.00    +0.000 A 
ENDBRANCH  15  16
ENDBRANCH   1  15
BRANCH   7  23
ATOM     23  O   UNL     1       2.294   5.069  21.305  0.00  0.00    +0.000 OA
ATOM     24  H   UNL     1       2.906   4.325  21.183  0.00  0.00    +0.000 HD
ENDBRANCH   7  23
TORSDOF 3
ENDMDL
MODEL 5
REMARK VINA RESULT:      -7.7      3.475      7.109
REMARK  Name = 
REMARK  3 active torsions:
REMARK  status: ('A' for Active; 'I' for Inactive)
REMARK    1  A    between atoms: C_2  and  C_3
REMARK    2  A    between atoms: C_2  and  C_10
REMARK    3  A    between atoms: C_16  and  O_17
REMARK                            x       y       z     vdW  Elec       q    Type
REMARK                         _______ _______ _______ _____ _____    ______ ____
ROOT
ATOM      1  C   UNL     1       3.224   5.020  18.330  0.00  0.00    +0.000 A 
ATOM      2  C   UNL     1       2.565   4.026  17.637  0.00  0.00    +0.000 A 
ATOM      3  O   UNL     1       3.237   3.693  16.502  0.00  0.00    +0.000 OA
ATOM      4  C   UNL     1       4.346   4.488  16.440  0.00  0.00    +0.000 A 
ATOM      5  C   UNL     1       4.380   5.328  17.549  0.00  0.00    +0.000 A 
ATOM      6  C   UNL     1       5.451   6.226  17.688  0.00  0.00    +0.000 A 
ATOM      7  C   UNL     1       6.449   6.246  16.708  0.00  0.00    +0.000 A 
ATOM      8  C   UNL     1       6.407   5.401  15.582  0.00  0.00    +0.000 A 
ATOM      9  C   UNL     1       7.396   5.416  14.581  0.00  0.00    +0.000 A 
ATOM     10  C   UNL     1       7.316   4.573  13.470  0.00  0.00    +0.000 A 
ATOM     11  C   UNL     1       6.246   3.689  13.332  0.00  0.00    +0.000 A 
ATOM     12  C   UNL     1       5.250   3.640  14.308  0.00  0.00    +0.000 A 
ATOM     13  C   UNL     1       5.330   4.494  15.426  0.00  0.00    +0.000 A 
ENDROOT
BRANCH   1  15
ATOM     14  O   UNL     1       2.983   5.122  20.657  0.00  0.00    +0.000 OA
ATOM     15  C   UNL     1       2.828   5.670  19.568  0.00  0.00    +0.000 C 
BRANCH  15  16
ATOM     16  C   UNL     1       2.186   7.011  19.546  0.00  0.00    +0.000 A 
ATOM     17  C   UNL     1       2.228   7.748  18.352  0.00  0.00    +0.000 A 
ATOM     18  C   UNL     1       1.676   9.029  18.296  0.00  0.00    +0.000 A 
ATOM     19  C   UNL     1       1.093   9.579  19.437  0.00  0.00    +0.000 A 
ATOM     20 BR   UNL     1       0.341  11.310  19.364  0.00  0.00    +0.000 Br
ATOM     21  C   UNL     1       1.070   8.866  20.635  0.00  0.00    +0.000 A 
ATOM     22  C   UNL     1       1.624   7.584  20.695  0.00  0.00    +0.000 A 
ENDBRANCH  15  16
ENDBRANCH   1  15
BRANCH   7  23
ATOM     23  O   UNL     1       7.501   7.115  16.853  0.00  0.00    +0.000 OA
ATOM     24  H   UNL     1       8.199   6.868  16.225  0.00  0.00    +0.000 HD
ENDBRANCH   7  23
TORSDOF 3
ENDMDL
MODEL 6
REMARK VINA RESULT:      -7.7      5.457      7.999
REMARK  Name = 
REMARK  3 active torsions:
REMARK  status: ('A' for Active; 'I' for Inactive)
REMARK    1  A    between atoms: C_2  and  C_3
REMARK    2  A    between atoms: C_2  and  C_10
REMARK    3  A    between atoms: C_16  and  O_17
REMARK                            x       y       z     vdW  Elec       q    Type
REMARK                         _______ _______ _______ _____ _____    ______ ____
ROOT
ATOM      1  C   UNL     1       1.387   9.287  18.842  0.00  0.00    +0.000 A 
ATOM      2  C   UNL     1       1.972   9.624  17.639  0.00  0.00    +0.000 A 
ATOM      3  O   UNL     1       2.822   8.648  17.220  0.00  0.00    +0.000 OA
ATOM      4  C   UNL     1       2.806   7.663  18.166  0.00  0.00    +0.000 A 
ATOM      5  C   UNL     1       1.935   8.015  19.190  0.00  0.00    +0.000 A 
ATOM      6  C   UNL     1       1.760   7.130  20.268  0.00  0.00    +0.000 A 
ATOM      7  C   UNL     1       2.468   5.923  20.273  0.00  0.00    +0.000 A 
ATOM      8  C   UNL     1       3.357   5.574  19.238  0.00  0.00    +0.000 A 
ATOM      9  C   UNL     1       4.085   4.370  19.234  0.00  0.00    +0.000 A 
ATOM     10  C   UNL     1       4.968   4.061  18.197  0.00  0.00    +0.000 A 
ATOM     11  C   UNL     1       5.145   4.947  17.134  0.00  0.00    +0.000 A 
ATOM     12  C   UNL     1       4.434   6.147  17.100  0.00  0.00    +0.000 A 
ATOM     13  C   UNL     1       3.546   6.459  18.148  0.00  0.00    +0.000 A 
ENDROOT
BRANCH   1  15
ATOM     14  O   UNL     1       0.691  10.363  20.803  0.00  0.00    +0.000 OA
ATOM     15  C   UNL     1       0.448  10.062  19.636  0.00  0.00    +0.000 C 
BRANCH  15  16
ATOM     16  C   UNL     1      -0.858  10.484  19.065  0.00  0.00    +0.000 A 
ATOM     17  C   UNL     1      -1.542  11.542  19.683  0.00  0.00    +0.000 A 
ATOM     18  C   UNL     1      -2.793  11.944  19.208  0.00  0.00    +0.000 A 
ATOM     19  C   UNL     1      -3.364  11.281  18.123  0.00  0.00    +0.000 A 
ATOM     20 BR   UNL     1      -5.053  11.826  17.475  0.00  0.00    +0.000 Br
ATOM     21  C   UNL     1      -2.704  10.212  17.519  0.00  0.00    +0.000 A 
ATOM     22  C   UNL     1      -1.454   9.805  17.994  0.00  0.00    +0.000 A 
ENDBRANCH  15  16
ENDBRANCH   1  15
BRANCH   7  23
ATOM     23  O   UNL     1       2.285   5.055  21.319  0.00  0.00    +0.000 OA
ATOM     24  H   UNL     1       2.495   5.516  22.148  0.00  0.00    +0.000 HD
ENDBRANCH   7  23
TORSDOF 3
ENDMDL
MODEL 7
REMARK VINA RESULT:      -7.7      1.321      2.178
REMARK  Name = 
REMARK  3 active torsions:
REMARK  status: ('A' for Active; 'I' for Inactive)
REMARK    1  A    between atoms: C_2  and  C_3
REMARK    2  A    between atoms: C_2  and  C_10
REMARK    3  A    between atoms: C_16  and  O_17
REMARK                            x       y       z     vdW  Elec       q    Type
REMARK                         _______ _______ _______ _____ _____    ______ ____
ROOT
ATOM      1  C   UNL     1       5.651   5.133  17.369  0.00  0.00    +0.000 A 
ATOM      2  C   UNL     1       6.474   4.743  18.405  0.00  0.00    +0.000 A 
ATOM      3  O   UNL     1       5.763   4.131  19.389  0.00  0.00    +0.000 OA
ATOM      4  C   UNL     1       4.453   4.132  19.004  0.00  0.00    +0.000 A 
ATOM      5  C   UNL     1       4.334   4.744  17.760  0.00  0.00    +0.000 A 
ATOM      6  C   UNL     1       3.062   4.842  17.170  0.00  0.00    +0.000 A 
ATOM      7  C   UNL     1       1.958   4.319  17.852  0.00  0.00    +0.000 A 
ATOM      8  C   UNL     1       2.081   3.708  19.115  0.00  0.00    +0.000 A 
ATOM      9  C   UNL     1       0.979   3.189  19.820  0.00  0.00    +0.000 A 
ATOM     10  C   UNL     1       1.135   2.601  21.077  0.00  0.00    +0.000 A 
ATOM     11  C   UNL     1       2.398   2.514  21.663  0.00  0.00    +0.000 A 
ATOM     12  C   UNL     1       3.515   3.012  20.991  0.00  0.00    +0.000 A 
ATOM     13  C   UNL     1       3.356   3.608  19.724  0.00  0.00    +0.000 A 
ENDROOT
BRANCH   1  15
ATOM     14  O   UNL     1       6.098   7.062  16.118  0.00  0.00    +0.000 OA
ATOM     15  C   UNL     1       6.010   5.836  16.149  0.00  0.00    +0.000 C 
BRANCH  15  16
ATOM     16  C   UNL     1       6.245   5.089  14.886  0.00  0.00    +0.000 A 
ATOM     17  C   UNL     1       5.291   4.137  14.490  0.00  0.00    +0.000 A 
ATOM     18  C   UNL     1       5.490   3.380  13.334  0.00  0.00    +0.000 A 
ATOM     19  C   UNL     1       6.647   3.565  12.580  0.00  0.00    +0.000 A 
ATOM     20 BR   UNL     1       6.918   2.545  11.013  0.00  0.00    +0.000 Br
ATOM     21  C   UNL     1       7.613   4.488  12.978  0.00  0.00    +0.000 A 
ATOM     22  C   UNL     1       7.419   5.245  14.137  0.00  0.00    +0.000 A 
ENDBRANCH  15  16
ENDBRANCH   1  15
BRANCH   7  23
ATOM     23  O   UNL     1       0.720   4.404  17.268  0.00  0.00    +0.000 OA
ATOM     24  H   UNL     1       0.092   4.760  17.917  0.00  0.00    +0.000 HD
ENDBRANCH   7  23
TORSDOF 3
ENDMDL
MODEL 8
REMARK VINA RESULT:      -7.6      1.345      2.393
REMARK  Name = 
REMARK  3 active torsions:
REMARK  status: ('A' for Active; 'I' for Inactive)
REMARK    1  A    between atoms: C_2  and  C_3
REMARK    2  A    between atoms: C_2  and  C_10
REMARK    3  A    between atoms: C_16  and  O_17
REMARK                            x       y       z     vdW  Elec       q    Type
REMARK                         _______ _______ _______ _____ _____    ______ ____
ROOT
ATOM      1  C   UNL     1       5.585   5.087  17.329  0.00  0.00    +0.000 A 
ATOM      2  C   UNL     1       6.406   4.759  18.389  0.00  0.00    +0.000 A 
ATOM      3  O   UNL     1       5.696   4.179  19.394  0.00  0.00    +0.000 OA
ATOM      4  C   UNL     1       4.390   4.137  18.997  0.00  0.00    +0.000 A 
ATOM      5  C   UNL     1       4.272   4.690  17.726  0.00  0.00    +0.000 A 
ATOM      6  C   UNL     1       3.005   4.737  17.120  0.00  0.00    +0.000 A 
ATOM      7  C   UNL     1       1.904   4.225  17.815  0.00  0.00    +0.000 A 
ATOM      8  C   UNL     1       2.026   3.674  19.106  0.00  0.00    +0.000 A 
ATOM      9  C   UNL     1       0.927   3.165  19.823  0.00  0.00    +0.000 A 
ATOM     10  C   UNL     1       1.082   2.637  21.107  0.00  0.00    +0.000 A 
ATOM     11  C   UNL     1       2.340   2.601  21.707  0.00  0.00    +0.000 A 
ATOM     12  C   UNL     1       3.454   3.090  21.024  0.00  0.00    +0.000 A 
ATOM     13  C   UNL     1       3.296   3.625  19.730  0.00  0.00    +0.000 A 
ENDROOT
BRANCH   1  15
ATOM     14  O   UNL     1       6.016   6.966  15.999  0.00  0.00    +0.000 OA
ATOM     15  C   UNL     1       5.943   5.742  16.082  0.00  0.00    +0.000 C 
BRANCH  15  16
ATOM     16  C   UNL     1       6.195   4.943  14.854  0.00  0.00    +0.000 A 
ATOM     17  C   UNL     1       7.365   5.202  14.122  0.00  0.00    +0.000 A 
ATOM     18  C   UNL     1       7.623   4.508  12.939  0.00  0.00    +0.000 A 
ATOM     19  C   UNL     1       6.707   3.563  12.480  0.00  0.00    +0.000 A 
ATOM     20 BR   UNL     1       7.056   2.618  10.882  0.00  0.00    +0.000 Br
ATOM     21  C   UNL     1       5.530   3.317  13.185  0.00  0.00    +0.000 A 
ATOM     22  C   UNL     1       5.267   4.013  14.368  0.00  0.00    +0.000 A 
ENDBRANCH  15  16
ENDBRANCH   1  15
BRANCH   7  23
ATOM     23  O   UNL     1       0.670   4.259  17.217  0.00  0.00    +0.000 OA
ATOM     24  H   UNL     1       0.790   4.243  16.253  0.00  0.00    +0.000 HD
ENDBRANCH   7  23
TORSDOF 3
ENDMDL
MODEL 9
REMARK VINA RESULT:      -7.6      4.675      6.391
REMARK  Name = 
REMARK  3 active torsions:
REMARK  status: ('A' for Active; 'I' for Inactive)
REMARK    1  A    between atoms: C_2  and  C_3
REMARK    2  A    between atoms: C_2  and  C_10
REMARK    3  A    between atoms: C_16  and  O_17
REMARK                            x       y       z     vdW  Elec       q    Type
REMARK                         _______ _______ _______ _____ _____    ______ ____
ROOT
ATOM      1  C   UNL     1       1.948   7.990  18.996  0.00  0.00    +0.000 A 
ATOM      2  C   UNL     1       1.700   8.671  17.823  0.00  0.00    +0.000 A 
ATOM      3  O   UNL     1       1.023   9.826  18.063  0.00  0.00    +0.000 OA
ATOM      4  C   UNL     1       0.809   9.899  19.410  0.00  0.00    +0.000 A 
ATOM      5  C   UNL     1       1.362   8.783  20.030  0.00  0.00    +0.000 A 
ATOM      6  C   UNL     1       1.264   8.663  21.427  0.00  0.00    +0.000 A 
ATOM      7  C   UNL     1       0.615   9.671  22.147  0.00  0.00    +0.000 A 
ATOM      8  C   UNL     1       0.048  10.795  21.516  0.00  0.00    +0.000 A 
ATOM      9  C   UNL     1      -0.619  11.811  22.225  0.00  0.00    +0.000 A 
ATOM     10  C   UNL     1      -1.181  12.906  21.565  0.00  0.00    +0.000 A 
ATOM     11  C   UNL     1      -1.088  13.016  20.177  0.00  0.00    +0.000 A 
ATOM     12  C   UNL     1      -0.428  12.031  19.441  0.00  0.00    +0.000 A 
ATOM     13  C   UNL     1       0.135  10.926  20.108  0.00  0.00    +0.000 A 
ENDROOT
BRANCH   1  15
ATOM     14  O   UNL     1       2.530   6.083  20.224  0.00  0.00    +0.000 OA
ATOM     15  C   UNL     1       2.617   6.711  19.172  0.00  0.00    +0.000 C 
BRANCH  15  16
ATOM     16  C   UNL     1       3.461   6.144  18.088  0.00  0.00    +0.000 A 
ATOM     17  C   UNL     1       3.355   4.771  17.814  0.00  0.00    +0.000 A 
ATOM     18  C   UNL     1       4.159   4.184  16.835  0.00  0.00    +0.000 A 
ATOM     19  C   UNL     1       5.076   4.967  16.137  0.00  0.00    +0.000 A 
ATOM     20 BR   UNL     1       6.162   4.178  14.807  0.00  0.00    +0.000 Br
ATOM     21  C   UNL     1       5.208   6.326  16.419  0.00  0.00    +0.000 A 
ATOM     22  C   UNL     1       4.407   6.916  17.401  0.00  0.00    +0.000 A 
ENDBRANCH  15  16
ENDBRANCH   1  15
BRANCH   7  23
ATOM     23  O   UNL     1       0.532   9.558  23.512  0.00  0.00    +0.000 OA
ATOM     24  H   UNL     1       0.631   8.623  23.755  0.00  0.00    +0.000 HD
ENDBRANCH   7  23
TORSDOF 3
ENDMDL
