MODEL 1
REMARK VINA RESULT:      -6.6      0.000      0.000
REMARK  Name = 
REMARK  10 active torsions:
REMARK  status: ('A' for Active; 'I' for Inactive)
REMARK    1  A    between atoms: C_1  and  C_2
REMARK    2  A    between atoms: C_2  and  C_3
REMARK    3  A    between atoms: C_3  and  C_4
REMARK    4  A    between atoms: C_4  and  C_5
REMARK    5  A    between atoms: C_5  and  C_6
REMARK    6  A    between atoms: C_6  and  C_7
REMARK    7  A    between atoms: C_7  and  C_8
REMARK    8  A    between atoms: C_8  and  O_9
REMARK    9  A    between atoms: O_9  and  C_10
REMARK   10  A    between atoms: C_13  and  C_15
REMARK                            x       y       z     vdW  Elec       q    Type
REMARK                         _______ _______ _______ _____ _____    ______ ____
ROOT
ATOM      1  C   UNL     1       5.247   4.203  18.969  0.00  0.00    +0.000 C 
ATOM      2  O   UNL     1       4.721   5.198  19.464  0.00  0.00    +0.000 OA
ATOM      3  N   UNL     1       5.689   4.107  17.681  0.00  0.00    +0.000 N 
ATOM      4  C   UNL     1       5.948   5.230  16.907  0.00  0.00    +0.000 C 
ATOM      5  O   UNL     1       5.820   6.388  17.294  0.00  0.00    +0.000 OA
ATOM      6  H   UNL     1       5.958   3.192  17.351  0.00  0.00    +0.000 HD
ENDROOT
BRANCH   4   7
ATOM      7  C   UNL     1       6.460   4.963  15.559  0.00  0.00    +0.000 A 
ATOM      8  C   UNL     1       5.894   4.076  14.650  0.00  0.00    +0.000 A 
ATOM      9  S   UNL     1       6.796   4.177  13.194  0.00  0.00    +0.000 S 
ATOM     10  N   UNL     1       7.841   5.324  13.817  0.00  0.00    +0.000 NA
ATOM     11  N   UNL     1       7.566   5.653  15.068  0.00  0.00    +0.000 NA
ENDBRANCH   4   7
BRANCH   1  12
ATOM     12  O   UNL     1       5.380   3.028  19.648  0.00  0.00    +0.000 OA
BRANCH  12  13
ATOM     13  C   UNL     1       4.142   2.278  19.746  0.00  0.00    +0.000 C 
BRANCH  13  14
ATOM     14  C   UNL     1       3.848   1.538  18.440  0.00  0.00    +0.000 C 
BRANCH  14  15
ATOM     15  C   UNL     1       2.456   1.868  17.889  0.00  0.00    +0.000 C 
BRANCH  15  16
ATOM     16  C   UNL     1       2.388   3.299  17.349  0.00  0.00    +0.000 C 
BRANCH  16  17
ATOM     17  C   UNL     1       1.297   4.123  18.042  0.00  0.00    +0.000 C 
BRANCH  17  18
ATOM     18  C   UNL     1       0.688   3.354  19.218  0.00  0.00    +0.000 C 
BRANCH  18  20
ATOM     19  C   UNL     1       1.306   2.887  21.611  0.00  0.00    +0.000 C 
ATOM     20  C   UNL     1       1.094   3.964  20.559  0.00  0.00    +0.000 C 
ENDBRANCH  18  20
ENDBRANCH  17  18
ENDBRANCH  16  17
ENDBRANCH  15  16
ENDBRANCH  14  15
ENDBRANCH  13  14
ENDBRANCH  12  13
ENDBRANCH   1  12
TORSDOF 9
ENDMDL
MODEL 2
REMARK VINA RESULT:      -6.5      1.324      2.222
REMARK  Name = 
REMARK  10 active torsions:
REMARK  status: ('A' for Active; 'I' for Inactive)
REMARK    1  A    between atoms: C_1  and  C_2
REMARK    2  A    between atoms: C_2  and  C_3
REMARK    3  A    between atoms: C_3  and  C_4
REMARK    4  A    between atoms: C_4  and  C_5
REMARK    5  A    between atoms: C_5  and  C_6
REMARK    6  A    between atoms: C_6  and  C_7
REMARK    7  A    between atoms: C_7  and  C_8
REMARK    8  A    between atoms: C_8  and  O_9
REMARK    9  A    between atoms: O_9  and  C_10
REMARK   10  A    between atoms: C_13  and  C_15
REMARK                            x       y       z     vdW  Elec       q    Type
REMARK                         _______ _______ _______ _____ _____    ______ ____
ROOT
ATOM      1  C   UNL     1       5.740   5.211  18.505  0.00  0.00    +0.000 C 
ATOM      2  O   UNL     1       6.642   5.155  19.339  0.00  0.00    +0.000 OA
ATOM      3  N   UNL     1       5.917   5.164  17.152  0.00  0.00    +0.000 N 
ATOM      4  C   UNL     1       7.079   4.664  16.580  0.00  0.00    +0.000 C 
ATOM      5  O   UNL     1       8.031   4.217  17.212  0.00  0.00    +0.000 OA
ATOM      6  H   UNL     1       5.118   5.375  16.573  0.00  0.00    +0.000 HD
ENDROOT
BRANCH   4   7
ATOM      7  C   UNL     1       7.099   4.640  15.114  0.00  0.00    +0.000 A 
ATOM      8  C   UNL     1       6.319   3.810  14.317  0.00  0.00    +0.000 A 
ATOM      9  S   UNL     1       6.635   4.212  12.679  0.00  0.00    +0.000 S 
ATOM     10  N   UNL     1       7.741   5.396  13.092  0.00  0.00    +0.000 NA
ATOM     11  N   UNL     1       7.903   5.525  14.398  0.00  0.00    +0.000 NA
ENDBRANCH   4   7
BRANCH   1  12
ATOM     12  O   UNL     1       4.435   5.408  18.847  0.00  0.00    +0.000 OA
BRANCH  12  13
ATOM     13  C   UNL     1       3.529   5.355  17.715  0.00  0.00    +0.000 C 
BRANCH  13  14
ATOM     14  C   UNL     1       2.076   5.260  18.184  0.00  0.00    +0.000 C 
BRANCH  14  15
ATOM     15  C   UNL     1       1.450   3.899  17.859  0.00  0.00    +0.000 C 
BRANCH  15  16
ATOM     16  C   UNL     1       0.705   3.319  19.065  0.00  0.00    +0.000 C 
BRANCH  16  17
ATOM     17  C   UNL     1       1.235   3.879  20.390  0.00  0.00    +0.000 C 
BRANCH  17  18
ATOM     18  C   UNL     1       1.226   2.808  21.485  0.00  0.00    +0.000 C 
BRANCH  18  20
ATOM     19  C   UNL     1       3.591   2.699  20.637  0.00  0.00    +0.000 C 
ATOM     20  C   UNL     1       2.613   2.202  21.690  0.00  0.00    +0.000 C 
ENDBRANCH  18  20
ENDBRANCH  17  18
ENDBRANCH  16  17
ENDBRANCH  15  16
ENDBRANCH  14  15
ENDBRANCH  13  14
ENDBRANCH  12  13
ENDBRANCH   1  12
TORSDOF 9
ENDMDL
MODEL 3
REMARK VINA RESULT:      -6.5      1.038      1.160
REMARK  Name = 
REMARK  10 active torsions:
REMARK  status: ('A' for Active; 'I' for Inactive)
REMARK    1  A    between atoms: C_1  and  C_2
REMARK    2  A    between atoms: C_2  and  C_3
REMARK    3  A    between atoms: C_3  and  C_4
REMARK    4  A    between atoms: C_4  and  C_5
REMARK    5  A    between atoms: C_5  and  C_6
REMARK    6  A    between atoms: C_6  and  C_7
REMARK    7  A    between atoms: C_7  and  C_8
REMARK    8  A    between atoms: C_8  and  O_9
REMARK    9  A    between atoms: O_9  and  C_10
REMARK   10  A    between atoms: C_13  and  C_15
REMARK                            x       y       z     vdW  Elec       q    Type
REMARK                         _______ _______ _______ _____ _____    ______ ____
ROOT
ATOM      1  C   UNL     1       5.772   4.443  19.012  0.00  0.00    +0.000 C 
ATOM      2  O   UNL     1       6.228   5.364  19.687  0.00  0.00    +0.000 OA
ATOM      3  N   UNL     1       5.887   4.332  17.656  0.00  0.00    +0.000 N 
ATOM      4  C   UNL     1       6.850   5.029  16.940  0.00  0.00    +0.000 C 
ATOM      5  O   UNL     1       7.679   5.784  17.439  0.00  0.00    +0.000 OA
ATOM      6  H   UNL     1       5.338   3.616  17.203  0.00  0.00    +0.000 HD
ENDROOT
BRANCH   4   7
ATOM      7  C   UNL     1       6.875   4.768  15.497  0.00  0.00    +0.000 A 
ATOM      8  C   UNL     1       6.100   3.817  14.843  0.00  0.00    +0.000 A 
ATOM      9  S   UNL     1       6.419   3.952  13.163  0.00  0.00    +0.000 S 
ATOM     10  N   UNL     1       7.519   5.192  13.381  0.00  0.00    +0.000 NA
ATOM     11  N   UNL     1       7.676   5.530  14.650  0.00  0.00    +0.000 NA
ENDBRANCH   4   7
BRANCH   1  12
ATOM     12  O   UNL     1       5.014   3.445  19.549  0.00  0.00    +0.000 OA
BRANCH  12  13
ATOM     13  C   UNL     1       4.550   2.484  18.567  0.00  0.00    +0.000 C 
BRANCH  13  14
ATOM     14  C   UNL     1       3.152   1.973  18.922  0.00  0.00    +0.000 C 
BRANCH  14  15
ATOM     15  C   UNL     1       2.129   2.277  17.822  0.00  0.00    +0.000 C 
BRANCH  15  16
ATOM     16  C   UNL     1       1.210   3.438  18.213  0.00  0.00    +0.000 C 
BRANCH  16  17
ATOM     17  C   UNL     1       1.864   4.800  17.955  0.00  0.00    +0.000 C 
BRANCH  17  18
ATOM     18  C   UNL     1       2.252   5.484  19.269  0.00  0.00    +0.000 C 
BRANCH  18  20
ATOM     19  C   UNL     1       2.294   4.254  21.463  0.00  0.00    +0.000 C 
ATOM     20  C   UNL     1       1.420   4.964  20.441  0.00  0.00    +0.000 C 
ENDBRANCH  18  20
ENDBRANCH  17  18
ENDBRANCH  16  17
ENDBRANCH  15  16
ENDBRANCH  14  15
ENDBRANCH  13  14
ENDBRANCH  12  13
ENDBRANCH   1  12
TORSDOF 9
ENDMDL
MODEL 4
REMARK VINA RESULT:      -6.4      1.189      1.511
REMARK  Name = 
REMARK  10 active torsions:
REMARK  status: ('A' for Active; 'I' for Inactive)
REMARK    1  A    between atoms: C_1  and  C_2
REMARK    2  A    between atoms: C_2  and  C_3
REMARK    3  A    between atoms: C_3  and  C_4
REMARK    4  A    between atoms: C_4  and  C_5
REMARK    5  A    between atoms: C_5  and  C_6
REMARK    6  A    between atoms: C_6  and  C_7
REMARK    7  A    between atoms: C_7  and  C_8
REMARK    8  A    between atoms: C_8  and  O_9
REMARK    9  A    between atoms: O_9  and  C_10
REMARK   10  A    between atoms: C_13  and  C_15
REMARK                            x       y       z     vdW  Elec       q    Type
REMARK                         _______ _______ _______ _____ _____    ______ ____
ROOT
ATOM      1  C   UNL     1       5.454   4.300  18.133  0.00  0.00    +0.000 C 
ATOM      2  O   UNL     1       5.883   5.139  18.924  0.00  0.00    +0.000 OA
ATOM      3  N   UNL     1       5.726   4.270  16.796  0.00  0.00    +0.000 N 
ATOM      4  C   UNL     1       6.813   4.941  16.252  0.00  0.00    +0.000 C 
ATOM      5  O   UNL     1       7.621   5.600  16.900  0.00  0.00    +0.000 OA
ATOM      6  H   UNL     1       5.193   3.628  16.229  0.00  0.00    +0.000 HD
ENDROOT
BRANCH   4   7
ATOM      7  C   UNL     1       6.998   4.775  14.806  0.00  0.00    +0.000 A 
ATOM      8  C   UNL     1       6.251   3.927  13.997  0.00  0.00    +0.000 A 
ATOM      9  S   UNL     1       6.780   4.150  12.380  0.00  0.00    +0.000 S 
ATOM     10  N   UNL     1       7.921   5.292  12.818  0.00  0.00    +0.000 NA
ATOM     11  N   UNL     1       7.943   5.533  14.118  0.00  0.00    +0.000 NA
ENDBRANCH   4   7
BRANCH   1  12
ATOM     12  O   UNL     1       4.574   3.327  18.501  0.00  0.00    +0.000 OA
BRANCH  12  13
ATOM     13  C   UNL     1       3.654   2.953  17.443  0.00  0.00    +0.000 C 
BRANCH  13  14
ATOM     14  C   UNL     1       2.337   2.434  18.024  0.00  0.00    +0.000 C 
BRANCH  14  15
ATOM     15  C   UNL     1       1.310   3.555  18.221  0.00  0.00    +0.000 C 
BRANCH  15  16
ATOM     16  C   UNL     1       1.967   4.937  18.161  0.00  0.00    +0.000 C 
BRANCH  16  17
ATOM     17  C   UNL     1       2.072   5.584  19.547  0.00  0.00    +0.000 C 
BRANCH  17  18
ATOM     18  C   UNL     1       1.287   4.783  20.590  0.00  0.00    +0.000 C 
BRANCH  18  20
ATOM     19  C   UNL     1       1.616   2.609  21.811  0.00  0.00    +0.000 C 
ATOM     20  C   UNL     1       2.215   3.969  21.490  0.00  0.00    +0.000 C 
ENDBRANCH  18  20
ENDBRANCH  17  18
ENDBRANCH  16  17
ENDBRANCH  15  16
ENDBRANCH  14  15
ENDBRANCH  13  14
ENDBRANCH  12  13
ENDBRANCH   1  12
TORSDOF 9
ENDMDL
MODEL 5
REMARK VINA RESULT:      -6.4      1.710      2.831
REMARK  Name = 
REMARK  10 active torsions:
REMARK  status: ('A' for Active; 'I' for Inactive)
REMARK    1  A    between atoms: C_1  and  C_2
REMARK    2  A    between atoms: C_2  and  C_3
REMARK    3  A    between atoms: C_3  and  C_4
REMARK    4  A    between atoms: C_4  and  C_5
REMARK    5  A    between atoms: C_5  and  C_6
REMARK    6  A    between atoms: C_6  and  C_7
REMARK    7  A    between atoms: C_7  and  C_8
REMARK    8  A    between atoms: C_8  and  O_9
REMARK    9  A    between atoms: O_9  and  C_10
REMARK   10  A    between atoms: C_13  and  C_15
REMARK                            x       y       z     vdW  Elec       q    Type
REMARK                         _______ _______ _______ _____ _____    ______ ____
ROOT
ATOM      1  C   UNL     1       4.523   2.788  19.046  0.00  0.00    +0.000 C 
ATOM      2  O   UNL     1       4.803   3.306  20.126  0.00  0.00    +0.000 OA
ATOM      3  N   UNL     1       4.976   3.213  17.831  0.00  0.00    +0.000 N 
ATOM      4  C   UNL     1       6.097   4.023  17.706  0.00  0.00    +0.000 C 
ATOM      5  O   UNL     1       6.779   4.419  18.646  0.00  0.00    +0.000 OA
ATOM      6  H   UNL     1       4.554   2.804  17.010  0.00  0.00    +0.000 HD
ENDROOT
BRANCH   4   7
ATOM      7  C   UNL     1       6.483   4.357  16.331  0.00  0.00    +0.000 A 
ATOM      8  C   UNL     1       5.879   3.853  15.185  0.00  0.00    +0.000 A 
ATOM      9  S   UNL     1       6.620   4.603  13.832  0.00  0.00    +0.000 S 
ATOM     10  N   UNL     1       7.658   5.502  14.787  0.00  0.00    +0.000 NA
ATOM     11  N   UNL     1       7.493   5.284  16.081  0.00  0.00    +0.000 NA
ENDBRANCH   4   7
BRANCH   1  12
ATOM     12  O   UNL     1       3.645   1.752  18.935  0.00  0.00    +0.000 OA
BRANCH  12  13
ATOM     13  C   UNL     1       2.284   2.178  18.665  0.00  0.00    +0.000 C 
BRANCH  13  14
ATOM     14  C   UNL     1       1.498   2.347  19.966  0.00  0.00    +0.000 C 
BRANCH  14  15
ATOM     15  C   UNL     1       0.900   3.751  20.102  0.00  0.00    +0.000 C 
BRANCH  15  16
ATOM     16  C   UNL     1       1.824   4.683  20.892  0.00  0.00    +0.000 C 
BRANCH  16  17
ATOM     17  C   UNL     1       1.931   6.068  20.244  0.00  0.00    +0.000 C 
BRANCH  17  18
ATOM     18  C   UNL     1       3.154   6.155  19.327  0.00  0.00    +0.000 C 
BRANCH  18  20
ATOM     19  C   UNL     1       4.098   7.150  17.218  0.00  0.00    +0.000 C 
ATOM     20  C   UNL     1       2.954   7.188  18.219  0.00  0.00    +0.000 C 
ENDBRANCH  18  20
ENDBRANCH  17  18
ENDBRANCH  16  17
ENDBRANCH  15  16
ENDBRANCH  14  15
ENDBRANCH  13  14
ENDBRANCH  12  13
ENDBRANCH   1  12
TORSDOF 9
ENDMDL
MODEL 6
REMARK VINA RESULT:      -6.4      3.312      6.591
REMARK  Name = 
REMARK  10 active torsions:
REMARK  status: ('A' for Active; 'I' for Inactive)
REMARK    1  A    between atoms: C_1  and  C_2
REMARK    2  A    between atoms: C_2  and  C_3
REMARK    3  A    between atoms: C_3  and  C_4
REMARK    4  A    between atoms: C_4  and  C_5
REMARK    5  A    between atoms: C_5  and  C_6
REMARK    6  A    between atoms: C_6  and  C_7
REMARK    7  A    between atoms: C_7  and  C_8
REMARK    8  A    between atoms: C_8  and  O_9
REMARK    9  A    between atoms: O_9  and  C_10
REMARK   10  A    between atoms: C_13  and  C_15
REMARK                            x       y       z     vdW  Elec       q    Type
REMARK                         _______ _______ _______ _____ _____    ______ ____
ROOT
ATOM      1  C   UNL     1       6.980   4.673  17.248  0.00  0.00    +0.000 C 
ATOM      2  O   UNL     1       7.839   4.249  18.019  0.00  0.00    +0.000 OA
ATOM      3  N   UNL     1       5.647   4.392  17.328  0.00  0.00    +0.000 N 
ATOM      4  C   UNL     1       5.063   3.922  18.496  0.00  0.00    +0.000 C 
ATOM      5  O   UNL     1       5.666   3.728  19.547  0.00  0.00    +0.000 OA
ATOM      6  H   UNL     1       5.067   4.671  16.549  0.00  0.00    +0.000 HD
ENDROOT
BRANCH   4   7
ATOM      7  C   UNL     1       3.613   3.711  18.436  0.00  0.00    +0.000 A 
ATOM      8  C   UNL     1       2.778   3.569  19.539  0.00  0.00    +0.000 A 
ATOM      9  S   UNL     1       1.169   3.432  18.961  0.00  0.00    +0.000 S 
ATOM     10  N   UNL     1       1.640   3.551  17.361  0.00  0.00    +0.000 NA
ATOM     11  N   UNL     1       2.946   3.690  17.212  0.00  0.00    +0.000 NA
ENDBRANCH   4   7
BRANCH   1  12
ATOM     12  O   UNL     1       7.283   5.427  16.154  0.00  0.00    +0.000 OA
BRANCH  12  13
ATOM     13  C   UNL     1       6.709   4.914  14.924  0.00  0.00    +0.000 C 
BRANCH  13  14
ATOM     14  C   UNL     1       7.684   5.083  13.756  0.00  0.00    +0.000 C 
BRANCH  14  15
ATOM     15  C   UNL     1       7.116   4.529  12.445  0.00  0.00    +0.000 C 
BRANCH  15  16
ATOM     16  C   UNL     1       5.886   3.650  12.690  0.00  0.00    +0.000 C 
BRANCH  16  17
ATOM     17  C   UNL     1       5.860   2.429  11.764  0.00  0.00    +0.000 C 
BRANCH  17  18
ATOM     18  C   UNL     1       4.510   2.304  11.053  0.00  0.00    +0.000 C 
BRANCH  18  20
ATOM     19  C   UNL     1       2.927   3.767   9.756  0.00  0.00    +0.000 C 
ATOM     20  C   UNL     1       3.768   3.639  11.017  0.00  0.00    +0.000 C 
ENDBRANCH  18  20
ENDBRANCH  17  18
ENDBRANCH  16  17
ENDBRANCH  15  16
ENDBRANCH  14  15
ENDBRANCH  13  14
ENDBRANCH  12  13
ENDBRANCH   1  12
TORSDOF 9
ENDMDL
MODEL 7
REMARK VINA RESULT:      -6.4      1.189      1.647
REMARK  Name = 
REMARK  10 active torsions:
REMARK  status: ('A' for Active; 'I' for Inactive)
REMARK    1  A    between atoms: C_1  and  C_2
REMARK    2  A    between atoms: C_2  and  C_3
REMARK    3  A    between atoms: C_3  and  C_4
REMARK    4  A    between atoms: C_4  and  C_5
REMARK    5  A    between atoms: C_5  and  C_6
REMARK    6  A    between atoms: C_6  and  C_7
REMARK    7  A    between atoms: C_7  and  C_8
REMARK    8  A    between atoms: C_8  and  O_9
REMARK    9  A    between atoms: O_9  and  C_10
REMARK   10  A    between atoms: C_13  and  C_15
REMARK                            x       y       z     vdW  Elec       q    Type
REMARK                         _______ _______ _______ _____ _____    ______ ____
ROOT
ATOM      1  C   UNL     1       5.385   4.917  17.945  0.00  0.00    +0.000 C 
ATOM      2  O   UNL     1       5.768   5.913  18.556  0.00  0.00    +0.000 OA
ATOM      3  N   UNL     1       5.649   4.653  16.632  0.00  0.00    +0.000 N 
ATOM      4  C   UNL     1       6.688   5.271  15.952  0.00  0.00    +0.000 C 
ATOM      5  O   UNL     1       7.460   6.086  16.449  0.00  0.00    +0.000 OA
ATOM      6  H   UNL     1       5.151   3.885  16.205  0.00  0.00    +0.000 HD
ENDROOT
BRANCH   4   7
ATOM      7  C   UNL     1       6.871   4.848  14.559  0.00  0.00    +0.000 A 
ATOM      8  C   UNL     1       6.165   3.826  13.935  0.00  0.00    +0.000 A 
ATOM      9  S   UNL     1       6.671   3.770  12.296  0.00  0.00    +0.000 S 
ATOM     10  N   UNL     1       7.751   5.031  12.494  0.00  0.00    +0.000 NA
ATOM     11  N   UNL     1       7.769   5.512  13.726  0.00  0.00    +0.000 NA
ENDBRANCH   4   7
BRANCH   1  12
ATOM     12  O   UNL     1       4.569   3.980  18.506  0.00  0.00    +0.000 OA
BRANCH  12  13
ATOM     13  C   UNL     1       4.431   2.781  17.700  0.00  0.00    +0.000 C 
BRANCH  13  14
ATOM     14  C   UNL     1       3.174   2.002  18.094  0.00  0.00    +0.000 C 
BRANCH  14  15
ATOM     15  C   UNL     1       1.899   2.832  17.911  0.00  0.00    +0.000 C 
BRANCH  15  16
ATOM     16  C   UNL     1       0.771   2.340  18.824  0.00  0.00    +0.000 C 
BRANCH  16  17
ATOM     17  C   UNL     1       0.496   3.316  19.973  0.00  0.00    +0.000 C 
BRANCH  17  18
ATOM     18  C   UNL     1       1.355   2.983  21.197  0.00  0.00    +0.000 C 
BRANCH  18  20
ATOM     19  C   UNL     1       2.121   5.319  20.666  0.00  0.00    +0.000 C 
ATOM     20  C   UNL     1       2.426   4.045  21.439  0.00  0.00    +0.000 C 
ENDBRANCH  18  20
ENDBRANCH  17  18
ENDBRANCH  16  17
ENDBRANCH  15  16
ENDBRANCH  14  15
ENDBRANCH  13  14
ENDBRANCH  12  13
ENDBRANCH   1  12
TORSDOF 9
ENDMDL
MODEL 8
REMARK VINA RESULT:      -6.4      3.554      6.751
REMARK  Name = 
REMARK  10 active torsions:
REMARK  status: ('A' for Active; 'I' for Inactive)
REMARK    1  A    between atoms: C_1  and  C_2
REMARK    2  A    between atoms: C_2  and  C_3
REMARK    3  A    between atoms: C_3  and  C_4
REMARK    4  A    between atoms: C_4  and  C_5
REMARK    5  A    between atoms: C_5  and  C_6
REMARK    6  A    between atoms: C_6  and  C_7
REMARK    7  A    between atoms: C_7  and  C_8
REMARK    8  A    between atoms: C_8  and  O_9
REMARK    9  A    between atoms: O_9  and  C_10
REMARK   10  A    between atoms: C_13  and  C_15
REMARK                            x       y       z     vdW  Elec       q    Type
REMARK                         _______ _______ _______ _____ _____    ______ ____
ROOT
ATOM      1  C   UNL     1       6.638   4.960  16.508  0.00  0.00    +0.000 C 
ATOM      2  O   UNL     1       7.738   4.707  16.995  0.00  0.00    +0.000 OA
ATOM      3  N   UNL     1       5.443   4.511  16.991  0.00  0.00    +0.000 N 
ATOM      4  C   UNL     1       5.303   4.048  18.292  0.00  0.00    +0.000 C 
ATOM      5  O   UNL     1       6.210   4.006  19.118  0.00  0.00    +0.000 OA
ATOM      6  H   UNL     1       4.626   4.657  16.416  0.00  0.00    +0.000 HD
ENDROOT
BRANCH   4   7
ATOM      7  C   UNL     1       3.947   3.642  18.676  0.00  0.00    +0.000 A 
ATOM      8  C   UNL     1       2.822   3.747  17.866  0.00  0.00    +0.000 A 
ATOM      9  S   UNL     1       1.499   3.066  18.721  0.00  0.00    +0.000 S 
ATOM     10  N   UNL     1       2.438   2.697  20.054  0.00  0.00    +0.000 NA
ATOM     11  N   UNL     1       3.704   3.051  19.914  0.00  0.00    +0.000 NA
ENDBRANCH   4   7
BRANCH   1  12
ATOM     12  O   UNL     1       6.492   5.672  15.355  0.00  0.00    +0.000 OA
BRANCH  12  13
ATOM     13  C   UNL     1       7.045   5.004  14.192  0.00  0.00    +0.000 C 
BRANCH  13  14
ATOM     14  C   UNL     1       6.056   3.979  13.632  0.00  0.00    +0.000 C 
BRANCH  14  15
ATOM     15  C   UNL     1       6.632   3.214  12.435  0.00  0.00    +0.000 C 
BRANCH  15  16
ATOM     16  C   UNL     1       5.525   2.619  11.560  0.00  0.00    +0.000 C 
BRANCH  16  17
ATOM     17  C   UNL     1       4.289   3.525  11.504  0.00  0.00    +0.000 C 
BRANCH  17  18
ATOM     18  C   UNL     1       3.116   2.817  10.822  0.00  0.00    +0.000 C 
BRANCH  18  20
ATOM     19  C   UNL     1       2.559   4.833   9.424  0.00  0.00    +0.000 C 
ATOM     20  C   UNL     1       2.884   3.347   9.408  0.00  0.00    +0.000 C 
ENDBRANCH  18  20
ENDBRANCH  17  18
ENDBRANCH  16  17
ENDBRANCH  15  16
ENDBRANCH  14  15
ENDBRANCH  13  14
ENDBRANCH  12  13
ENDBRANCH   1  12
TORSDOF 9
ENDMDL
MODEL 9
REMARK VINA RESULT:      -6.3      1.409      2.444
REMARK  Name = 
REMARK  10 active torsions:
REMARK  status: ('A' for Active; 'I' for Inactive)
REMARK    1  A    between atoms: C_1  and  C_2
REMARK    2  A    between atoms: C_2  and  C_3
REMARK    3  A    between atoms: C_3  and  C_4
REMARK    4  A    between atoms: C_4  and  C_5
REMARK    5  A    between atoms: C_5  and  C_6
REMARK    6  A    between atoms: C_6  and  C_7
REMARK    7  A    between atoms: C_7  and  C_8
REMARK    8  A    between atoms: C_8  and  O_9
REMARK    9  A    between atoms: O_9  and  C_10
REMARK   10  A    between atoms: C_13  and  C_15
REMARK                            x       y       z     vdW  Elec       q    Type
REMARK                         _______ _______ _______ _____ _____    ______ ____
ROOT
ATOM      1  C   UNL     1       5.778   5.150  19.148  0.00  0.00    +0.000 C 
ATOM      2  O   UNL     1       6.744   5.289  19.895  0.00  0.00    +0.000 OA
ATOM      3  N   UNL     1       5.845   5.044  17.788  0.00  0.00    +0.000 N 
ATOM      4  C   UNL     1       7.019   4.692  17.136  0.00  0.00    +0.000 C 
ATOM      5  O   UNL     1       8.080   4.438  17.699  0.00  0.00    +0.000 OA
ATOM      6  H   UNL     1       4.977   5.091  17.276  0.00  0.00    +0.000 HD
ENDROOT
BRANCH   4   7
ATOM      7  C   UNL     1       6.919   4.575  15.677  0.00  0.00    +0.000 A 
ATOM      8  C   UNL     1       6.070   3.707  15.001  0.00  0.00    +0.000 A 
ATOM      9  S   UNL     1       6.255   4.002  13.321  0.00  0.00    +0.000 S 
ATOM     10  N   UNL     1       7.400   5.196  13.566  0.00  0.00    +0.000 NA
ATOM     11  N   UNL     1       7.668   5.404  14.844  0.00  0.00    +0.000 NA
ENDBRANCH   4   7
BRANCH   1  12
ATOM     12  O   UNL     1       4.492   5.167  19.600  0.00  0.00    +0.000 OA
BRANCH  12  13
ATOM     13  C   UNL     1       3.767   6.367  19.229  0.00  0.00    +0.000 C 
BRANCH  13  14
ATOM     14  C   UNL     1       2.321   6.036  18.853  0.00  0.00    +0.000 C 
BRANCH  14  15
ATOM     15  C   UNL     1       2.238   4.980  17.746  0.00  0.00    +0.000 C 
BRANCH  15  16
ATOM     16  C   UNL     1       1.281   3.844  18.121  0.00  0.00    +0.000 C 
BRANCH  16  17
ATOM     17  C   UNL     1       1.938   2.467  17.970  0.00  0.00    +0.000 C 
BRANCH  17  18
ATOM     18  C   UNL     1       2.538   1.994  19.297  0.00  0.00    +0.000 C 
BRANCH  18  20
ATOM     19  C   UNL     1       4.723   1.812  20.530  0.00  0.00    +0.000 C 
ATOM     20  C   UNL     1       4.037   1.731  19.175  0.00  0.00    +0.000 C 
ENDBRANCH  18  20
ENDBRANCH  17  18
ENDBRANCH  16  17
ENDBRANCH  15  16
ENDBRANCH  14  15
ENDBRANCH  13  14
ENDBRANCH  12  13
ENDBRANCH   1  12
TORSDOF 9
ENDMDL
