MODEL 1
REMARK VINA RESULT:      -7.5      0.000      0.000
REMARK  Name = 
REMARK  7 active torsions:
REMARK  status: ('A' for Active; 'I' for Inactive)
REMARK    1  A    between atoms: C_2  and  C_3
REMARK    2  A    between atoms: C_3  and  O_4
REMARK    3  A    between atoms: O_4  and  C_5
REMARK    4  A    between atoms: C_9  and  C_10
REMARK    5  A    between atoms: N_12  and  C_13
REMARK    6  A    between atoms: C_14  and  O_15
REMARK    7  A    between atoms: C_19  and  O_20
REMARK                            x       y       z     vdW  Elec       q    Type
REMARK                         _______ _______ _______ _____ _____    ______ ____
ROOT
ATOM      1  C   UNL     1       0.873   9.410  19.992  0.00  0.00    +0.000 A 
ATOM      2  C   UNL     1      -0.005  10.158  19.296  0.00  0.00    +0.000 A 
ATOM      3  C   UNL     1      -0.733  11.244  19.954  0.00  0.00    +0.000 A 
ATOM      4  C   UNL     1      -1.860  11.861  19.396  0.00  0.00    +0.000 A 
ATOM      5  C   UNL     1      -2.457  12.954  20.030  0.00  0.00    +0.000 A 
ATOM      6  C   UNL     1      -1.897  13.452  21.204  0.00  0.00    +0.000 A 
ATOM      7  C   UNL     1      -0.792  12.843  21.784  0.00  0.00    +0.000 A 
ATOM      8  C   UNL     1      -0.253  11.713  21.173  0.00  0.00    +0.000 A 
ATOM      9  O   UNL     1       0.746  11.011  21.861  0.00  0.00    +0.000 OA
ATOM     10  C   UNL     1       1.032   9.716  21.450  0.00  0.00    +0.000 A 
ATOM     11  O   UNL     1       1.516   8.877  22.208  0.00  0.00    +0.000 OA
ENDROOT
BRANCH   1  14
ATOM     12  C   UNL     1       2.272   8.243  18.317  0.00  0.00    +0.000 C 
ATOM     13  O   UNL     1       2.358   9.177  17.522  0.00  0.00    +0.000 OA
ATOM     14  N   UNL     1       1.609   8.326  19.524  0.00  0.00    +0.000 N 
ATOM     15  H   UNL     1       1.820   7.629  20.238  0.00  0.00    +0.000 HD
BRANCH  12  20
ATOM     16  C   UNL     1       2.981   4.568  17.709  0.00  0.00    +0.000 A 
ATOM     17  C   UNL     1       4.230   4.663  17.085  0.00  0.00    +0.000 A 
ATOM     18  C   UNL     1       4.831   5.902  16.883  0.00  0.00    +0.000 A 
ATOM     19  C   UNL     1       4.188   7.057  17.320  0.00  0.00    +0.000 A 
ATOM     20  C   UNL     1       2.947   6.971  17.967  0.00  0.00    +0.000 A 
ATOM     21  C   UNL     1       2.338   5.724  18.164  0.00  0.00    +0.000 A 
BRANCH  16  22
ATOM     22  O   UNL     1       2.504   3.293  17.851  0.00  0.00    +0.000 OA
BRANCH  22  23
ATOM     23  C   UNL     1       1.239   3.167  18.499  0.00  0.00    +0.000 C 
BRANCH  23  25
ATOM     24  C   UNL     1       1.333   3.166  21.017  0.00  0.00    +0.000 C 
ATOM     25  C   UNL     1       1.485   2.544  19.840  0.00  0.00    +0.000 C 
ENDBRANCH  23  25
ENDBRANCH  22  23
ENDBRANCH  16  22
ENDBRANCH  12  20
ENDBRANCH   1  14
BRANCH   2  26
ATOM     26  O   UNL     1      -0.315  10.023  17.961  0.00  0.00    +0.000 OA
ATOM     27  H   UNL     1      -0.879   9.226  17.860  0.00  0.00    +0.000 HD
ENDBRANCH   2  26
BRANCH   6  28
ATOM     28  O   UNL     1      -2.429  14.538  21.832  0.00  0.00    +0.000 OA
ATOM     29  H   UNL     1      -3.325  14.314  22.137  0.00  0.00    +0.000 HD
ENDBRANCH   6  28
TORSDOF 7
ENDMDL
MODEL 2
REMARK VINA RESULT:      -7.4      1.392      2.767
REMARK  Name = 
REMARK  7 active torsions:
REMARK  status: ('A' for Active; 'I' for Inactive)
REMARK    1  A    between atoms: C_2  and  C_3
REMARK    2  A    between atoms: C_3  and  O_4
REMARK    3  A    between atoms: O_4  and  C_5
REMARK    4  A    between atoms: C_9  and  C_10
REMARK    5  A    between atoms: N_12  and  C_13
REMARK    6  A    between atoms: C_14  and  O_15
REMARK    7  A    between atoms: C_19  and  O_20
REMARK                            x       y       z     vdW  Elec       q    Type
REMARK                         _______ _______ _______ _____ _____    ______ ____
ROOT
ATOM      1  C   UNL     1       0.838   9.440  19.964  0.00  0.00    +0.000 A 
ATOM      2  C   UNL     1      -0.051  10.201  19.297  0.00  0.00    +0.000 A 
ATOM      3  C   UNL     1      -0.776  11.266  19.991  0.00  0.00    +0.000 A 
ATOM      4  C   UNL     1      -1.912  11.891  19.462  0.00  0.00    +0.000 A 
ATOM      5  C   UNL     1      -2.507  12.965  20.130  0.00  0.00    +0.000 A 
ATOM      6  C   UNL     1      -1.937  13.435  21.310  0.00  0.00    +0.000 A 
ATOM      7  C   UNL     1      -0.822  12.817  21.862  0.00  0.00    +0.000 A 
ATOM      8  C   UNL     1      -0.285  11.706  21.216  0.00  0.00    +0.000 A 
ATOM      9  O   UNL     1       0.725  10.991  21.875  0.00  0.00    +0.000 OA
ATOM     10  C   UNL     1       1.012   9.709  21.428  0.00  0.00    +0.000 A 
ATOM     11  O   UNL     1       1.509   8.853  22.159  0.00  0.00    +0.000 OA
ENDROOT
BRANCH   1  14
ATOM     12  C   UNL     1       2.235   8.327  18.251  0.00  0.00    +0.000 C 
ATOM     13  O   UNL     1       2.320   9.287  17.486  0.00  0.00    +0.000 OA
ATOM     14  N   UNL     1       1.575   8.371  19.461  0.00  0.00    +0.000 N 
ATOM     15  H   UNL     1       1.786   7.652  20.151  0.00  0.00    +0.000 HD
BRANCH  12  20
ATOM     16  C   UNL     1       4.840   5.818  17.113  0.00  0.00    +0.000 A 
ATOM     17  C   UNL     1       4.146   4.625  17.347  0.00  0.00    +0.000 A 
ATOM     18  C   UNL     1       2.849   4.647  17.852  0.00  0.00    +0.000 A 
ATOM     19  C   UNL     1       2.232   5.867  18.112  0.00  0.00    +0.000 A 
ATOM     20  C   UNL     1       2.910   7.068  17.859  0.00  0.00    +0.000 A 
ATOM     21  C   UNL     1       4.220   7.047  17.358  0.00  0.00    +0.000 A 
BRANCH  16  22
ATOM     22  O   UNL     1       6.104   5.659  16.612  0.00  0.00    +0.000 OA
BRANCH  22  23
ATOM     23  C   UNL     1       7.004   4.896  17.415  0.00  0.00    +0.000 C 
BRANCH  23  25
ATOM     24  C   UNL     1       7.903   7.128  18.163  0.00  0.00    +0.000 C 
ATOM     25  C   UNL     1       7.633   5.837  18.398  0.00  0.00    +0.000 C 
ENDBRANCH  23  25
ENDBRANCH  22  23
ENDBRANCH  16  22
ENDBRANCH  12  20
ENDBRANCH   1  14
BRANCH   2  26
ATOM     26  O   UNL     1      -0.375  10.098  17.963  0.00  0.00    +0.000 OA
ATOM     27  H   UNL     1      -0.477  11.007  17.605  0.00  0.00    +0.000 HD
ENDBRANCH   2  26
BRANCH   6  28
ATOM     28  O   UNL     1      -2.466  14.503  21.972  0.00  0.00    +0.000 OA
ATOM     29  H   UNL     1      -1.949  14.656  22.780  0.00  0.00    +0.000 HD
ENDBRANCH   6  28
TORSDOF 7
ENDMDL
MODEL 3
REMARK VINA RESULT:      -7.4      1.551      2.936
REMARK  Name = 
REMARK  7 active torsions:
REMARK  status: ('A' for Active; 'I' for Inactive)
REMARK    1  A    between atoms: C_2  and  C_3
REMARK    2  A    between atoms: C_3  and  O_4
REMARK    3  A    between atoms: O_4  and  C_5
REMARK    4  A    between atoms: C_9  and  C_10
REMARK    5  A    between atoms: N_12  and  C_13
REMARK    6  A    between atoms: C_14  and  O_15
REMARK    7  A    between atoms: C_19  and  O_20
REMARK                            x       y       z     vdW  Elec       q    Type
REMARK                         _______ _______ _______ _____ _____    ______ ____
ROOT
ATOM      1  C   UNL     1       0.791   9.528  19.949  0.00  0.00    +0.000 A 
ATOM      2  C   UNL     1      -0.125  10.277  19.305  0.00  0.00    +0.000 A 
ATOM      3  C   UNL     1      -0.904  11.278  20.036  0.00  0.00    +0.000 A 
ATOM      4  C   UNL     1      -2.061  11.875  19.521  0.00  0.00    +0.000 A 
ATOM      5  C   UNL     1      -2.710  12.891  20.228  0.00  0.00    +0.000 A 
ATOM      6  C   UNL     1      -2.172  13.335  21.433  0.00  0.00    +0.000 A 
ATOM      7  C   UNL     1      -1.035  12.744  21.970  0.00  0.00    +0.000 A 
ATOM      8  C   UNL     1      -0.444  11.686  21.284  0.00  0.00    +0.000 A 
ATOM      9  O   UNL     1       0.591  10.989  21.922  0.00  0.00    +0.000 OA
ATOM     10  C   UNL     1       0.940   9.742  21.424  0.00  0.00    +0.000 A 
ATOM     11  O   UNL     1       1.468   8.878  22.123  0.00  0.00    +0.000 OA
ENDROOT
BRANCH   1  14
ATOM     12  C   UNL     1       2.261   8.558  18.210  0.00  0.00    +0.000 C 
ATOM     13  O   UNL     1       2.320   9.557  17.495  0.00  0.00    +0.000 OA
ATOM     14  N   UNL     1       1.579   8.516  19.408  0.00  0.00    +0.000 N 
ATOM     15  H   UNL     1       1.809   7.773  20.067  0.00  0.00    +0.000 HD
BRANCH  12  20
ATOM     16  C   UNL     1       4.916   6.242  16.807  0.00  0.00    +0.000 A 
ATOM     17  C   UNL     1       4.376   5.004  17.175  0.00  0.00    +0.000 A 
ATOM     18  C   UNL     1       3.163   4.933  17.854  0.00  0.00    +0.000 A 
ATOM     19  C   UNL     1       2.474   6.103  18.156  0.00  0.00    +0.000 A 
ATOM     20  C   UNL     1       2.994   7.347  17.771  0.00  0.00    +0.000 A 
ATOM     21  C   UNL     1       4.220   7.421  17.095  0.00  0.00    +0.000 A 
BRANCH  16  22
ATOM     22  O   UNL     1       6.110   6.174  16.142  0.00  0.00    +0.000 OA
BRANCH  22  23
ATOM     23  C   UNL     1       6.703   4.880  16.051  0.00  0.00    +0.000 C 
BRANCH  23  25
ATOM     24  C   UNL     1       6.012   3.953  13.811  0.00  0.00    +0.000 C 
ATOM     25  C   UNL     1       6.899   4.580  14.595  0.00  0.00    +0.000 C 
ENDBRANCH  23  25
ENDBRANCH  22  23
ENDBRANCH  16  22
ENDBRANCH  12  20
ENDBRANCH   1  14
BRANCH   2  26
ATOM     26  O   UNL     1      -0.432  10.218  17.964  0.00  0.00    +0.000 OA
ATOM     27  H   UNL     1      -0.041  11.006  17.528  0.00  0.00    +0.000 HD
ENDBRANCH   2  26
BRANCH   6  28
ATOM     28  O   UNL     1      -2.755  14.348  22.133  0.00  0.00    +0.000 OA
ATOM     29  H   UNL     1      -2.069  14.994  22.375  0.00  0.00    +0.000 HD
ENDBRANCH   6  28
TORSDOF 7
ENDMDL
MODEL 4
REMARK VINA RESULT:      -7.3      2.306      4.252
REMARK  Name = 
REMARK  7 active torsions:
REMARK  status: ('A' for Active; 'I' for Inactive)
REMARK    1  A    between atoms: C_2  and  C_3
REMARK    2  A    between atoms: C_3  and  O_4
REMARK    3  A    between atoms: O_4  and  C_5
REMARK    4  A    between atoms: C_9  and  C_10
REMARK    5  A    between atoms: N_12  and  C_13
REMARK    6  A    between atoms: C_14  and  O_15
REMARK    7  A    between atoms: C_19  and  O_20
REMARK                            x       y       z     vdW  Elec       q    Type
REMARK                         _______ _______ _______ _____ _____    ______ ____
ROOT
ATOM      1  C   UNL     1       2.008   8.218  19.098  0.00  0.00    +0.000 A 
ATOM      2  C   UNL     1       1.623   8.069  20.380  0.00  0.00    +0.000 A 
ATOM      3  C   UNL     1       0.798   9.091  21.027  0.00  0.00    +0.000 A 
ATOM      4  C   UNL     1       0.611   9.162  22.412  0.00  0.00    +0.000 A 
ATOM      5  C   UNL     1      -0.261  10.106  22.963  0.00  0.00    +0.000 A 
ATOM      6  C   UNL     1      -0.974  10.952  22.117  0.00  0.00    +0.000 A 
ATOM      7  C   UNL     1      -0.788  10.910  20.741  0.00  0.00    +0.000 A 
ATOM      8  C   UNL     1       0.136  10.010  20.218  0.00  0.00    +0.000 A 
ATOM      9  O   UNL     1       0.439  10.102  18.852  0.00  0.00    +0.000 OA
ATOM     10  C   UNL     1       1.591   9.475  18.397  0.00  0.00    +0.000 A 
ATOM     11  O   UNL     1       2.186   9.845  17.387  0.00  0.00    +0.000 OA
ENDROOT
BRANCH   1  14
ATOM     12  C   UNL     1       2.690   5.991  18.263  0.00  0.00    +0.000 C 
ATOM     13  O   UNL     1       1.768   5.355  18.772  0.00  0.00    +0.000 OA
ATOM     14  N   UNL     1       2.818   7.361  18.358  0.00  0.00    +0.000 N 
ATOM     15  H   UNL     1       3.422   7.836  17.690  0.00  0.00    +0.000 HD
BRANCH  12  20
ATOM     16  C   UNL     1       5.515   5.122  15.888  0.00  0.00    +0.000 A 
ATOM     17  C   UNL     1       5.693   3.771  16.206  0.00  0.00    +0.000 A 
ATOM     18  C   UNL     1       4.894   3.157  17.167  0.00  0.00    +0.000 A 
ATOM     19  C   UNL     1       3.899   3.892  17.805  0.00  0.00    +0.000 A 
ATOM     20  C   UNL     1       3.698   5.241  17.476  0.00  0.00    +0.000 A 
ATOM     21  C   UNL     1       4.508   5.861  16.515  0.00  0.00    +0.000 A 
BRANCH  16  22
ATOM     22  O   UNL     1       6.361   5.601  14.925  0.00  0.00    +0.000 OA
BRANCH  22  23
ATOM     23  C   UNL     1       6.877   4.637  14.008  0.00  0.00    +0.000 C 
BRANCH  23  25
ATOM     24  C   UNL     1       5.804   3.197  12.239  0.00  0.00    +0.000 C 
ATOM     25  C   UNL     1       5.716   4.100  13.225  0.00  0.00    +0.000 C 
ENDBRANCH  23  25
ENDBRANCH  22  23
ENDBRANCH  16  22
ENDBRANCH  12  20
ENDBRANCH   1  14
BRANCH   2  26
ATOM     26  O   UNL     1       1.921   7.006  21.204  0.00  0.00    +0.000 OA
ATOM     27  H   UNL     1       2.859   7.090  21.480  0.00  0.00    +0.000 HD
ENDBRANCH   2  26
BRANCH   6  28
ATOM     28  O   UNL     1      -1.861  11.860  22.614  0.00  0.00    +0.000 OA
ATOM     29  H   UNL     1      -2.542  12.029  21.941  0.00  0.00    +0.000 HD
ENDBRANCH   6  28
TORSDOF 7
ENDMDL
MODEL 5
REMARK VINA RESULT:      -7.3      2.772      4.424
REMARK  Name = 
REMARK  7 active torsions:
REMARK  status: ('A' for Active; 'I' for Inactive)
REMARK    1  A    between atoms: C_2  and  C_3
REMARK    2  A    between atoms: C_3  and  O_4
REMARK    3  A    between atoms: O_4  and  C_5
REMARK    4  A    between atoms: C_9  and  C_10
REMARK    5  A    between atoms: N_12  and  C_13
REMARK    6  A    between atoms: C_14  and  O_15
REMARK    7  A    between atoms: C_19  and  O_20
REMARK                            x       y       z     vdW  Elec       q    Type
REMARK                         _______ _______ _______ _____ _____    ______ ____
ROOT
ATOM      1  C   UNL     1       2.472   7.334  18.811  0.00  0.00    +0.000 A 
ATOM      2  C   UNL     1       2.045   8.599  18.633  0.00  0.00    +0.000 A 
ATOM      3  C   UNL     1       1.122   9.207  19.593  0.00  0.00    +0.000 A 
ATOM      4  C   UNL     1       0.407  10.382  19.331  0.00  0.00    +0.000 A 
ATOM      5  C   UNL     1      -0.389  10.964  20.321  0.00  0.00    +0.000 A 
ATOM      6  C   UNL     1      -0.435  10.386  21.588  0.00  0.00    +0.000 A 
ATOM      7  C   UNL     1       0.252   9.210  21.863  0.00  0.00    +0.000 A 
ATOM      8  C   UNL     1       0.984   8.609  20.842  0.00  0.00    +0.000 A 
ATOM      9  O   UNL     1       1.524   7.338  21.085  0.00  0.00    +0.000 OA
ATOM     10  C   UNL     1       1.935   6.587  19.993  0.00  0.00    +0.000 A 
ATOM     11  O   UNL     1       1.983   5.358  20.021  0.00  0.00    +0.000 OA
ENDROOT
BRANCH   1  14
ATOM     12  C   UNL     1       4.498   5.997  18.330  0.00  0.00    +0.000 C 
ATOM     13  O   UNL     1       4.924   5.957  19.483  0.00  0.00    +0.000 OA
ATOM     14  N   UNL     1       3.313   6.606  17.974  0.00  0.00    +0.000 N 
ATOM     15  H   UNL     1       2.893   6.356  17.080  0.00  0.00    +0.000 HD
BRANCH  12  20
ATOM     16  C   UNL     1       5.602   4.520  15.016  0.00  0.00    +0.000 A 
ATOM     17  C   UNL     1       6.939   4.234  15.312  0.00  0.00    +0.000 A 
ATOM     18  C   UNL     1       7.461   4.506  16.574  0.00  0.00    +0.000 A 
ATOM     19  C   UNL     1       6.639   5.054  17.554  0.00  0.00    +0.000 A 
ATOM     20  C   UNL     1       5.291   5.323  17.275  0.00  0.00    +0.000 A 
ATOM     21  C   UNL     1       4.767   5.057  16.002  0.00  0.00    +0.000 A 
BRANCH  16  22
ATOM     22  O   UNL     1       5.213   4.201  13.743  0.00  0.00    +0.000 OA
BRANCH  22  23
ATOM     23  C   UNL     1       6.193   3.553  12.934  0.00  0.00    +0.000 C 
BRANCH  23  25
ATOM     24  C   UNL     1       4.203   3.215  11.425  0.00  0.00    +0.000 C 
ATOM     25  C   UNL     1       5.482   2.977  11.746  0.00  0.00    +0.000 C 
ENDBRANCH  23  25
ENDBRANCH  22  23
ENDBRANCH  16  22
ENDBRANCH  12  20
ENDBRANCH   1  14
BRANCH   2  26
ATOM     26  O   UNL     1       2.395   9.443  17.603  0.00  0.00    +0.000 OA
ATOM     27  H   UNL     1       3.275   9.163  17.268  0.00  0.00    +0.000 HD
ENDBRANCH   2  26
BRANCH   6  28
ATOM     28  O   UNL     1      -1.170  10.944  22.590  0.00  0.00    +0.000 OA
ATOM     29  H   UNL     1      -1.540  10.231  23.138  0.00  0.00    +0.000 HD
ENDBRANCH   6  28
TORSDOF 7
ENDMDL
MODEL 6
REMARK VINA RESULT:      -7.3      2.067      3.914
REMARK  Name = 
REMARK  7 active torsions:
REMARK  status: ('A' for Active; 'I' for Inactive)
REMARK    1  A    between atoms: C_2  and  C_3
REMARK    2  A    between atoms: C_3  and  O_4
REMARK    3  A    between atoms: O_4  and  C_5
REMARK    4  A    between atoms: C_9  and  C_10
REMARK    5  A    between atoms: N_12  and  C_13
REMARK    6  A    between atoms: C_14  and  O_15
REMARK    7  A    between atoms: C_19  and  O_20
REMARK                            x       y       z     vdW  Elec       q    Type
REMARK                         _______ _______ _______ _____ _____    ______ ____
ROOT
ATOM      1  C   UNL     1       1.547   8.561  19.638  0.00  0.00    +0.000 A 
ATOM      2  C   UNL     1       1.112   9.031  20.822  0.00  0.00    +0.000 A 
ATOM      3  C   UNL     1       0.325  10.264  20.883  0.00  0.00    +0.000 A 
ATOM      4  C   UNL     1       0.097  10.971  22.069  0.00  0.00    +0.000 A 
ATOM      5  C   UNL     1      -0.739  12.091  22.078  0.00  0.00    +0.000 A 
ATOM      6  C   UNL     1      -1.377  12.476  20.901  0.00  0.00    +0.000 A 
ATOM      7  C   UNL     1      -1.149  11.800  19.709  0.00  0.00    +0.000 A 
ATOM      8  C   UNL     1      -0.259  10.729  19.708  0.00  0.00    +0.000 A 
ATOM      9  O   UNL     1       0.094  10.172  18.471  0.00  0.00    +0.000 OA
ATOM     10  C   UNL     1       1.223   9.367  18.418  0.00  0.00    +0.000 A 
ATOM     11  O   UNL     1       1.871   9.211  17.384  0.00  0.00    +0.000 OA
ENDROOT
BRANCH   1  14
ATOM     12  C   UNL     1       2.148   6.184  19.976  0.00  0.00    +0.000 C 
ATOM     13  O   UNL     1       1.192   5.892  20.692  0.00  0.00    +0.000 OA
ATOM     14  N   UNL     1       2.332   7.432  19.418  0.00  0.00    +0.000 N 
ATOM     15  H   UNL     1       2.967   7.517  18.626  0.00  0.00    +0.000 HD
BRANCH  12  20
ATOM     16  C   UNL     1       5.372   4.366  19.153  0.00  0.00    +0.000 A 
ATOM     17  C   UNL     1       4.953   3.041  19.320  0.00  0.00    +0.000 A 
ATOM     18  C   UNL     1       3.640   2.753  19.680  0.00  0.00    +0.000 A 
ATOM     19  C   UNL     1       2.732   3.792  19.860  0.00  0.00    +0.000 A 
ATOM     20  C   UNL     1       3.136   5.122  19.672  0.00  0.00    +0.000 A 
ATOM     21  C   UNL     1       4.461   5.414  19.318  0.00  0.00    +0.000 A 
BRANCH  16  22
ATOM     22  O   UNL     1       6.685   4.513  18.795  0.00  0.00    +0.000 OA
BRANCH  22  23
ATOM     23  C   UNL     1       7.276   5.779  19.087  0.00  0.00    +0.000 C 
BRANCH  23  25
ATOM     24  C   UNL     1       7.691   7.777  17.609  0.00  0.00    +0.000 C 
ATOM     25  C   UNL     1       7.552   6.456  17.778  0.00  0.00    +0.000 C 
ENDBRANCH  23  25
ENDBRANCH  22  23
ENDBRANCH  16  22
ENDBRANCH  12  20
ENDBRANCH   1  14
BRANCH   2  26
ATOM     26  O   UNL     1       1.324   8.458  22.057  0.00  0.00    +0.000 OA
ATOM     27  H   UNL     1       2.152   7.933  22.009  0.00  0.00    +0.000 HD
ENDBRANCH   2  26
BRANCH   6  28
ATOM     28  O   UNL     1      -2.228  13.541  20.878  0.00  0.00    +0.000 OA
ATOM     29  H   UNL     1      -2.633  13.595  19.995  0.00  0.00    +0.000 HD
ENDBRANCH   6  28
TORSDOF 7
ENDMDL
MODEL 7
REMARK VINA RESULT:      -7.2      1.958      8.564
REMARK  Name = 
REMARK  7 active torsions:
REMARK  status: ('A' for Active; 'I' for Inactive)
REMARK    1  A    between atoms: C_2  and  C_3
REMARK    2  A    between atoms: C_3  and  O_4
REMARK    3  A    between atoms: O_4  and  C_5
REMARK    4  A    between atoms: C_9  and  C_10
REMARK    5  A    between atoms: N_12  and  C_13
REMARK    6  A    between atoms: C_14  and  O_15
REMARK    7  A    between atoms: C_19  and  O_20
REMARK                            x       y       z     vdW  Elec       q    Type
REMARK                         _______ _______ _______ _____ _____    ______ ____
ROOT
ATOM      1  C   UNL     1       2.725   6.740  19.298  0.00  0.00    +0.000 A 
ATOM      2  C   UNL     1       3.388   7.148  18.198  0.00  0.00    +0.000 A 
ATOM      3  C   UNL     1       4.146   6.188  17.395  0.00  0.00    +0.000 A 
ATOM      4  C   UNL     1       5.089   6.568  16.432  0.00  0.00    +0.000 A 
ATOM      5  C   UNL     1       5.714   5.607  15.633  0.00  0.00    +0.000 A 
ATOM      6  C   UNL     1       5.362   4.267  15.775  0.00  0.00    +0.000 A 
ATOM      7  C   UNL     1       4.443   3.867  16.737  0.00  0.00    +0.000 A 
ATOM      8  C   UNL     1       3.883   4.833  17.569  0.00  0.00    +0.000 A 
ATOM      9  O   UNL     1       3.096   4.394  18.644  0.00  0.00    +0.000 OA
ATOM     10  C   UNL     1       2.835   5.293  19.668  0.00  0.00    +0.000 A 
ATOM     11  O   UNL     1       2.577   4.927  20.814  0.00  0.00    +0.000 OA
ENDROOT
BRANCH   1  14
ATOM     12  C   UNL     1       1.208   8.615  19.854  0.00  0.00    +0.000 C 
ATOM     13  O   UNL     1       0.988   8.972  18.698  0.00  0.00    +0.000 OA
ATOM     14  N   UNL     1       1.996   7.531  20.181  0.00  0.00    +0.000 N 
ATOM     15  H   UNL     1       1.901   7.131  21.113  0.00  0.00    +0.000 HD
BRANCH  12  20
ATOM     16  C   UNL     1      -0.930  11.088  21.773  0.00  0.00    +0.000 A 
ATOM     17  C   UNL     1      -0.757  10.601  23.074  0.00  0.00    +0.000 A 
ATOM     18  C   UNL     1       0.054   9.496  23.315  0.00  0.00    +0.000 A 
ATOM     19  C   UNL     1       0.711   8.880  22.254  0.00  0.00    +0.000 A 
ATOM     20  C   UNL     1       0.563   9.376  20.950  0.00  0.00    +0.000 A 
ATOM     21  C   UNL     1      -0.261  10.483  20.705  0.00  0.00    +0.000 A 
BRANCH  16  22
ATOM     22  O   UNL     1      -1.749  12.181  21.673  0.00  0.00    +0.000 OA
BRANCH  22  23
ATOM     23  C   UNL     1      -2.072  12.835  22.899  0.00  0.00    +0.000 C 
BRANCH  23  25
ATOM     24  C   UNL     1      -4.093  12.473  24.361  0.00  0.00    +0.000 C 
ATOM     25  C   UNL     1      -3.533  12.615  23.152  0.00  0.00    +0.000 C 
ENDBRANCH  23  25
ENDBRANCH  22  23
ENDBRANCH  16  22
ENDBRANCH  12  20
ENDBRANCH   1  14
BRANCH   2  26
ATOM     26  O   UNL     1       3.437   8.433  17.703  0.00  0.00    +0.000 OA
ATOM     27  H   UNL     1       4.370   8.633  17.471  0.00  0.00    +0.000 HD
ENDBRANCH   2  26
BRANCH   6  28
ATOM     28  O   UNL     1       5.922   3.305  14.989  0.00  0.00    +0.000 OA
ATOM     29  H   UNL     1       6.427   3.738  14.280  0.00  0.00    +0.000 HD
ENDBRANCH   6  28
TORSDOF 7
ENDMDL
MODEL 8
REMARK VINA RESULT:      -7.2      2.223      8.233
REMARK  Name = 
REMARK  7 active torsions:
REMARK  status: ('A' for Active; 'I' for Inactive)
REMARK    1  A    between atoms: C_2  and  C_3
REMARK    2  A    between atoms: C_3  and  O_4
REMARK    3  A    between atoms: O_4  and  C_5
REMARK    4  A    between atoms: C_9  and  C_10
REMARK    5  A    between atoms: N_12  and  C_13
REMARK    6  A    between atoms: C_14  and  O_15
REMARK    7  A    between atoms: C_19  and  O_20
REMARK                            x       y       z     vdW  Elec       q    Type
REMARK                         _______ _______ _______ _____ _____    ______ ____
ROOT
ATOM      1  C   UNL     1       2.394   7.052  19.170  0.00  0.00    +0.000 A 
ATOM      2  C   UNL     1       2.072   6.045  20.004  0.00  0.00    +0.000 A 
ATOM      3  C   UNL     1       2.813   4.783  19.958  0.00  0.00    +0.000 A 
ATOM      4  C   UNL     1       2.360   3.605  20.565  0.00  0.00    +0.000 A 
ATOM      5  C   UNL     1       3.156   2.456  20.564  0.00  0.00    +0.000 A 
ATOM      6  C   UNL     1       4.424   2.503  19.989  0.00  0.00    +0.000 A 
ATOM      7  C   UNL     1       4.884   3.656  19.365  0.00  0.00    +0.000 A 
ATOM      8  C   UNL     1       4.048   4.769  19.317  0.00  0.00    +0.000 A 
ATOM      9  O   UNL     1       4.455   5.859  18.535  0.00  0.00    +0.000 OA
ATOM     10  C   UNL     1       3.499   6.804  18.189  0.00  0.00    +0.000 A 
ATOM     11  O   UNL     1       3.604   7.509  17.186  0.00  0.00    +0.000 OA
ENDROOT
BRANCH   1  14
ATOM     12  C   UNL     1       1.300   9.065  20.106  0.00  0.00    +0.000 C 
ATOM     13  O   UNL     1       1.463   8.781  21.292  0.00  0.00    +0.000 OA
ATOM     14  N   UNL     1       1.766   8.289  19.065  0.00  0.00    +0.000 N 
ATOM     15  H   UNL     1       1.849   8.719  18.145  0.00  0.00    +0.000 HD
BRANCH  12  20
ATOM     16  C   UNL     1      -0.994  11.625  18.507  0.00  0.00    +0.000 A 
ATOM     17  C   UNL     1      -0.833  12.688  19.403  0.00  0.00    +0.000 A 
ATOM     18  C   UNL     1       0.020  12.570  20.497  0.00  0.00    +0.000 A 
ATOM     19  C   UNL     1       0.730  11.390  20.692  0.00  0.00    +0.000 A 
ATOM     20  C   UNL     1       0.594  10.327  19.787  0.00  0.00    +0.000 A 
ATOM     21  C   UNL     1      -0.271  10.442  18.689  0.00  0.00    +0.000 A 
BRANCH  16  22
ATOM     22  O   UNL     1      -1.856  11.870  17.473  0.00  0.00    +0.000 OA
BRANCH  22  23
ATOM     23  C   UNL     1      -3.121  11.214  17.544  0.00  0.00    +0.000 C 
BRANCH  23  25
ATOM     24  C   UNL     1      -2.888  10.350  15.188  0.00  0.00    +0.000 C 
ATOM     25  C   UNL     1      -3.132  10.148  16.490  0.00  0.00    +0.000 C 
ENDBRANCH  23  25
ENDBRANCH  22  23
ENDBRANCH  16  22
ENDBRANCH  12  20
ENDBRANCH   1  14
BRANCH   2  26
ATOM     26  O   UNL     1       1.077   6.059  20.957  0.00  0.00    +0.000 OA
ATOM     27  H   UNL     1       1.326   5.425  21.664  0.00  0.00    +0.000 HD
ENDBRANCH   2  26
BRANCH   6  28
ATOM     28  O   UNL     1       5.243   1.414  20.001  0.00  0.00    +0.000 OA
ATOM     29  H   UNL     1       5.577   1.267  19.099  0.00  0.00    +0.000 HD
ENDBRANCH   6  28
TORSDOF 7
ENDMDL
MODEL 9
REMARK VINA RESULT:      -7.1      2.163      3.904
REMARK  Name = 
REMARK  7 active torsions:
REMARK  status: ('A' for Active; 'I' for Inactive)
REMARK    1  A    between atoms: C_2  and  C_3
REMARK    2  A    between atoms: C_3  and  O_4
REMARK    3  A    between atoms: O_4  and  C_5
REMARK    4  A    between atoms: C_9  and  C_10
REMARK    5  A    between atoms: N_12  and  C_13
REMARK    6  A    between atoms: C_14  and  O_15
REMARK    7  A    between atoms: C_19  and  O_20
REMARK                            x       y       z     vdW  Elec       q    Type
REMARK                         _______ _______ _______ _____ _____    ______ ____
ROOT
ATOM      1  C   UNL     1       1.852   8.549  19.358  0.00  0.00    +0.000 A 
ATOM      2  C   UNL     1       1.392   8.622  20.621  0.00  0.00    +0.000 A 
ATOM      3  C   UNL     1       0.429   9.659  20.997  0.00  0.00    +0.000 A 
ATOM      4  C   UNL     1       0.137   9.989  22.326  0.00  0.00    +0.000 A 
ATOM      5  C   UNL     1      -0.859  10.924  22.622  0.00  0.00    +0.000 A 
ATOM      6  C   UNL     1      -1.587  11.498  21.583  0.00  0.00    +0.000 A 
ATOM      7  C   UNL     1      -1.300  11.199  20.257  0.00  0.00    +0.000 A 
ATOM      8  C   UNL     1      -0.258  10.317  19.982  0.00  0.00    +0.000 A 
ATOM      9  O   UNL     1       0.132  10.163  18.644  0.00  0.00    +0.000 OA
ATOM     10  C   UNL     1       1.368   9.585  18.389  0.00  0.00    +0.000 A 
ATOM     11  O   UNL     1       1.997   9.805  17.355  0.00  0.00    +0.000 OA
ENDROOT
BRANCH   1  14
ATOM     12  C   UNL     1       2.807   6.287  19.048  0.00  0.00    +0.000 C 
ATOM     13  O   UNL     1       1.920   5.672  19.638  0.00  0.00    +0.000 OA
ATOM     14  N   UNL     1       2.791   7.653  18.856  0.00  0.00    +0.000 N 
ATOM     15  H   UNL     1       3.390   8.044  18.130  0.00  0.00    +0.000 HD
BRANCH  12  20
ATOM     16  C   UNL     1       5.050   4.360  16.675  0.00  0.00    +0.000 A 
ATOM     17  C   UNL     1       6.193   4.232  17.472  0.00  0.00    +0.000 A 
ATOM     18  C   UNL     1       6.220   4.754  18.763  0.00  0.00    +0.000 A 
ATOM     19  C   UNL     1       5.094   5.395  19.269  0.00  0.00    +0.000 A 
ATOM     20  C   UNL     1       3.935   5.507  18.487  0.00  0.00    +0.000 A 
ATOM     21  C   UNL     1       3.910   4.990  17.184  0.00  0.00    +0.000 A 
BRANCH  16  22
ATOM     22  O   UNL     1       5.152   3.801  15.430  0.00  0.00    +0.000 OA
BRANCH  22  23
ATOM     23  C   UNL     1       5.736   4.622  14.421  0.00  0.00    +0.000 C 
BRANCH  23  25
ATOM     24  C   UNL     1       5.522   3.371  12.244  0.00  0.00    +0.000 C 
ATOM     25  C   UNL     1       6.224   3.715  13.332  0.00  0.00    +0.000 C 
ENDBRANCH  23  25
ENDBRANCH  22  23
ENDBRANCH  16  22
ENDBRANCH  12  20
ENDBRANCH   1  14
BRANCH   2  26
ATOM     26  O   UNL     1       1.730   7.788  21.664  0.00  0.00    +0.000 OA
ATOM     27  H   UNL     1       2.710   7.724  21.695  0.00  0.00    +0.000 HD
ENDBRANCH   2  26
BRANCH   6  28
ATOM     28  O   UNL     1      -2.590  12.387  21.833  0.00  0.00    +0.000 OA
ATOM     29  H   UNL     1      -2.240  13.100  22.394  0.00  0.00    +0.000 HD
ENDBRANCH   6  28
TORSDOF 7
ENDMDL
