MODEL 1
REMARK VINA RESULT:      -6.8      0.000      0.000
REMARK  Name = 
REMARK  4 active torsions:
REMARK  status: ('A' for Active; 'I' for Inactive)
REMARK    1  A    between atoms: C_1  and  N_2
REMARK    2  A    between atoms: C_6  and  C_7
REMARK    3  A    between atoms: N_13  and  C_14
REMARK    4  A    between atoms: N_23  and  C_24
REMARK                            x       y       z     vdW  Elec       q    Type
REMARK                         _______ _______ _______ _____ _____    ______ ____
ROOT
ATOM      1  C   UNL     1       0.393   7.821  21.560  0.00  0.00    +0.000 C 
ATOM      2  N   UNL     1       1.263   7.736  20.402  0.00  0.00    +0.000 N 
ATOM      3  C   UNL     1       1.758   6.477  20.047  0.00  0.00    +0.000 A 
ATOM      4  O   UNL     1       1.423   5.445  20.626  0.00  0.00    +0.000 OA
ATOM      5  C   UNL     1       2.688   6.501  18.931  0.00  0.00    +0.000 A 
ATOM      6  C   UNL     1       3.472   5.490  18.361  0.00  0.00    +0.000 A 
ATOM      7  N   UNL     1       4.154   6.084  17.273  0.00  0.00    +0.000 N 
ATOM      8  C   UNL     1       3.773   7.416  17.205  0.00  0.00    +0.000 A 
ATOM      9  C   UNL     1       2.905   7.691  18.226  0.00  0.00    +0.000 A 
ATOM     10  N   UNL     1       2.300   8.886  18.574  0.00  0.00    +0.000 N 
ATOM     11  C   UNL     1       2.486  10.126  17.843  0.00  0.00    +0.000 C 
ATOM     12  C   UNL     1       1.465   8.934  19.696  0.00  0.00    +0.000 A 
ATOM     13  O   UNL     1       0.920   9.984  20.048  0.00  0.00    +0.000 OA
ENDROOT
BRANCH   7  14
ATOM     14  C   UNL     1       5.088   5.492  16.358  0.00  0.00    +0.000 A 
ATOM     15  C   UNL     1       4.649   4.685  15.299  0.00  0.00    +0.000 A 
ATOM     16  C   UNL     1       5.546   4.267  14.309  0.00  0.00    +0.000 A 
ATOM     17  C   UNL     1       6.897   4.585  14.407  0.00  0.00    +0.000 A 
ATOM     18  C   UNL     1       7.359   5.306  15.506  0.00  0.00    +0.000 A 
ATOM     19  C   UNL     1       6.461   5.760  16.469  0.00  0.00    +0.000 A 
ATOM     20  F   UNL     1       6.952   6.517  17.463  0.00  0.00    +0.000 F 
ENDBRANCH   7  14
BRANCH   6  21
ATOM     21  C   UNL     1       3.560   4.061  18.757  0.00  0.00    +0.000 A 
ATOM     22  C   UNL     1       2.768   3.067  18.160  0.00  0.00    +0.000 A 
ATOM     23  C   UNL     1       2.974   1.711  18.442  0.00  0.00    +0.000 A 
ATOM     24  C   UNL     1       3.899   1.332  19.411  0.00  0.00    +0.000 A 
ATOM     25  C   UNL     1       4.628   2.307  20.082  0.00  0.00    +0.000 A 
ATOM     26  C   UNL     1       4.483   3.653  19.733  0.00  0.00    +0.000 A 
ENDBRANCH   6  21
TORSDOF 2
ENDMDL
MODEL 2
REMARK VINA RESULT:      -6.7      1.774      2.284
REMARK  Name = 
REMARK  4 active torsions:
REMARK  status: ('A' for Active; 'I' for Inactive)
REMARK    1  A    between atoms: C_1  and  N_2
REMARK    2  A    between atoms: C_6  and  C_7
REMARK    3  A    between atoms: N_13  and  C_14
REMARK    4  A    between atoms: N_23  and  C_24
REMARK                            x       y       z     vdW  Elec       q    Type
REMARK                         _______ _______ _______ _____ _____    ______ ____
ROOT
ATOM      1  C   UNL     1      -0.437   9.983  21.726  0.00  0.00    +0.000 C 
ATOM      2  N   UNL     1       0.463   9.506  20.693  0.00  0.00    +0.000 N 
ATOM      3  C   UNL     1       0.708   8.131  20.625  0.00  0.00    +0.000 A 
ATOM      4  O   UNL     1       0.136   7.317  21.346  0.00  0.00    +0.000 OA
ATOM      5  C   UNL     1       1.688   7.755  19.618  0.00  0.00    +0.000 A 
ATOM      6  C   UNL     1       2.279   6.521  19.321  0.00  0.00    +0.000 A 
ATOM      7  N   UNL     1       3.131   6.747  18.215  0.00  0.00    +0.000 N 
ATOM      8  C   UNL     1       3.036   8.087  17.867  0.00  0.00    +0.000 A 
ATOM      9  C   UNL     1       2.185   8.719  18.731  0.00  0.00    +0.000 A 
ATOM     10  N   UNL     1       1.818  10.052  18.795  0.00  0.00    +0.000 N 
ATOM     11  C   UNL     1       2.298  11.063  17.871  0.00  0.00    +0.000 C 
ATOM     12  C   UNL     1       0.947  10.479  19.803  0.00  0.00    +0.000 A 
ATOM     13  O   UNL     1       0.610  11.662  19.903  0.00  0.00    +0.000 OA
ENDROOT
BRANCH   7  14
ATOM     14  C   UNL     1       3.976   5.818  17.518  0.00  0.00    +0.000 A 
ATOM     15  C   UNL     1       3.529   4.526  17.210  0.00  0.00    +0.000 A 
ATOM     16  C   UNL     1       4.285   3.696  16.374  0.00  0.00    +0.000 A 
ATOM     17  C   UNL     1       5.523   4.118  15.900  0.00  0.00    +0.000 A 
ATOM     18  C   UNL     1       6.019   5.365  16.278  0.00  0.00    +0.000 A 
ATOM     19  C   UNL     1       5.248   6.209  17.074  0.00  0.00    +0.000 A 
ATOM     20  F   UNL     1       5.744   7.428  17.340  0.00  0.00    +0.000 F 
ENDBRANCH   7  14
BRANCH   6  21
ATOM     21  C   UNL     1       2.049   5.209  19.979  0.00  0.00    +0.000 A 
ATOM     22  C   UNL     1       2.709   4.838  21.162  0.00  0.00    +0.000 A 
ATOM     23  C   UNL     1       2.368   3.663  21.842  0.00  0.00    +0.000 A 
ATOM     24  C   UNL     1       1.439   2.783  21.294  0.00  0.00    +0.000 A 
ATOM     25  C   UNL     1       0.841   3.087  20.076  0.00  0.00    +0.000 A 
ATOM     26  C   UNL     1       1.120   4.303  19.445  0.00  0.00    +0.000 A 
ENDBRANCH   6  21
TORSDOF 2
ENDMDL
MODEL 3
REMARK VINA RESULT:      -6.4      2.050      2.533
REMARK  Name = 
REMARK  4 active torsions:
REMARK  status: ('A' for Active; 'I' for Inactive)
REMARK    1  A    between atoms: C_1  and  N_2
REMARK    2  A    between atoms: C_6  and  C_7
REMARK    3  A    between atoms: N_13  and  C_14
REMARK    4  A    between atoms: N_23  and  C_24
REMARK                            x       y       z     vdW  Elec       q    Type
REMARK                         _______ _______ _______ _____ _____    ______ ____
ROOT
ATOM      1  C   UNL     1      -0.401  10.054  21.804  0.00  0.00    +0.000 C 
ATOM      2  N   UNL     1       0.473   9.554  20.760  0.00  0.00    +0.000 N 
ATOM      3  C   UNL     1       0.723   8.178  20.722  0.00  0.00    +0.000 A 
ATOM      4  O   UNL     1       0.173   7.381  21.480  0.00  0.00    +0.000 OA
ATOM      5  C   UNL     1       1.677   7.779  19.699  0.00  0.00    +0.000 A 
ATOM      6  C   UNL     1       2.265   6.540  19.420  0.00  0.00    +0.000 A 
ATOM      7  N   UNL     1       3.087   6.740  18.285  0.00  0.00    +0.000 N 
ATOM      8  C   UNL     1       2.976   8.070  17.905  0.00  0.00    +0.000 A 
ATOM      9  C   UNL     1       2.146   8.721  18.775  0.00  0.00    +0.000 A 
ATOM     10  N   UNL     1       1.775  10.054  18.814  0.00  0.00    +0.000 N 
ATOM     11  C   UNL     1       2.226  11.042  17.851  0.00  0.00    +0.000 C 
ATOM     12  C   UNL     1       0.930  10.504  19.833  0.00  0.00    +0.000 A 
ATOM     13  O   UNL     1       0.590  11.688  19.910  0.00  0.00    +0.000 OA
ENDROOT
BRANCH   7  14
ATOM     14  C   UNL     1       3.916   5.796  17.590  0.00  0.00    +0.000 A 
ATOM     15  C   UNL     1       5.294   6.013  17.447  0.00  0.00    +0.000 A 
ATOM     16  C   UNL     1       6.119   5.006  16.934  0.00  0.00    +0.000 A 
ATOM     17  C   UNL     1       5.570   3.806  16.491  0.00  0.00    +0.000 A 
ATOM     18  C   UNL     1       4.190   3.618  16.542  0.00  0.00    +0.000 A 
ATOM     19  C   UNL     1       3.372   4.603  17.092  0.00  0.00    +0.000 A 
ATOM     20  F   UNL     1       2.061   4.333  17.186  0.00  0.00    +0.000 F 
ENDBRANCH   7  14
BRANCH   6  21
ATOM     21  C   UNL     1       2.059   5.245  20.117  0.00  0.00    +0.000 A 
ATOM     22  C   UNL     1       0.849   4.535  20.037  0.00  0.00    +0.000 A 
ATOM     23  C   UNL     1       0.728   3.250  20.578  0.00  0.00    +0.000 A 
ATOM     24  C   UNL     1       1.778   2.696  21.306  0.00  0.00    +0.000 A 
ATOM     25  C   UNL     1       2.952   3.421  21.476  0.00  0.00    +0.000 A 
ATOM     26  C   UNL     1       3.100   4.667  20.859  0.00  0.00    +0.000 A 
ENDBRANCH   6  21
TORSDOF 2
ENDMDL
MODEL 4
REMARK VINA RESULT:      -6.3      1.794      2.041
REMARK  Name = 
REMARK  4 active torsions:
REMARK  status: ('A' for Active; 'I' for Inactive)
REMARK    1  A    between atoms: C_1  and  N_2
REMARK    2  A    between atoms: C_6  and  C_7
REMARK    3  A    between atoms: N_13  and  C_14
REMARK    4  A    between atoms: N_23  and  C_24
REMARK                            x       y       z     vdW  Elec       q    Type
REMARK                         _______ _______ _______ _____ _____    ______ ____
ROOT
ATOM      1  C   UNL     1      -0.605   9.888  21.373  0.00  0.00    +0.000 C 
ATOM      2  N   UNL     1       0.404   9.410  20.446  0.00  0.00    +0.000 N 
ATOM      3  C   UNL     1       0.661   8.036  20.412  0.00  0.00    +0.000 A 
ATOM      4  O   UNL     1       0.016   7.223  21.071  0.00  0.00    +0.000 OA
ATOM      5  C   UNL     1       1.745   7.660  19.519  0.00  0.00    +0.000 A 
ATOM      6  C   UNL     1       2.370   6.427  19.295  0.00  0.00    +0.000 A 
ATOM      7  N   UNL     1       3.337   6.652  18.286  0.00  0.00    +0.000 N 
ATOM      8  C   UNL     1       3.275   7.990  17.924  0.00  0.00    +0.000 A 
ATOM      9  C   UNL     1       2.332   8.622  18.687  0.00  0.00    +0.000 A 
ATOM     10  N   UNL     1       1.955   9.953  18.704  0.00  0.00    +0.000 N 
ATOM     11  C   UNL     1       2.529  10.963  17.833  0.00  0.00    +0.000 C 
ATOM     12  C   UNL     1       0.979  10.381  19.609  0.00  0.00    +0.000 A 
ATOM     13  O   UNL     1       0.627  11.563  19.666  0.00  0.00    +0.000 OA
ENDROOT
BRANCH   7  14
ATOM     14  C   UNL     1       4.256   5.724  17.690  0.00  0.00    +0.000 A 
ATOM     15  C   UNL     1       4.104   5.311  16.359  0.00  0.00    +0.000 A 
ATOM     16  C   UNL     1       5.103   4.556  15.734  0.00  0.00    +0.000 A 
ATOM     17  C   UNL     1       6.223   4.143  16.451  0.00  0.00    +0.000 A 
ATOM     18  C   UNL     1       6.337   4.469  17.801  0.00  0.00    +0.000 A 
ATOM     19  C   UNL     1       5.365   5.257  18.412  0.00  0.00    +0.000 A 
ATOM     20  F   UNL     1       5.568   5.604  19.693  0.00  0.00    +0.000 F 
ENDBRANCH   7  14
BRANCH   6  21
ATOM     21  C   UNL     1       2.076   5.118  19.930  0.00  0.00    +0.000 A 
ATOM     22  C   UNL     1       1.379   4.099  19.260  0.00  0.00    +0.000 A 
ATOM     23  C   UNL     1       1.244   2.824  19.822  0.00  0.00    +0.000 A 
ATOM     24  C   UNL     1       1.705   2.577  21.111  0.00  0.00    +0.000 A 
ATOM     25  C   UNL     1       2.316   3.598  21.829  0.00  0.00    +0.000 A 
ATOM     26  C   UNL     1       2.528   4.844  21.230  0.00  0.00    +0.000 A 
ENDBRANCH   6  21
TORSDOF 2
ENDMDL
MODEL 5
REMARK VINA RESULT:      -6.3      8.055     10.215
REMARK  Name = 
REMARK  4 active torsions:
REMARK  status: ('A' for Active; 'I' for Inactive)
REMARK    1  A    between atoms: C_1  and  N_2
REMARK    2  A    between atoms: C_6  and  C_7
REMARK    3  A    between atoms: N_13  and  C_14
REMARK    4  A    between atoms: N_23  and  C_24
REMARK                            x       y       z     vdW  Elec       q    Type
REMARK                         _______ _______ _______ _____ _____    ______ ____
ROOT
ATOM      1  C   UNL     1      -4.452  14.836  24.040  0.00  0.00    +0.000 C 
ATOM      2  N   UNL     1      -4.676  14.039  22.848  0.00  0.00    +0.000 N 
ATOM      3  C   UNL     1      -3.555  13.619  22.124  0.00  0.00    +0.000 A 
ATOM      4  O   UNL     1      -2.404  13.830  22.500  0.00  0.00    +0.000 OA
ATOM      5  C   UNL     1      -3.877  12.903  20.900  0.00  0.00    +0.000 A 
ATOM      6  C   UNL     1      -3.060  12.431  19.866  0.00  0.00    +0.000 A 
ATOM      7  N   UNL     1      -3.919  11.776  18.952  0.00  0.00    +0.000 N 
ATOM      8  C   UNL     1      -5.213  11.859  19.445  0.00  0.00    +0.000 A 
ATOM      9  C   UNL     1      -5.207  12.569  20.615  0.00  0.00    +0.000 A 
ATOM     10  N   UNL     1      -6.261  12.934  21.434  0.00  0.00    +0.000 N 
ATOM     11  C   UNL     1      -7.643  12.575  21.173  0.00  0.00    +0.000 C 
ATOM     12  C   UNL     1      -6.012  13.700  22.576  0.00  0.00    +0.000 A 
ATOM     13  O   UNL     1      -6.927  14.059  23.323  0.00  0.00    +0.000 OA
ENDROOT
BRANCH   7  14
ATOM     14  C   UNL     1      -3.596  11.121  17.716  0.00  0.00    +0.000 A 
ATOM     15  C   UNL     1      -4.154  11.548  16.503  0.00  0.00    +0.000 A 
ATOM     16  C   UNL     1      -3.694  11.026  15.289  0.00  0.00    +0.000 A 
ATOM     17  C   UNL     1      -2.730  10.023  15.277  0.00  0.00    +0.000 A 
ATOM     18  C   UNL     1      -2.238   9.524  16.481  0.00  0.00    +0.000 A 
ATOM     19  C   UNL     1      -2.663  10.073  17.689  0.00  0.00    +0.000 A 
ATOM     20  F   UNL     1      -2.096   9.606  18.812  0.00  0.00    +0.000 F 
ENDBRANCH   7  14
BRANCH   6  21
ATOM     21  C   UNL     1      -1.584  12.534  19.739  0.00  0.00    +0.000 A 
ATOM     22  C   UNL     1      -0.709  11.772  20.531  0.00  0.00    +0.000 A 
ATOM     23  C   UNL     1       0.670  11.774  20.292  0.00  0.00    +0.000 A 
ATOM     24  C   UNL     1       1.211  12.624  19.331  0.00  0.00    +0.000 A 
ATOM     25  C   UNL     1       0.371  13.456  18.600  0.00  0.00    +0.000 A 
ATOM     26  C   UNL     1      -1.013  13.385  18.780  0.00  0.00    +0.000 A 
ENDBRANCH   6  21
TORSDOF 2
ENDMDL
MODEL 6
REMARK VINA RESULT:      -6.3      1.810      2.235
REMARK  Name = 
REMARK  4 active torsions:
REMARK  status: ('A' for Active; 'I' for Inactive)
REMARK    1  A    between atoms: C_1  and  N_2
REMARK    2  A    between atoms: C_6  and  C_7
REMARK    3  A    between atoms: N_13  and  C_14
REMARK    4  A    between atoms: N_23  and  C_24
REMARK                            x       y       z     vdW  Elec       q    Type
REMARK                         _______ _______ _______ _____ _____    ______ ____
ROOT
ATOM      1  C   UNL     1      -0.417  10.105  21.748  0.00  0.00    +0.000 C 
ATOM      2  N   UNL     1       0.460   9.590  20.713  0.00  0.00    +0.000 N 
ATOM      3  C   UNL     1       0.658   8.207  20.653  0.00  0.00    +0.000 A 
ATOM      4  O   UNL     1       0.062   7.418  21.384  0.00  0.00    +0.000 OA
ATOM      5  C   UNL     1       1.617   7.790  19.644  0.00  0.00    +0.000 A 
ATOM      6  C   UNL     1       2.164   6.535  19.353  0.00  0.00    +0.000 A 
ATOM      7  N   UNL     1       3.017   6.723  18.240  0.00  0.00    +0.000 N 
ATOM      8  C   UNL     1       2.966   8.063  17.883  0.00  0.00    +0.000 A 
ATOM      9  C   UNL     1       2.142   8.730  18.747  0.00  0.00    +0.000 A 
ATOM     10  N   UNL     1       1.822  10.075  18.804  0.00  0.00    +0.000 N 
ATOM     11  C   UNL     1       2.331  11.063  17.869  0.00  0.00    +0.000 C 
ATOM     12  C   UNL     1       0.973  10.539  19.813  0.00  0.00    +0.000 A 
ATOM     13  O   UNL     1       0.676  11.734  19.906  0.00  0.00    +0.000 OA
ENDROOT
BRANCH   7  14
ATOM     14  C   UNL     1       3.825   5.761  17.545  0.00  0.00    +0.000 A 
ATOM     15  C   UNL     1       3.665   4.386  17.769  0.00  0.00    +0.000 A 
ATOM     16  C   UNL     1       4.324   3.456  16.957  0.00  0.00    +0.000 A 
ATOM     17  C   UNL     1       5.202   3.885  15.967  0.00  0.00    +0.000 A 
ATOM     18  C   UNL     1       5.440   5.248  15.799  0.00  0.00    +0.000 A 
ATOM     19  C   UNL     1       4.753   6.177  16.578  0.00  0.00    +0.000 A 
ATOM     20  F   UNL     1       4.964   7.476  16.317  0.00  0.00    +0.000 F 
ENDBRANCH   7  14
BRANCH   6  21
ATOM     21  C   UNL     1       1.893   5.236  20.021  0.00  0.00    +0.000 A 
ATOM     22  C   UNL     1       0.999   4.292  19.491  0.00  0.00    +0.000 A 
ATOM     23  C   UNL     1       0.873   3.018  20.056  0.00  0.00    +0.000 A 
ATOM     24  C   UNL     1       1.554   2.703  21.228  0.00  0.00    +0.000 A 
ATOM     25  C   UNL     1       2.374   3.656  21.822  0.00  0.00    +0.000 A 
ATOM     26  C   UNL     1       2.566   4.896  21.205  0.00  0.00    +0.000 A 
ENDBRANCH   6  21
TORSDOF 2
ENDMDL
MODEL 7
REMARK VINA RESULT:      -6.2      1.204      1.503
REMARK  Name = 
REMARK  4 active torsions:
REMARK  status: ('A' for Active; 'I' for Inactive)
REMARK    1  A    between atoms: C_1  and  N_2
REMARK    2  A    between atoms: C_6  and  C_7
REMARK    3  A    between atoms: N_13  and  C_14
REMARK    4  A    between atoms: N_23  and  C_24
REMARK                            x       y       z     vdW  Elec       q    Type
REMARK                         _______ _______ _______ _____ _____    ______ ____
ROOT
ATOM      1  C   UNL     1       0.018   8.509  21.697  0.00  0.00    +0.000 C 
ATOM      2  N   UNL     1       0.908   8.331  20.565  0.00  0.00    +0.000 N 
ATOM      3  C   UNL     1       1.419   7.050  20.331  0.00  0.00    +0.000 A 
ATOM      4  O   UNL     1       1.083   6.070  20.992  0.00  0.00    +0.000 OA
ATOM      5  C   UNL     1       2.368   6.985  19.232  0.00  0.00    +0.000 A 
ATOM      6  C   UNL     1       3.170   5.935  18.766  0.00  0.00    +0.000 A 
ATOM      7  N   UNL     1       3.866   6.438  17.641  0.00  0.00    +0.000 N 
ATOM      8  C   UNL     1       3.474   7.755  17.450  0.00  0.00    +0.000 A 
ATOM      9  C   UNL     1       2.587   8.111  18.428  0.00  0.00    +0.000 A 
ATOM     10  N   UNL     1       1.966   9.325  18.660  0.00  0.00    +0.000 N 
ATOM     11  C   UNL     1       2.155  10.498  17.825  0.00  0.00    +0.000 C 
ATOM     12  C   UNL     1       1.113   9.463  19.759  0.00  0.00    +0.000 A 
ATOM     13  O   UNL     1       0.553  10.535  20.009  0.00  0.00    +0.000 OA
ENDROOT
BRANCH   7  14
ATOM     14  C   UNL     1       4.820   5.777  16.796  0.00  0.00    +0.000 A 
ATOM     15  C   UNL     1       6.106   6.302  16.609  0.00  0.00    +0.000 A 
ATOM     16  C   UNL     1       7.083   5.559  15.937  0.00  0.00    +0.000 A 
ATOM     17  C   UNL     1       6.766   4.323  15.383  0.00  0.00    +0.000 A 
ATOM     18  C   UNL     1       5.465   3.835  15.482  0.00  0.00    +0.000 A 
ATOM     19  C   UNL     1       4.503   4.553  16.187  0.00  0.00    +0.000 A 
ATOM     20  F   UNL     1       3.289   3.996  16.316  0.00  0.00    +0.000 F 
ENDBRANCH   7  14
BRANCH   6  21
ATOM     21  C   UNL     1       3.264   4.548  19.288  0.00  0.00    +0.000 A 
ATOM     22  C   UNL     1       2.149   3.695  19.356  0.00  0.00    +0.000 A 
ATOM     23  C   UNL     1       2.290   2.348  19.711  0.00  0.00    +0.000 A 
ATOM     24  C   UNL     1       3.529   1.857  20.111  0.00  0.00    +0.000 A 
ATOM     25  C   UNL     1       4.628   2.708  20.140  0.00  0.00    +0.000 A 
ATOM     26  C   UNL     1       4.501   4.029  19.700  0.00  0.00    +0.000 A 
ENDBRANCH   6  21
TORSDOF 2
ENDMDL
MODEL 8
REMARK VINA RESULT:      -6.2      8.981     10.893
REMARK  Name = 
REMARK  4 active torsions:
REMARK  status: ('A' for Active; 'I' for Inactive)
REMARK    1  A    between atoms: C_1  and  N_2
REMARK    2  A    between atoms: C_6  and  C_7
REMARK    3  A    between atoms: N_13  and  C_14
REMARK    4  A    between atoms: N_23  and  C_24
REMARK                            x       y       z     vdW  Elec       q    Type
REMARK                         _______ _______ _______ _____ _____    ______ ____
ROOT
ATOM      1  C   UNL     1       6.664  11.593  24.201  0.00  0.00    +0.000 C 
ATOM      2  N   UNL     1       7.006  12.756  23.404  0.00  0.00    +0.000 N 
ATOM      3  C   UNL     1       7.874  12.574  22.322  0.00  0.00    +0.000 A 
ATOM      4  O   UNL     1       8.287  11.468  21.981  0.00  0.00    +0.000 OA
ATOM      5  C   UNL     1       8.228  13.806  21.636  0.00  0.00    +0.000 A 
ATOM      6  C   UNL     1       9.139  14.057  20.603  0.00  0.00    +0.000 A 
ATOM      7  N   UNL     1       9.035  15.438  20.311  0.00  0.00    +0.000 N 
ATOM      8  C   UNL     1       8.078  15.983  21.155  0.00  0.00    +0.000 A 
ATOM      9  C   UNL     1       7.600  15.008  21.987  0.00  0.00    +0.000 A 
ATOM     10  N   UNL     1       6.671  15.094  23.009  0.00  0.00    +0.000 N 
ATOM     11  C   UNL     1       5.987  16.322  23.372  0.00  0.00    +0.000 C 
ATOM     12  C   UNL     1       6.363  13.954  23.757  0.00  0.00    +0.000 A 
ATOM     13  O   UNL     1       5.552  13.994  24.687  0.00  0.00    +0.000 OA
ENDROOT
BRANCH   7  14
ATOM     14  C   UNL     1       9.751  16.214  19.339  0.00  0.00    +0.000 A 
ATOM     15  C   UNL     1      10.857  16.993  19.707  0.00  0.00    +0.000 A 
ATOM     16  C   UNL     1      11.656  17.595  18.729  0.00  0.00    +0.000 A 
ATOM     17  C   UNL     1      11.317  17.490  17.384  0.00  0.00    +0.000 A 
ATOM     18  C   UNL     1      10.166  16.797  17.014  0.00  0.00    +0.000 A 
ATOM     19  C   UNL     1       9.394  16.161  17.983  0.00  0.00    +0.000 A 
ATOM     20  F   UNL     1       8.342  15.443  17.559  0.00  0.00    +0.000 F 
ENDBRANCH   7  14
BRANCH   6  21
ATOM     21  C   UNL     1      10.018  13.090  19.897  0.00  0.00    +0.000 A 
ATOM     22  C   UNL     1       9.637  12.467  18.697  0.00  0.00    +0.000 A 
ATOM     23  C   UNL     1      10.538  11.677  17.974  0.00  0.00    +0.000 A 
ATOM     24  C   UNL     1      11.801  11.405  18.493  0.00  0.00    +0.000 A 
ATOM     25  C   UNL     1      12.166  11.937  19.724  0.00  0.00    +0.000 A 
ATOM     26  C   UNL     1      11.295  12.797  20.400  0.00  0.00    +0.000 A 
ENDBRANCH   6  21
TORSDOF 2
ENDMDL
MODEL 9
REMARK VINA RESULT:      -6.2      6.517      8.887
REMARK  Name = 
REMARK  4 active torsions:
REMARK  status: ('A' for Active; 'I' for Inactive)
REMARK    1  A    between atoms: C_1  and  N_2
REMARK    2  A    between atoms: C_6  and  C_7
REMARK    3  A    between atoms: N_13  and  C_14
REMARK    4  A    between atoms: N_23  and  C_24
REMARK                            x       y       z     vdW  Elec       q    Type
REMARK                         _______ _______ _______ _____ _____    ______ ____
ROOT
ATOM      1  C   UNL     1       4.114  15.115  20.886  0.00  0.00    +0.000 C 
ATOM      2  N   UNL     1       2.821  14.834  20.290  0.00  0.00    +0.000 N 
ATOM      3  C   UNL     1       2.169  13.656  20.669  0.00  0.00    +0.000 A 
ATOM      4  O   UNL     1       2.610  12.902  21.534  0.00  0.00    +0.000 OA
ATOM      5  C   UNL     1       0.925  13.415  19.957  0.00  0.00    +0.000 A 
ATOM      6  C   UNL     1       0.056  12.317  19.964  0.00  0.00    +0.000 A 
ATOM      7  N   UNL     1      -1.017  12.656  19.106  0.00  0.00    +0.000 N 
ATOM      8  C   UNL     1      -0.782  13.931  18.610  0.00  0.00    +0.000 A 
ATOM      9  C   UNL     1       0.411  14.392  19.096  0.00  0.00    +0.000 A 
ATOM     10  N   UNL     1       1.066  15.585  18.845  0.00  0.00    +0.000 N 
ATOM     11  C   UNL     1       0.540  16.624  17.979  0.00  0.00    +0.000 C 
ATOM     12  C   UNL     1       2.310  15.825  19.436  0.00  0.00    +0.000 A 
ATOM     13  O   UNL     1       2.933  16.870  19.224  0.00  0.00    +0.000 OA
ENDROOT
BRANCH   7  14
ATOM     14  C   UNL     1      -2.175  11.884  18.755  0.00  0.00    +0.000 A 
ATOM     15  C   UNL     1      -3.453  12.257  19.192  0.00  0.00    +0.000 A 
ATOM     16  C   UNL     1      -4.589  11.608  18.695  0.00  0.00    +0.000 A 
ATOM     17  C   UNL     1      -4.457  10.536  17.819  0.00  0.00    +0.000 A 
ATOM     18  C   UNL     1      -3.187  10.096  17.452  0.00  0.00    +0.000 A 
ATOM     19  C   UNL     1      -2.057  10.768  17.912  0.00  0.00    +0.000 A 
ATOM     20  F   UNL     1      -0.864  10.348  17.462  0.00  0.00    +0.000 F 
ENDBRANCH   7  14
BRANCH   6  21
ATOM     21  C   UNL     1       0.174  11.055  20.738  0.00  0.00    +0.000 A 
ATOM     22  C   UNL     1       0.855   9.931  20.241  0.00  0.00    +0.000 A 
ATOM     23  C   UNL     1       1.082   8.808  21.045  0.00  0.00    +0.000 A 
ATOM     24  C   UNL     1       0.535   8.743  22.324  0.00  0.00    +0.000 A 
ATOM     25  C   UNL     1      -0.221   9.807  22.802  0.00  0.00    +0.000 A 
ATOM     26  C   UNL     1      -0.370  10.962  22.029  0.00  0.00    +0.000 A 
ENDBRANCH   6  21
TORSDOF 2
ENDMDL
