MODEL 1
REMARK VINA RESULT:      -7.7      0.000      0.000
REMARK  Name = 
REMARK  7 active torsions:
REMARK  status: ('A' for Active; 'I' for Inactive)
REMARK    1  A    between atoms: C_1  and  O_2
REMARK    2  A    between atoms: O_2  and  C_3
REMARK    3  A    between atoms: C_7  and  C_8
REMARK    4  A    between atoms: N_11  and  C_12
REMARK    5  A    between atoms: N_19  and  C_20
REMARK    6  A    between atoms: C_27  and  O_28
REMARK    7  A    between atoms: O_28  and  C_29
REMARK                            x       y       z     vdW  Elec       q    Type
REMARK                         _______ _______ _______ _____ _____    ______ ____
ROOT
ATOM      1  C   UNL     1       0.805  11.449  19.208  0.00  0.00    +0.000 A 
ATOM      2  S   UNL     1       1.876  12.666  19.813  0.00  0.00    +0.000 S 
ATOM      3  C   UNL     1       0.869  13.905  19.169  0.00  0.00    +0.000 A 
ATOM      4  N   UNL     1       1.301  15.182  19.187  0.00  0.00    +0.000 N 
ATOM      5  N   UNL     1      -0.289  13.440  18.752  0.00  0.00    +0.000 NA
ATOM      6  N   UNL     1      -0.303  12.055  18.770  0.00  0.00    +0.000 N 
ATOM      7  H   UNL     1       2.212  15.377  19.599  0.00  0.00    +0.000 HD
ENDROOT
BRANCH   1  12
ATOM      8  C   UNL     1       2.082   7.353  19.641  0.00  0.00    +0.000 A 
ATOM      9  C   UNL     1       1.363   7.974  20.666  0.00  0.00    +0.000 A 
ATOM     10  C   UNL     1       0.913   9.296  20.545  0.00  0.00    +0.000 A 
ATOM     11 BR   UNL     1       0.087  10.008  22.109  0.00  0.00    +0.000 Br
ATOM     12  C   UNL     1       1.131  10.022  19.363  0.00  0.00    +0.000 A 
ATOM     13  C   UNL     1       1.769   9.346  18.308  0.00  0.00    +0.000 A 
ATOM     14  C   UNL     1       2.317   8.061  18.460  0.00  0.00    +0.000 A 
BRANCH   8  16
ATOM     15  C   UNL     1       1.936   5.240  20.707  0.00  0.00    +0.000 C 
ATOM     16  O   UNL     1       2.610   6.101  19.793  0.00  0.00    +0.000 OA
ENDBRANCH   8  16
BRANCH  14  17
ATOM     17  O   UNL     1       3.064   7.698  17.372  0.00  0.00    +0.000 OA
ATOM     18  C   UNL     1       4.347   7.118  17.578  0.00  0.00    +0.000 C 
ENDBRANCH  14  17
ENDBRANCH   1  12
BRANCH   4  19
ATOM     19  C   UNL     1       0.768  16.295  18.504  0.00  0.00    +0.000 A 
ATOM     20  C   UNL     1      -0.555  16.737  18.643  0.00  0.00    +0.000 A 
ATOM     21  C   UNL     1      -1.001  17.889  17.993  0.00  0.00    +0.000 A 
ATOM     22  C   UNL     1      -0.132  18.631  17.203  0.00  0.00    +0.000 A 
ATOM     23  C   UNL     1       1.186  18.214  17.053  0.00  0.00    +0.000 A 
ATOM     24  C   UNL     1       1.631  17.060  17.702  0.00  0.00    +0.000 A 
ENDBRANCH   4  19
BRANCH   6  25
ATOM     25  C   UNL     1      -1.564  11.396  18.380  0.00  0.00    +0.000 A 
ATOM     26  C   UNL     1      -2.807  11.809  18.862  0.00  0.00    +0.000 A 
ATOM     27  C   UNL     1      -3.972  11.319  18.262  0.00  0.00    +0.000 A 
ATOM     28  C   UNL     1      -3.886  10.369  17.242  0.00  0.00    +0.000 A 
ATOM     29  C   UNL     1      -2.645   9.882  16.839  0.00  0.00    +0.000 A 
ATOM     30  C   UNL     1      -1.474  10.394  17.409  0.00  0.00    +0.000 A 
ENDBRANCH   6  25
TORSDOF 5
ENDMDL
MODEL 2
REMARK VINA RESULT:      -7.6      0.240      1.288
REMARK  Name = 
REMARK  7 active torsions:
REMARK  status: ('A' for Active; 'I' for Inactive)
REMARK    1  A    between atoms: C_1  and  O_2
REMARK    2  A    between atoms: O_2  and  C_3
REMARK    3  A    between atoms: C_7  and  C_8
REMARK    4  A    between atoms: N_11  and  C_12
REMARK    5  A    between atoms: N_19  and  C_20
REMARK    6  A    between atoms: C_27  and  O_28
REMARK    7  A    between atoms: O_28  and  C_29
REMARK                            x       y       z     vdW  Elec       q    Type
REMARK                         _______ _______ _______ _____ _____    ______ ____
ROOT
ATOM      1  C   UNL     1       0.763  11.656  19.199  0.00  0.00    +0.000 A 
ATOM      2  S   UNL     1       1.789  12.858  19.902  0.00  0.00    +0.000 S 
ATOM      3  C   UNL     1       0.860  14.111  19.172  0.00  0.00    +0.000 A 
ATOM      4  N   UNL     1       1.303  15.383  19.234  0.00  0.00    +0.000 N 
ATOM      5  N   UNL     1      -0.261  13.660  18.651  0.00  0.00    +0.000 NA
ATOM      6  N   UNL     1      -0.293  12.276  18.663  0.00  0.00    +0.000 N 
ATOM      7  H   UNL     1       2.175  15.566  19.727  0.00  0.00    +0.000 HD
ENDROOT
BRANCH   1  12
ATOM      8  C   UNL     1       1.948   7.540  19.705  0.00  0.00    +0.000 A 
ATOM      9  C   UNL     1       1.238   8.194  20.717  0.00  0.00    +0.000 A 
ATOM     10  C   UNL     1       0.819   9.523  20.572  0.00  0.00    +0.000 A 
ATOM     11 BR   UNL     1       0.002  10.280  22.120  0.00  0.00    +0.000 Br
ATOM     12  C   UNL     1       1.058  10.224  19.379  0.00  0.00    +0.000 A 
ATOM     13  C   UNL     1       1.684   9.518  18.338  0.00  0.00    +0.000 A 
ATOM     14  C   UNL     1       2.203   8.223  18.514  0.00  0.00    +0.000 A 
BRANCH   8  16
ATOM     15  C   UNL     1       1.701   5.419  20.737  0.00  0.00    +0.000 C 
ATOM     16  O   UNL     1       2.448   6.280  19.880  0.00  0.00    +0.000 OA
ENDBRANCH   8  16
BRANCH  14  17
ATOM     17  O   UNL     1       2.947   7.826  17.435  0.00  0.00    +0.000 OA
ATOM     18  C   UNL     1       4.166   7.127  17.656  0.00  0.00    +0.000 C 
ENDBRANCH  14  17
ENDBRANCH   1  12
BRANCH   4  19
ATOM     19  C   UNL     1       0.848  16.503  18.508  0.00  0.00    +0.000 A 
ATOM     20  C   UNL     1       1.644  17.228  17.611  0.00  0.00    +0.000 A 
ATOM     21  C   UNL     1       1.114  18.284  16.869  0.00  0.00    +0.000 A 
ATOM     22  C   UNL     1      -0.226  18.629  16.996  0.00  0.00    +0.000 A 
ATOM     23  C   UNL     1      -1.037  17.921  17.876  0.00  0.00    +0.000 A 
ATOM     24  C   UNL     1      -0.505  16.865  18.620  0.00  0.00    +0.000 A 
ENDBRANCH   4  19
BRANCH   6  25
ATOM     25  C   UNL     1      -1.521  11.632  18.158  0.00  0.00    +0.000 A 
ATOM     26  C   UNL     1      -1.494  10.527  17.307  0.00  0.00    +0.000 A 
ATOM     27  C   UNL     1      -2.673   9.812  17.074  0.00  0.00    +0.000 A 
ATOM     28  C   UNL     1      -3.877  10.249  17.631  0.00  0.00    +0.000 A 
ATOM     29  C   UNL     1      -3.916  11.415  18.392  0.00  0.00    +0.000 A 
ATOM     30  C   UNL     1      -2.733  12.115  18.659  0.00  0.00    +0.000 A 
ENDBRANCH   6  25
TORSDOF 5
ENDMDL
MODEL 3
REMARK VINA RESULT:      -7.5      0.763      1.216
REMARK  Name = 
REMARK  7 active torsions:
REMARK  status: ('A' for Active; 'I' for Inactive)
REMARK    1  A    between atoms: C_1  and  O_2
REMARK    2  A    between atoms: O_2  and  C_3
REMARK    3  A    between atoms: C_7  and  C_8
REMARK    4  A    between atoms: N_11  and  C_12
REMARK    5  A    between atoms: N_19  and  C_20
REMARK    6  A    between atoms: C_27  and  O_28
REMARK    7  A    between atoms: O_28  and  C_29
REMARK                            x       y       z     vdW  Elec       q    Type
REMARK                         _______ _______ _______ _____ _____    ______ ____
ROOT
ATOM      1  C   UNL     1       0.510  11.561  19.676  0.00  0.00    +0.000 A 
ATOM      2  S   UNL     1       1.492  12.797  20.382  0.00  0.00    +0.000 S 
ATOM      3  C   UNL     1       0.730  13.993  19.406  0.00  0.00    +0.000 A 
ATOM      4  N   UNL     1       1.223  15.247  19.394  0.00  0.00    +0.000 N 
ATOM      5  N   UNL     1      -0.334  13.527  18.787  0.00  0.00    +0.000 NA
ATOM      6  N   UNL     1      -0.435  12.154  18.940  0.00  0.00    +0.000 N 
ATOM      7  H   UNL     1       2.031  15.453  19.980  0.00  0.00    +0.000 HD
ENDROOT
BRANCH   1  12
ATOM      8  C   UNL     1       1.412   7.488  20.769  0.00  0.00    +0.000 A 
ATOM      9  C   UNL     1       0.599   8.270  21.594  0.00  0.00    +0.000 A 
ATOM     10  C   UNL     1       0.269   9.589  21.254  0.00  0.00    +0.000 A 
ATOM     11 BR   UNL     1      -0.720  10.536  22.582  0.00  0.00    +0.000 Br
ATOM     12  C   UNL     1       0.706  10.148  20.043  0.00  0.00    +0.000 A 
ATOM     13  C   UNL     1       1.438   9.312  19.181  0.00  0.00    +0.000 A 
ATOM     14  C   UNL     1       1.864   8.028  19.563  0.00  0.00    +0.000 A 
BRANCH   8  16
ATOM     15  C   UNL     1       1.214   5.145  20.456  0.00  0.00    +0.000 C 
ATOM     16  O   UNL     1       1.820   6.238  21.142  0.00  0.00    +0.000 OA
ENDBRANCH   8  16
BRANCH  14  17
ATOM     17  O   UNL     1       2.732   7.491  18.649  0.00  0.00    +0.000 OA
ATOM     18  C   UNL     1       2.984   8.198  17.440  0.00  0.00    +0.000 C 
ENDBRANCH  14  17
ENDBRANCH   1  12
BRANCH   4  19
ATOM     19  C   UNL     1       0.924  16.296  18.500  0.00  0.00    +0.000 A 
ATOM     20  C   UNL     1      -0.356  16.846  18.342  0.00  0.00    +0.000 A 
ATOM     21  C   UNL     1      -0.573  17.932  17.492  0.00  0.00    +0.000 A 
ATOM     22  C   UNL     1       0.485  18.499  16.793  0.00  0.00    +0.000 A 
ATOM     23  C   UNL     1       1.765  17.973  16.937  0.00  0.00    +0.000 A 
ATOM     24  C   UNL     1       1.980  16.885  17.786  0.00  0.00    +0.000 A 
ENDBRANCH   4  19
BRANCH   6  25
ATOM     25  C   UNL     1      -1.617  11.503  18.342  0.00  0.00    +0.000 A 
ATOM     26  C   UNL     1      -1.514  10.430  17.456  0.00  0.00    +0.000 A 
ATOM     27  C   UNL     1      -2.661   9.698  17.131  0.00  0.00    +0.000 A 
ATOM     28  C   UNL     1      -3.904  10.088  17.631  0.00  0.00    +0.000 A 
ATOM     29  C   UNL     1      -4.015  11.225  18.428  0.00  0.00    +0.000 A 
ATOM     30  C   UNL     1      -2.867  11.941  18.788  0.00  0.00    +0.000 A 
ENDBRANCH   6  25
TORSDOF 5
ENDMDL
MODEL 4
REMARK VINA RESULT:      -7.4      4.281      8.135
REMARK  Name = 
REMARK  7 active torsions:
REMARK  status: ('A' for Active; 'I' for Inactive)
REMARK    1  A    between atoms: C_1  and  O_2
REMARK    2  A    between atoms: O_2  and  C_3
REMARK    3  A    between atoms: C_7  and  C_8
REMARK    4  A    between atoms: N_11  and  C_12
REMARK    5  A    between atoms: N_19  and  C_20
REMARK    6  A    between atoms: C_27  and  O_28
REMARK    7  A    between atoms: O_28  and  C_29
REMARK                            x       y       z     vdW  Elec       q    Type
REMARK                         _______ _______ _______ _____ _____    ______ ____
ROOT
ATOM      1  C   UNL     1      -0.076  10.544  21.278  0.00  0.00    +0.000 A 
ATOM      2  S   UNL     1       1.221   9.704  22.055  0.00  0.00    +0.000 S 
ATOM      3  C   UNL     1       1.221   8.510  20.816  0.00  0.00    +0.000 A 
ATOM      4  N   UNL     1       1.980   7.405  20.964  0.00  0.00    +0.000 N 
ATOM      5  N   UNL     1       0.474   8.857  19.789  0.00  0.00    +0.000 NA
ATOM      6  N   UNL     1      -0.258   9.997  20.072  0.00  0.00    +0.000 N 
ATOM      7  H   UNL     1       2.545   7.319  21.807  0.00  0.00    +0.000 HD
ENDROOT
BRANCH   1  12
ATOM      8  C   UNL     1      -1.767  13.899  23.396  0.00  0.00    +0.000 A 
ATOM      9  C   UNL     1      -0.642  14.077  22.586  0.00  0.00    +0.000 A 
ATOM     10  C   UNL     1      -0.084  13.012  21.867  0.00  0.00    +0.000 A 
ATOM     11 BR   UNL     1       1.534  13.426  20.947  0.00  0.00    +0.000 Br
ATOM     12  C   UNL     1      -0.673  11.738  21.900  0.00  0.00    +0.000 A 
ATOM     13  C   UNL     1      -1.861  11.603  22.640  0.00  0.00    +0.000 A 
ATOM     14  C   UNL     1      -2.364  12.637  23.449  0.00  0.00    +0.000 A 
BRANCH   8  16
ATOM     15  C   UNL     1      -1.291  15.655  24.917  0.00  0.00    +0.000 C 
ATOM     16  O   UNL     1      -2.255  14.908  24.178  0.00  0.00    +0.000 OA
ENDBRANCH   8  16
BRANCH  14  17
ATOM     17  O   UNL     1      -3.403  12.207  24.230  0.00  0.00    +0.000 OA
ATOM     18  C   UNL     1      -4.713  12.696  23.965  0.00  0.00    +0.000 C 
ENDBRANCH  14  17
ENDBRANCH   1  12
BRANCH   4  19
ATOM     19  C   UNL     1       1.941   6.211  20.214  0.00  0.00    +0.000 A 
ATOM     20  C   UNL     1       1.326   5.032  20.657  0.00  0.00    +0.000 A 
ATOM     21  C   UNL     1       1.259   3.904  19.838  0.00  0.00    +0.000 A 
ATOM     22  C   UNL     1       1.792   3.934  18.555  0.00  0.00    +0.000 A 
ATOM     23  C   UNL     1       2.404   5.094  18.093  0.00  0.00    +0.000 A 
ATOM     24  C   UNL     1       2.472   6.222  18.915  0.00  0.00    +0.000 A 
ENDBRANCH   4  19
BRANCH   6  25
ATOM     25  C   UNL     1      -1.101  10.534  18.986  0.00  0.00    +0.000 A 
ATOM     26  C   UNL     1      -0.915  11.810  18.452  0.00  0.00    +0.000 A 
ATOM     27  C   UNL     1      -1.567  12.159  17.266  0.00  0.00    +0.000 A 
ATOM     28  C   UNL     1      -2.454  11.261  16.667  0.00  0.00    +0.000 A 
ATOM     29  C   UNL     1      -2.718  10.031  17.263  0.00  0.00    +0.000 A 
ATOM     30  C   UNL     1      -2.040   9.661  18.431  0.00  0.00    +0.000 A 
ENDBRANCH   6  25
TORSDOF 5
ENDMDL
MODEL 5
REMARK VINA RESULT:      -7.3      4.102      7.930
REMARK  Name = 
REMARK  7 active torsions:
REMARK  status: ('A' for Active; 'I' for Inactive)
REMARK    1  A    between atoms: C_1  and  O_2
REMARK    2  A    between atoms: O_2  and  C_3
REMARK    3  A    between atoms: C_7  and  C_8
REMARK    4  A    between atoms: N_11  and  C_12
REMARK    5  A    between atoms: N_19  and  C_20
REMARK    6  A    between atoms: C_27  and  O_28
REMARK    7  A    between atoms: O_28  and  C_29
REMARK                            x       y       z     vdW  Elec       q    Type
REMARK                         _______ _______ _______ _____ _____    ______ ____
ROOT
ATOM      1  C   UNL     1      -1.158  11.389  20.356  0.00  0.00    +0.000 A 
ATOM      2  S   UNL     1       0.343  11.103  21.166  0.00  0.00    +0.000 S 
ATOM      3  C   UNL     1       0.632   9.715  20.190  0.00  0.00    +0.000 A 
ATOM      4  N   UNL     1       1.670   8.905  20.484  0.00  0.00    +0.000 N 
ATOM      5  N   UNL     1      -0.213   9.628  19.185  0.00  0.00    +0.000 NA
ATOM      6  N   UNL     1      -1.221  10.570  19.302  0.00  0.00    +0.000 N 
ATOM      7  H   UNL     1       2.263   9.151  21.275  0.00  0.00    +0.000 HD
ENDROOT
BRANCH   1  12
ATOM      8  C   UNL     1      -3.636  14.556  21.915  0.00  0.00    +0.000 A 
ATOM      9  C   UNL     1      -2.634  14.844  20.985  0.00  0.00    +0.000 A 
ATOM     10  C   UNL     1      -1.829  13.834  20.442  0.00  0.00    +0.000 A 
ATOM     11 BR   UNL     1      -0.423  14.450  19.311  0.00  0.00    +0.000 Br
ATOM     12  C   UNL     1      -2.040  12.489  20.782  0.00  0.00    +0.000 A 
ATOM     13  C   UNL     1      -3.117  12.209  21.642  0.00  0.00    +0.000 A 
ATOM     14  C   UNL     1      -3.858  13.224  22.273  0.00  0.00    +0.000 A 
BRANCH   8  16
ATOM     15  C   UNL     1      -3.727  16.198  23.624  0.00  0.00    +0.000 C 
ATOM     16  O   UNL     1      -4.357  15.545  22.523  0.00  0.00    +0.000 OA
ENDBRANCH   8  16
BRANCH  14  17
ATOM     17  O   UNL     1      -4.709  12.715  23.217  0.00  0.00    +0.000 OA
ATOM     18  C   UNL     1      -4.225  12.501  24.538  0.00  0.00    +0.000 C 
ENDBRANCH  14  17
ENDBRANCH   1  12
BRANCH   4  19
ATOM     19  C   UNL     1       1.936   7.611  19.990  0.00  0.00    +0.000 A 
ATOM     20  C   UNL     1       1.640   6.433  20.689  0.00  0.00    +0.000 A 
ATOM     21  C   UNL     1       1.863   5.180  20.114  0.00  0.00    +0.000 A 
ATOM     22  C   UNL     1       2.372   5.079  18.826  0.00  0.00    +0.000 A 
ATOM     23  C   UNL     1       2.670   6.235  18.111  0.00  0.00    +0.000 A 
ATOM     24  C   UNL     1       2.448   7.488  18.688  0.00  0.00    +0.000 A 
ENDBRANCH   4  19
BRANCH   6  25
ATOM     25  C   UNL     1      -2.213  10.624  18.210  0.00  0.00    +0.000 A 
ATOM     26  C   UNL     1      -3.387  11.372  18.299  0.00  0.00    +0.000 A 
ATOM     27  C   UNL     1      -4.151  11.588  17.148  0.00  0.00    +0.000 A 
ATOM     28  C   UNL     1      -3.777  10.996  15.939  0.00  0.00    +0.000 A 
ATOM     29  C   UNL     1      -2.662  10.163  15.882  0.00  0.00    +0.000 A 
ATOM     30  C   UNL     1      -1.872   9.972  17.022  0.00  0.00    +0.000 A 
ENDBRANCH   6  25
TORSDOF 5
ENDMDL
MODEL 6
REMARK VINA RESULT:      -7.3      4.093      7.996
REMARK  Name = 
REMARK  7 active torsions:
REMARK  status: ('A' for Active; 'I' for Inactive)
REMARK    1  A    between atoms: C_1  and  O_2
REMARK    2  A    between atoms: O_2  and  C_3
REMARK    3  A    between atoms: C_7  and  C_8
REMARK    4  A    between atoms: N_11  and  C_12
REMARK    5  A    between atoms: N_19  and  C_20
REMARK    6  A    between atoms: C_27  and  O_28
REMARK    7  A    between atoms: O_28  and  C_29
REMARK                            x       y       z     vdW  Elec       q    Type
REMARK                         _______ _______ _______ _____ _____    ______ ____
ROOT
ATOM      1  C   UNL     1      -1.156  11.396  20.304  0.00  0.00    +0.000 A 
ATOM      2  S   UNL     1       0.358  11.103  21.086  0.00  0.00    +0.000 S 
ATOM      3  C   UNL     1       0.633   9.726  20.089  0.00  0.00    +0.000 A 
ATOM      4  N   UNL     1       1.676   8.915  20.357  0.00  0.00    +0.000 N 
ATOM      5  N   UNL     1      -0.229   9.650  19.098  0.00  0.00    +0.000 NA
ATOM      6  N   UNL     1      -1.236  10.589  19.242  0.00  0.00    +0.000 N 
ATOM      7  H   UNL     1       2.282   9.152  21.141  0.00  0.00    +0.000 HD
ENDROOT
BRANCH   1  12
ATOM      8  C   UNL     1      -3.614  14.540  21.941  0.00  0.00    +0.000 A 
ATOM      9  C   UNL     1      -2.620  14.843  21.007  0.00  0.00    +0.000 A 
ATOM     10  C   UNL     1      -1.821  13.841  20.439  0.00  0.00    +0.000 A 
ATOM     11 BR   UNL     1      -0.424  14.474  19.307  0.00  0.00    +0.000 Br
ATOM     12  C   UNL     1      -2.032  12.490  20.757  0.00  0.00    +0.000 A 
ATOM     13  C   UNL     1      -3.102  12.197  21.621  0.00  0.00    +0.000 A 
ATOM     14  C   UNL     1      -3.835  13.202  22.277  0.00  0.00    +0.000 A 
BRANCH   8  16
ATOM     15  C   UNL     1      -5.584  15.859  21.992  0.00  0.00    +0.000 C 
ATOM     16  O   UNL     1      -4.327  15.520  22.572  0.00  0.00    +0.000 OA
ENDBRANCH   8  16
BRANCH  14  17
ATOM     17  O   UNL     1      -4.679  12.678  23.219  0.00  0.00    +0.000 OA
ATOM     18  C   UNL     1      -4.215  12.533  24.556  0.00  0.00    +0.000 C 
ENDBRANCH  14  17
ENDBRANCH   1  12
BRANCH   4  19
ATOM     19  C   UNL     1       1.936   7.627  19.844  0.00  0.00    +0.000 A 
ATOM     20  C   UNL     1       2.512   7.388  18.589  0.00  0.00    +0.000 A 
ATOM     21  C   UNL     1       2.810   6.091  18.169  0.00  0.00    +0.000 A 
ATOM     22  C   UNL     1       2.551   5.007  18.998  0.00  0.00    +0.000 A 
ATOM     23  C   UNL     1       1.983   5.219  20.250  0.00  0.00    +0.000 A 
ATOM     24  C   UNL     1       1.683   6.518  20.669  0.00  0.00    +0.000 A 
ENDBRANCH   4  19
BRANCH   6  25
ATOM     25  C   UNL     1      -2.246  10.654  18.167  0.00  0.00    +0.000 A 
ATOM     26  C   UNL     1      -3.431  11.379  18.294  0.00  0.00    +0.000 A 
ATOM     27  C   UNL     1      -4.217  11.612  17.161  0.00  0.00    +0.000 A 
ATOM     28  C   UNL     1      -3.851  11.058  15.932  0.00  0.00    +0.000 A 
ATOM     29  C   UNL     1      -2.724  10.246  15.835  0.00  0.00    +0.000 A 
ATOM     30  C   UNL     1      -1.913  10.039  16.957  0.00  0.00    +0.000 A 
ENDBRANCH   6  25
TORSDOF 5
ENDMDL
MODEL 7
REMARK VINA RESULT:      -7.3      4.327      8.213
REMARK  Name = 
REMARK  7 active torsions:
REMARK  status: ('A' for Active; 'I' for Inactive)
REMARK    1  A    between atoms: C_1  and  O_2
REMARK    2  A    between atoms: O_2  and  C_3
REMARK    3  A    between atoms: C_7  and  C_8
REMARK    4  A    between atoms: N_11  and  C_12
REMARK    5  A    between atoms: N_19  and  C_20
REMARK    6  A    between atoms: C_27  and  O_28
REMARK    7  A    between atoms: O_28  and  C_29
REMARK                            x       y       z     vdW  Elec       q    Type
REMARK                         _______ _______ _______ _____ _____    ______ ____
ROOT
ATOM      1  C   UNL     1      -0.123  10.522  21.227  0.00  0.00    +0.000 A 
ATOM      2  S   UNL     1       1.200   9.710  21.990  0.00  0.00    +0.000 S 
ATOM      3  C   UNL     1       1.227   8.528  20.738  0.00  0.00    +0.000 A 
ATOM      4  N   UNL     1       2.017   7.443  20.872  0.00  0.00    +0.000 N 
ATOM      5  N   UNL     1       0.466   8.865  19.719  0.00  0.00    +0.000 NA
ATOM      6  N   UNL     1      -0.296   9.982  20.016  0.00  0.00    +0.000 N 
ATOM      7  H   UNL     1       2.588   7.364  21.712  0.00  0.00    +0.000 HD
ENDROOT
BRANCH   1  12
ATOM      8  C   UNL     1      -1.896  13.808  23.385  0.00  0.00    +0.000 A 
ATOM      9  C   UNL     1      -0.775  14.024  22.579  0.00  0.00    +0.000 A 
ATOM     10  C   UNL     1      -0.191  12.981  21.847  0.00  0.00    +0.000 A 
ATOM     11 BR   UNL     1       1.417  13.446  20.934  0.00  0.00    +0.000 Br
ATOM     12  C   UNL     1      -0.749  11.693  21.863  0.00  0.00    +0.000 A 
ATOM     13  C   UNL     1      -1.934  11.520  22.600  0.00  0.00    +0.000 A 
ATOM     14  C   UNL     1      -2.462  12.531  23.422  0.00  0.00    +0.000 A 
BRANCH   8  16
ATOM     15  C   UNL     1      -1.578  15.238  25.249  0.00  0.00    +0.000 C 
ATOM     16  O   UNL     1      -2.409  14.795  24.179  0.00  0.00    +0.000 OA
ENDBRANCH   8  16
BRANCH  14  17
ATOM     17  O   UNL     1      -3.492  12.066  24.196  0.00  0.00    +0.000 OA
ATOM     18  C   UNL     1      -4.783  12.645  24.047  0.00  0.00    +0.000 C 
ENDBRANCH  14  17
ENDBRANCH   1  12
BRANCH   4  19
ATOM     19  C   UNL     1       2.006   6.255  20.111  0.00  0.00    +0.000 A 
ATOM     20  C   UNL     1       2.579   6.139  18.838  0.00  0.00    +0.000 A 
ATOM     21  C   UNL     1       2.598   4.916  18.166  0.00  0.00    +0.000 A 
ATOM     22  C   UNL     1       2.060   3.781  18.759  0.00  0.00    +0.000 A 
ATOM     23  C   UNL     1       1.490   3.870  20.024  0.00  0.00    +0.000 A 
ATOM     24  C   UNL     1       1.469   5.096  20.694  0.00  0.00    +0.000 A 
ENDBRANCH   4  19
BRANCH   6  25
ATOM     25  C   UNL     1      -1.158  10.506  18.939  0.00  0.00    +0.000 A 
ATOM     26  C   UNL     1      -1.147   9.982  17.647  0.00  0.00    +0.000 A 
ATOM     27  C   UNL     1      -2.159  10.344  16.752  0.00  0.00    +0.000 A 
ATOM     28  C   UNL     1      -3.125  11.279  17.130  0.00  0.00    +0.000 A 
ATOM     29  C   UNL     1      -3.067  11.879  18.385  0.00  0.00    +0.000 A 
ATOM     30  C   UNL     1      -2.079  11.495  19.299  0.00  0.00    +0.000 A 
ENDBRANCH   6  25
TORSDOF 5
ENDMDL
MODEL 8
REMARK VINA RESULT:      -7.2      0.552      1.054
REMARK  Name = 
REMARK  7 active torsions:
REMARK  status: ('A' for Active; 'I' for Inactive)
REMARK    1  A    between atoms: C_1  and  O_2
REMARK    2  A    between atoms: O_2  and  C_3
REMARK    3  A    between atoms: C_7  and  C_8
REMARK    4  A    between atoms: N_11  and  C_12
REMARK    5  A    between atoms: N_19  and  C_20
REMARK    6  A    between atoms: C_27  and  O_28
REMARK    7  A    between atoms: O_28  and  C_29
REMARK                            x       y       z     vdW  Elec       q    Type
REMARK                         _______ _______ _______ _____ _____    ______ ____
ROOT
ATOM      1  C   UNL     1       0.435  11.657  19.514  0.00  0.00    +0.000 A 
ATOM      2  S   UNL     1       1.442  12.893  20.184  0.00  0.00    +0.000 S 
ATOM      3  C   UNL     1       0.411  14.114  19.542  0.00  0.00    +0.000 A 
ATOM      4  N   UNL     1       0.795  15.404  19.608  0.00  0.00    +0.000 N 
ATOM      5  N   UNL     1      -0.716  13.619  19.077  0.00  0.00    +0.000 NA
ATOM      6  N   UNL     1      -0.680  12.235  19.057  0.00  0.00    +0.000 N 
ATOM      7  H   UNL     1       1.686  15.620  20.053  0.00  0.00    +0.000 HD
ENDROOT
BRANCH   1  12
ATOM      8  C   UNL     1       1.846   7.597  19.860  0.00  0.00    +0.000 A 
ATOM      9  C   UNL     1       1.128   8.180  20.908  0.00  0.00    +0.000 A 
ATOM     10  C   UNL     1       0.635   9.489  20.815  0.00  0.00    +0.000 A 
ATOM     11 BR   UNL     1      -0.182  10.152  22.405  0.00  0.00    +0.000 Br
ATOM     12  C   UNL     1       0.808  10.238  19.641  0.00  0.00    +0.000 A 
ATOM     13  C   UNL     1       1.446   9.599  18.563  0.00  0.00    +0.000 A 
ATOM     14  C   UNL     1       2.036   8.328  18.686  0.00  0.00    +0.000 A 
BRANCH   8  16
ATOM     15  C   UNL     1       1.569   5.323  20.474  0.00  0.00    +0.000 C 
ATOM     16  O   UNL     1       2.415   6.360  19.983  0.00  0.00    +0.000 OA
ENDBRANCH   8  16
BRANCH  14  17
ATOM     17  O   UNL     1       2.773   8.005  17.578  0.00  0.00    +0.000 OA
ATOM     18  C   UNL     1       3.911   7.164  17.728  0.00  0.00    +0.000 C 
ENDBRANCH  14  17
ENDBRANCH   1  12
BRANCH   4  19
ATOM     19  C   UNL     1       0.244  16.516  18.938  0.00  0.00    +0.000 A 
ATOM     20  C   UNL     1       0.887  17.198  17.896  0.00  0.00    +0.000 A 
ATOM     21  C   UNL     1       0.257  18.247  17.225  0.00  0.00    +0.000 A 
ATOM     22  C   UNL     1      -1.033  18.627  17.570  0.00  0.00    +0.000 A 
ATOM     23  C   UNL     1      -1.694  17.963  18.598  0.00  0.00    +0.000 A 
ATOM     24  C   UNL     1      -1.061  16.915  19.271  0.00  0.00    +0.000 A 
ENDBRANCH   4  19
BRANCH   6  25
ATOM     25  C   UNL     1      -1.904  11.543  18.610  0.00  0.00    +0.000 A 
ATOM     26  C   UNL     1      -3.172  11.879  19.084  0.00  0.00    +0.000 A 
ATOM     27  C   UNL     1      -4.303  11.370  18.438  0.00  0.00    +0.000 A 
ATOM     28  C   UNL     1      -4.157  10.474  17.376  0.00  0.00    +0.000 A 
ATOM     29  C   UNL     1      -2.889  10.059  16.978  0.00  0.00    +0.000 A 
ATOM     30  C   UNL     1      -1.752  10.593  17.596  0.00  0.00    +0.000 A 
ENDBRANCH   6  25
TORSDOF 5
ENDMDL
MODEL 9
REMARK VINA RESULT:      -7.1      4.098      8.032
REMARK  Name = 
REMARK  7 active torsions:
REMARK  status: ('A' for Active; 'I' for Inactive)
REMARK    1  A    between atoms: C_1  and  O_2
REMARK    2  A    between atoms: O_2  and  C_3
REMARK    3  A    between atoms: C_7  and  C_8
REMARK    4  A    between atoms: N_11  and  C_12
REMARK    5  A    between atoms: N_19  and  C_20
REMARK    6  A    between atoms: C_27  and  O_28
REMARK    7  A    between atoms: O_28  and  C_29
REMARK                            x       y       z     vdW  Elec       q    Type
REMARK                         _______ _______ _______ _____ _____    ______ ____
ROOT
ATOM      1  C   UNL     1      -1.150  11.436  20.376  0.00  0.00    +0.000 A 
ATOM      2  S   UNL     1       0.293  11.054  21.249  0.00  0.00    +0.000 S 
ATOM      3  C   UNL     1       0.615   9.738  20.188  0.00  0.00    +0.000 A 
ATOM      4  N   UNL     1       1.617   8.884  20.481  0.00  0.00    +0.000 N 
ATOM      5  N   UNL     1      -0.169   9.746  19.131  0.00  0.00    +0.000 NA
ATOM      6  N   UNL     1      -1.164  10.701  19.260  0.00  0.00    +0.000 N 
ATOM      7  H   UNL     1       2.166   9.055  21.322  0.00  0.00    +0.000 HD
ENDROOT
BRANCH   1  12
ATOM      8  C   UNL     1      -3.638  14.551  22.022  0.00  0.00    +0.000 A 
ATOM      9  C   UNL     1      -2.635  14.868  21.101  0.00  0.00    +0.000 A 
ATOM     10  C   UNL     1      -1.827  13.876  20.531  0.00  0.00    +0.000 A 
ATOM     11 BR   UNL     1      -0.421  14.528  19.419  0.00  0.00    +0.000 Br
ATOM     12  C   UNL     1      -2.035  12.521  20.832  0.00  0.00    +0.000 A 
ATOM     13  C   UNL     1      -3.112  12.214  21.682  0.00  0.00    +0.000 A 
ATOM     14  C   UNL     1      -3.856  13.209  22.342  0.00  0.00    +0.000 A 
BRANCH   8  16
ATOM     15  C   UNL     1      -3.621  16.427  23.472  0.00  0.00    +0.000 C 
ATOM     16  O   UNL     1      -4.361  15.521  22.657  0.00  0.00    +0.000 OA
ENDBRANCH   8  16
BRANCH  14  17
ATOM     17  O   UNL     1      -4.707  12.671  23.270  0.00  0.00    +0.000 OA
ATOM     18  C   UNL     1      -4.251  12.502  24.607  0.00  0.00    +0.000 C 
ENDBRANCH  14  17
ENDBRANCH   1  12
BRANCH   4  19
ATOM     19  C   UNL     1       1.889   7.625  19.905  0.00  0.00    +0.000 A 
ATOM     20  C   UNL     1       2.489   7.453  18.650  0.00  0.00    +0.000 A 
ATOM     21  C   UNL     1       2.797   6.180  18.168  0.00  0.00    +0.000 A 
ATOM     22  C   UNL     1       2.525   5.054  18.934  0.00  0.00    +0.000 A 
ATOM     23  C   UNL     1       1.933   5.199  20.184  0.00  0.00    +0.000 A 
ATOM     24  C   UNL     1       1.623   6.474  20.665  0.00  0.00    +0.000 A 
ENDBRANCH   4  19
BRANCH   6  25
ATOM     25  C   UNL     1      -2.086  10.860  18.119  0.00  0.00    +0.000 A 
ATOM     26  C   UNL     1      -1.855  10.265  16.878  0.00  0.00    +0.000 A 
ATOM     27  C   UNL     1      -2.881  10.240  15.928  0.00  0.00    +0.000 A 
ATOM     28  C   UNL     1      -4.097  10.871  16.197  0.00  0.00    +0.000 A 
ATOM     29  C   UNL     1      -4.283  11.556  17.395  0.00  0.00    +0.000 A 
ATOM     30  C   UNL     1      -3.273  11.555  18.365  0.00  0.00    +0.000 A 
ENDBRANCH   6  25
TORSDOF 5
ENDMDL
