MODEL 1
REMARK VINA RESULT:      -7.6      0.000      0.000
REMARK  Name = 
REMARK  4 active torsions:
REMARK  status: ('A' for Active; 'I' for Inactive)
REMARK    1  A    between atoms: C_2  and  C_3
REMARK    2  A    between atoms: C_3  and  C_4
REMARK    3  A    between atoms: C_4  and  C_5
REMARK    4  A    between atoms: C_10  and  N_11
REMARK                            x       y       z     vdW  Elec       q    Type
REMARK                         _______ _______ _______ _____ _____    ______ ____
ROOT
ATOM      1  C   UNL     1       7.194   5.334  18.270  0.00  0.00    +0.000 C 
ATOM      2  O   UNL     1       7.881   4.345  18.009  0.00  0.00    +0.000 OA
ATOM      3  N   UNL     1       5.805   5.265  18.316  0.00  0.00    +0.000 N 
ATOM      4  C   UNL     1       5.187   3.964  18.085  0.00  0.00    +0.000 C 
ATOM      5  C   UNL     1       3.954   4.098  17.196  0.00  0.00    +0.000 C 
ATOM      6  C   UNL     1       2.917   5.048  17.842  0.00  0.00    +0.000 C 
ATOM      7  C   UNL     1       3.618   6.405  18.062  0.00  0.00    +0.000 C 
ATOM      8  C   UNL     1       4.918   6.295  18.863  0.00  0.00    +0.000 C 
ENDROOT
BRANCH   6   9
ATOM      9  N   UNL     1       2.353   4.361  19.026  0.00  0.00    +0.000 N 
ATOM     10  C   UNL     1       1.736   3.127  18.799  0.00  0.00    +0.000 C 
ATOM     11  O   UNL     1       1.411   2.718  17.687  0.00  0.00    +0.000 OA
ATOM     12  C   UNL     1       1.573   2.251  20.045  0.00  0.00    +0.000 C 
ATOM     13  O   UNL     1       1.291   2.931  21.253  0.00  0.00    +0.000 OA
ATOM     14  C   UNL     1       2.143   4.048  21.417  0.00  0.00    +0.000 C 
ATOM     15  C   UNL     1       2.097   5.001  20.228  0.00  0.00    +0.000 C 
ATOM     16  O   UNL     1       1.899   6.203  20.372  0.00  0.00    +0.000 OA
ENDBRANCH   6   9
BRANCH   1  17
ATOM     17  C   UNL     1       7.853   6.668  18.574  0.00  0.00    +0.000 C 
BRANCH  17  18
ATOM     18  C   UNL     1       7.687   7.631  17.400  0.00  0.00    +0.000 C 
BRANCH  18  20
ATOM     19  C   UNL     1       8.842   9.381  18.776  0.00  0.00    +0.000 C 
ATOM     20  C   UNL     1       7.985   9.049  17.806  0.00  0.00    +0.000 C 
ENDBRANCH  18  20
ENDBRANCH  17  18
ENDBRANCH   1  17
TORSDOF 4
ENDMDL
MODEL 2
REMARK VINA RESULT:      -7.3      0.890      1.026
REMARK  Name = 
REMARK  4 active torsions:
REMARK  status: ('A' for Active; 'I' for Inactive)
REMARK    1  A    between atoms: C_2  and  C_3
REMARK    2  A    between atoms: C_3  and  C_4
REMARK    3  A    between atoms: C_4  and  C_5
REMARK    4  A    between atoms: C_10  and  N_11
REMARK                            x       y       z     vdW  Elec       q    Type
REMARK                         _______ _______ _______ _____ _____    ______ ____
ROOT
ATOM      1  C   UNL     1       6.255   5.288  17.211  0.00  0.00    +0.000 C 
ATOM      2  O   UNL     1       6.889   4.312  16.810  0.00  0.00    +0.000 OA
ATOM      3  N   UNL     1       4.941   5.173  17.655  0.00  0.00    +0.000 N 
ATOM      4  C   UNL     1       4.349   3.840  17.669  0.00  0.00    +0.000 C 
ATOM      5  C   UNL     1       2.910   3.878  17.163  0.00  0.00    +0.000 C 
ATOM      6  C   UNL     1       2.052   4.826  18.034  0.00  0.00    +0.000 C 
ATOM      7  C   UNL     1       2.716   6.217  17.983  0.00  0.00    +0.000 C 
ATOM      8  C   UNL     1       4.194   6.201  18.384  0.00  0.00    +0.000 C 
ENDROOT
BRANCH   6   9
ATOM      9  N   UNL     1       1.881   4.190  19.360  0.00  0.00    +0.000 N 
ATOM     10  C   UNL     1       1.340   2.900  19.371  0.00  0.00    +0.000 C 
ATOM     11  O   UNL     1       0.773   2.388  18.408  0.00  0.00    +0.000 OA
ATOM     12  C   UNL     1       1.588   2.109  20.658  0.00  0.00    +0.000 C 
ATOM     13  O   UNL     1       1.572   2.855  21.861  0.00  0.00    +0.000 OA
ATOM     14  C   UNL     1       2.334   4.040  21.733  0.00  0.00    +0.000 C 
ATOM     15  C   UNL     1       1.892   4.896  20.552  0.00  0.00    +0.000 C 
ATOM     16  O   UNL     1       1.632   6.088  20.680  0.00  0.00    +0.000 OA
ENDBRANCH   6   9
BRANCH   1  17
ATOM     17  C   UNL     1       6.904   6.661  17.253  0.00  0.00    +0.000 C 
BRANCH  17  18
ATOM     18  C   UNL     1       7.885   6.758  18.420  0.00  0.00    +0.000 C 
BRANCH  18  20
ATOM     19  C   UNL     1       8.096   9.170  17.765  0.00  0.00    +0.000 C 
ATOM     20  C   UNL     1       8.425   8.154  18.569  0.00  0.00    +0.000 C 
ENDBRANCH  18  20
ENDBRANCH  17  18
ENDBRANCH   1  17
TORSDOF 4
ENDMDL
MODEL 3
REMARK VINA RESULT:      -7.2      1.593      6.391
REMARK  Name = 
REMARK  4 active torsions:
REMARK  status: ('A' for Active; 'I' for Inactive)
REMARK    1  A    between atoms: C_2  and  C_3
REMARK    2  A    between atoms: C_3  and  C_4
REMARK    3  A    between atoms: C_4  and  C_5
REMARK    4  A    between atoms: C_10  and  N_11
REMARK                            x       y       z     vdW  Elec       q    Type
REMARK                         _______ _______ _______ _____ _____    ______ ____
ROOT
ATOM      1  C   UNL     1       2.333   4.887  20.746  0.00  0.00    +0.000 C 
ATOM      2  O   UNL     1       1.555   5.832  20.880  0.00  0.00    +0.000 OA
ATOM      3  N   UNL     1       3.318   4.886  19.762  0.00  0.00    +0.000 N 
ATOM      4  C   UNL     1       3.426   6.069  18.916  0.00  0.00    +0.000 C 
ATOM      5  C   UNL     1       3.658   5.677  17.460  0.00  0.00    +0.000 C 
ATOM      6  C   UNL     1       4.948   4.832  17.324  0.00  0.00    +0.000 C 
ATOM      7  C   UNL     1       4.782   3.597  18.232  0.00  0.00    +0.000 C 
ATOM      8  C   UNL     1       4.442   3.950  19.683  0.00  0.00    +0.000 C 
ENDROOT
BRANCH   6   9
ATOM      9  N   UNL     1       6.102   5.726  17.576  0.00  0.00    +0.000 N 
ATOM     10  C   UNL     1       6.157   6.905  16.825  0.00  0.00    +0.000 C 
ATOM     11  O   UNL     1       5.479   7.108  15.820  0.00  0.00    +0.000 OA
ATOM     12  C   UNL     1       7.068   7.992  17.401  0.00  0.00    +0.000 C 
ATOM     13  O   UNL     1       8.251   7.543  18.035  0.00  0.00    +0.000 OA
ATOM     14  C   UNL     1       7.978   6.468  18.912  0.00  0.00    +0.000 C 
ATOM     15  C   UNL     1       7.257   5.316  18.222  0.00  0.00    +0.000 C 
ATOM     16  O   UNL     1       7.664   4.162  18.297  0.00  0.00    +0.000 OA
ENDBRANCH   6   9
BRANCH   1  17
ATOM     17  C   UNL     1       2.253   3.689  21.676  0.00  0.00    +0.000 C 
BRANCH  17  18
ATOM     18  C   UNL     1       1.263   2.656  21.142  0.00  0.00    +0.000 C 
BRANCH  18  20
ATOM     19  C   UNL     1       1.056   2.260  18.674  0.00  0.00    +0.000 C 
ATOM     20  C   UNL     1       0.800   3.005  19.754  0.00  0.00    +0.000 C 
ENDBRANCH  18  20
ENDBRANCH  17  18
ENDBRANCH   1  17
TORSDOF 4
ENDMDL
MODEL 4
REMARK VINA RESULT:      -7.1      2.669      3.925
REMARK  Name = 
REMARK  4 active torsions:
REMARK  status: ('A' for Active; 'I' for Inactive)
REMARK    1  A    between atoms: C_2  and  C_3
REMARK    2  A    between atoms: C_3  and  C_4
REMARK    3  A    between atoms: C_4  and  C_5
REMARK    4  A    between atoms: C_10  and  N_11
REMARK                            x       y       z     vdW  Elec       q    Type
REMARK                         _______ _______ _______ _____ _____    ______ ____
ROOT
ATOM      1  C   UNL     1       5.730   5.796  15.701  0.00  0.00    +0.000 C 
ATOM      2  O   UNL     1       5.043   6.500  14.960  0.00  0.00    +0.000 OA
ATOM      3  N   UNL     1       5.281   5.404  16.958  0.00  0.00    +0.000 N 
ATOM      4  C   UNL     1       3.941   5.822  17.355  0.00  0.00    +0.000 C 
ATOM      5  C   UNL     1       3.922   6.276  18.812  0.00  0.00    +0.000 C 
ATOM      6  C   UNL     1       4.398   5.135  19.744  0.00  0.00    +0.000 C 
ATOM      7  C   UNL     1       5.815   4.734  19.285  0.00  0.00    +0.000 C 
ATOM      8  C   UNL     1       5.894   4.372  17.799  0.00  0.00    +0.000 C 
ENDROOT
BRANCH   6   9
ATOM      9  N   UNL     1       3.350   4.089  19.747  0.00  0.00    +0.000 N 
ATOM     10  C   UNL     1       2.074   4.482  20.164  0.00  0.00    +0.000 C 
ATOM     11  O   UNL     1       1.841   5.534  20.757  0.00  0.00    +0.000 OA
ATOM     12  C   UNL     1       0.941   3.543  19.742  0.00  0.00    +0.000 C 
ATOM     13  O   UNL     1       1.248   2.162  19.730  0.00  0.00    +0.000 OA
ATOM     14  C   UNL     1       2.489   1.924  19.093  0.00  0.00    +0.000 C 
ATOM     15  C   UNL     1       3.627   2.733  19.706  0.00  0.00    +0.000 C 
ATOM     16  O   UNL     1       4.674   2.204  20.064  0.00  0.00    +0.000 OA
ENDBRANCH   6   9
BRANCH   1  17
ATOM     17  C   UNL     1       7.097   5.313  15.249  0.00  0.00    +0.000 C 
BRANCH  17  18
ATOM     18  C   UNL     1       7.072   4.925  13.772  0.00  0.00    +0.000 C 
BRANCH  18  20
ATOM     19  C   UNL     1       5.821   3.310  12.317  0.00  0.00    +0.000 C 
ATOM     20  C   UNL     1       6.185   3.735  13.531  0.00  0.00    +0.000 C 
ENDBRANCH  18  20
ENDBRANCH  17  18
ENDBRANCH   1  17
TORSDOF 4
ENDMDL
MODEL 5
REMARK VINA RESULT:      -7.0      1.580      1.941
REMARK  Name = 
REMARK  4 active torsions:
REMARK  status: ('A' for Active; 'I' for Inactive)
REMARK    1  A    between atoms: C_2  and  C_3
REMARK    2  A    between atoms: C_3  and  C_4
REMARK    3  A    between atoms: C_4  and  C_5
REMARK    4  A    between atoms: C_10  and  N_11
REMARK                            x       y       z     vdW  Elec       q    Type
REMARK                         _______ _______ _______ _____ _____    ______ ____
ROOT
ATOM      1  C   UNL     1       5.430   4.764  16.373  0.00  0.00    +0.000 C 
ATOM      2  O   UNL     1       5.917   3.721  15.935  0.00  0.00    +0.000 OA
ATOM      3  N   UNL     1       4.244   4.765  17.101  0.00  0.00    +0.000 N 
ATOM      4  C   UNL     1       3.614   3.476  17.365  0.00  0.00    +0.000 C 
ATOM      5  C   UNL     1       2.102   3.562  17.183  0.00  0.00    +0.000 C 
ATOM      6  C   UNL     1       1.499   4.627  18.130  0.00  0.00    +0.000 C 
ATOM      7  C   UNL     1       2.194   5.967  17.809  0.00  0.00    +0.000 C 
ATOM      8  C   UNL     1       3.722   5.892  17.879  0.00  0.00    +0.000 C 
ENDROOT
BRANCH   6   9
ATOM      9  N   UNL     1       1.600   4.110  19.514  0.00  0.00    +0.000 N 
ATOM     10  C   UNL     1       1.055   2.844  19.750  0.00  0.00    +0.000 C 
ATOM     11  O   UNL     1       0.292   2.271  18.975  0.00  0.00    +0.000 OA
ATOM     12  C   UNL     1       1.555   2.156  21.023  0.00  0.00    +0.000 C 
ATOM     13  O   UNL     1       1.801   3.000  22.132  0.00  0.00    +0.000 OA
ATOM     14  C   UNL     1       2.536   4.145  21.745  0.00  0.00    +0.000 C 
ATOM     15  C   UNL     1       1.870   4.913  20.610  0.00  0.00    +0.000 C 
ATOM     16  O   UNL     1       1.659   6.119  20.683  0.00  0.00    +0.000 OA
ENDBRANCH   6   9
BRANCH   1  17
ATOM     17  C   UNL     1       6.130   6.093  16.148  0.00  0.00    +0.000 C 
BRANCH  17  18
ATOM     18  C   UNL     1       7.501   6.102  16.823  0.00  0.00    +0.000 C 
BRANCH  18  20
ATOM     19  C   UNL     1       7.808   5.748  19.286  0.00  0.00    +0.000 C 
ATOM     20  C   UNL     1       7.400   6.509  18.267  0.00  0.00    +0.000 C 
ENDBRANCH  18  20
ENDBRANCH  17  18
ENDBRANCH   1  17
TORSDOF 4
ENDMDL
MODEL 6
REMARK VINA RESULT:      -6.5      1.877      2.565
REMARK  Name = 
REMARK  4 active torsions:
REMARK  status: ('A' for Active; 'I' for Inactive)
REMARK    1  A    between atoms: C_2  and  C_3
REMARK    2  A    between atoms: C_3  and  C_4
REMARK    3  A    between atoms: C_4  and  C_5
REMARK    4  A    between atoms: C_10  and  N_11
REMARK                            x       y       z     vdW  Elec       q    Type
REMARK                         _______ _______ _______ _____ _____    ______ ____
ROOT
ATOM      1  C   UNL     1       5.772   6.491  16.488  0.00  0.00    +0.000 C 
ATOM      2  O   UNL     1       5.171   7.035  15.562  0.00  0.00    +0.000 OA
ATOM      3  N   UNL     1       5.093   5.856  17.524  0.00  0.00    +0.000 N 
ATOM      4  C   UNL     1       3.637   5.819  17.452  0.00  0.00    +0.000 C 
ATOM      5  C   UNL     1       3.018   6.093  18.820  0.00  0.00    +0.000 C 
ATOM      6  C   UNL     1       3.504   5.051  19.856  0.00  0.00    +0.000 C 
ATOM      7  C   UNL     1       5.044   5.133  19.896  0.00  0.00    +0.000 C 
ATOM      8  C   UNL     1       5.698   4.967  18.521  0.00  0.00    +0.000 C 
ENDROOT
BRANCH   6   9
ATOM      9  N   UNL     1       2.890   3.749  19.510  0.00  0.00    +0.000 N 
ATOM     10  C   UNL     1       1.500   3.659  19.640  0.00  0.00    +0.000 C 
ATOM     11  O   UNL     1       0.815   4.475  20.254  0.00  0.00    +0.000 OA
ATOM     12  C   UNL     1       0.856   2.501  18.872  0.00  0.00    +0.000 C 
ATOM     13  O   UNL     1       1.605   1.302  18.807  0.00  0.00    +0.000 OA
ATOM     14  C   UNL     1       2.954   1.565  18.471  0.00  0.00    +0.000 C 
ATOM     15  C   UNL     1       3.608   2.569  19.412  0.00  0.00    +0.000 C 
ATOM     16  O   UNL     1       4.679   2.335  19.963  0.00  0.00    +0.000 OA
ENDBRANCH   6   9
BRANCH   1  17
ATOM     17  C   UNL     1       7.290   6.480  16.518  0.00  0.00    +0.000 C 
BRANCH  17  18
ATOM     18  C   UNL     1       7.812   7.182  17.770  0.00  0.00    +0.000 C 
BRANCH  18  20
ATOM     19  C   UNL     1       8.568   9.511  18.311  0.00  0.00    +0.000 C 
ATOM     20  C   UNL     1       7.794   8.677  17.610  0.00  0.00    +0.000 C 
ENDBRANCH  18  20
ENDBRANCH  17  18
ENDBRANCH   1  17
TORSDOF 4
ENDMDL
MODEL 7
REMARK VINA RESULT:      -6.4      1.527      1.923
REMARK  Name = 
REMARK  4 active torsions:
REMARK  status: ('A' for Active; 'I' for Inactive)
REMARK    1  A    between atoms: C_2  and  C_3
REMARK    2  A    between atoms: C_3  and  C_4
REMARK    3  A    between atoms: C_4  and  C_5
REMARK    4  A    between atoms: C_10  and  N_11
REMARK                            x       y       z     vdW  Elec       q    Type
REMARK                         _______ _______ _______ _____ _____    ______ ____
ROOT
ATOM      1  C   UNL     1       7.696   7.107  18.269  0.00  0.00    +0.000 C 
ATOM      2  O   UNL     1       8.575   6.620  18.981  0.00  0.00    +0.000 OA
ATOM      3  N   UNL     1       6.520   6.417  17.988  0.00  0.00    +0.000 N 
ATOM      4  C   UNL     1       6.344   5.107  18.605  0.00  0.00    +0.000 C 
ATOM      5  C   UNL     1       5.750   4.113  17.610  0.00  0.00    +0.000 C 
ATOM      6  C   UNL     1       4.384   4.618  17.086  0.00  0.00    +0.000 C 
ATOM      7  C   UNL     1       4.626   6.000  16.443  0.00  0.00    +0.000 C 
ATOM      8  C   UNL     1       5.318   6.994  17.380  0.00  0.00    +0.000 C 
ENDROOT
BRANCH   6   9
ATOM      9  N   UNL     1       3.414   4.535  18.201  0.00  0.00    +0.000 N 
ATOM     10  C   UNL     1       3.105   3.253  18.667  0.00  0.00    +0.000 C 
ATOM     11  O   UNL     1       3.374   2.219  18.058  0.00  0.00    +0.000 OA
ATOM     12  C   UNL     1       2.480   3.210  20.064  0.00  0.00    +0.000 C 
ATOM     13  O   UNL     1       1.603   4.272  20.388  0.00  0.00    +0.000 OA
ATOM     14  C   UNL     1       2.161   5.519  20.022  0.00  0.00    +0.000 C 
ATOM     15  C   UNL     1       2.567   5.572  18.554  0.00  0.00    +0.000 C 
ATOM     16  O   UNL     1       2.200   6.480  17.815  0.00  0.00    +0.000 OA
ENDBRANCH   6   9
BRANCH   1  17
ATOM     17  C   UNL     1       7.863   8.499  17.686  0.00  0.00    +0.000 C 
BRANCH  17  18
ATOM     18  C   UNL     1       8.714   9.371  18.607  0.00  0.00    +0.000 C 
BRANCH  18  20
ATOM     19  C   UNL     1      10.130  11.362  18.042  0.00  0.00    +0.000 C 
ATOM     20  C   UNL     1       8.952  10.731  18.011  0.00  0.00    +0.000 C 
ENDBRANCH  18  20
ENDBRANCH  17  18
ENDBRANCH   1  17
TORSDOF 4
ENDMDL
MODEL 8
REMARK VINA RESULT:      -6.4      2.352      6.247
REMARK  Name = 
REMARK  4 active torsions:
REMARK  status: ('A' for Active; 'I' for Inactive)
REMARK    1  A    between atoms: C_2  and  C_3
REMARK    2  A    between atoms: C_3  and  C_4
REMARK    3  A    between atoms: C_4  and  C_5
REMARK    4  A    between atoms: C_10  and  N_11
REMARK                            x       y       z     vdW  Elec       q    Type
REMARK                         _______ _______ _______ _____ _____    ______ ____
ROOT
ATOM      1  C   UNL     1       2.007   2.374  18.675  0.00  0.00    +0.000 C 
ATOM      2  O   UNL     1       2.267   1.173  18.604  0.00  0.00    +0.000 OA
ATOM      3  N   UNL     1       2.999   3.344  18.554  0.00  0.00    +0.000 N 
ATOM      4  C   UNL     1       4.360   2.886  18.295  0.00  0.00    +0.000 C 
ATOM      5  C   UNL     1       5.366   3.676  19.128  0.00  0.00    +0.000 C 
ATOM      6  C   UNL     1       5.267   5.188  18.810  0.00  0.00    +0.000 C 
ATOM      7  C   UNL     1       3.815   5.620  19.101  0.00  0.00    +0.000 C 
ATOM      8  C   UNL     1       2.770   4.778  18.363  0.00  0.00    +0.000 C 
ENDROOT
BRANCH   6   9
ATOM      9  N   UNL     1       5.789   5.396  17.440  0.00  0.00    +0.000 N 
ATOM     10  C   UNL     1       7.069   4.898  17.175  0.00  0.00    +0.000 C 
ATOM     11  O   UNL     1       7.862   4.549  18.047  0.00  0.00    +0.000 OA
ATOM     12  C   UNL     1       7.395   4.721  15.690  0.00  0.00    +0.000 C 
ATOM     13  O   UNL     1       6.857   5.692  14.813  0.00  0.00    +0.000 OA
ATOM     14  C   UNL     1       5.493   5.933  15.099  0.00  0.00    +0.000 C 
ATOM     15  C   UNL     1       5.259   6.320  16.555  0.00  0.00    +0.000 C 
ATOM     16  O   UNL     1       4.623   7.322  16.862  0.00  0.00    +0.000 OA
ENDBRANCH   6   9
BRANCH   1  17
ATOM     17  C   UNL     1       0.576   2.840  18.878  0.00  0.00    +0.000 C 
BRANCH  17  18
ATOM     18  C   UNL     1       0.403   3.463  20.262  0.00  0.00    +0.000 C 
BRANCH  18  20
ATOM     19  C   UNL     1       2.240   3.361  21.966  0.00  0.00    +0.000 C 
ATOM     20  C   UNL     1       1.253   2.766  21.289  0.00  0.00    +0.000 C 
ENDBRANCH  18  20
ENDBRANCH  17  18
ENDBRANCH   1  17
TORSDOF 4
ENDMDL
MODEL 9
REMARK VINA RESULT:      -6.3      3.088      6.309
REMARK  Name = 
REMARK  4 active torsions:
REMARK  status: ('A' for Active; 'I' for Inactive)
REMARK    1  A    between atoms: C_2  and  C_3
REMARK    2  A    between atoms: C_3  and  C_4
REMARK    3  A    between atoms: C_4  and  C_5
REMARK    4  A    between atoms: C_10  and  N_11
REMARK                            x       y       z     vdW  Elec       q    Type
REMARK                         _______ _______ _______ _____ _____    ______ ____
ROOT
ATOM      1  C   UNL     1       1.494   8.282  20.164  0.00  0.00    +0.000 C 
ATOM      2  O   UNL     1       1.400   9.453  19.794  0.00  0.00    +0.000 OA
ATOM      3  N   UNL     1       2.312   7.372  19.502  0.00  0.00    +0.000 N 
ATOM      4  C   UNL     1       3.093   7.865  18.373  0.00  0.00    +0.000 C 
ATOM      5  C   UNL     1       3.078   6.863  17.223  0.00  0.00    +0.000 C 
ATOM      6  C   UNL     1       3.649   5.499  17.681  0.00  0.00    +0.000 C 
ATOM      7  C   UNL     1       2.790   5.022  18.870  0.00  0.00    +0.000 C 
ATOM      8  C   UNL     1       2.695   6.049  20.002  0.00  0.00    +0.000 C 
ENDROOT
BRANCH   6   9
ATOM      9  N   UNL     1       5.103   5.671  17.904  0.00  0.00    +0.000 N 
ATOM     10  C   UNL     1       5.816   6.333  16.900  0.00  0.00    +0.000 C 
ATOM     11  O   UNL     1       5.378   6.537  15.769  0.00  0.00    +0.000 OA
ATOM     12  C   UNL     1       7.176   6.887  17.335  0.00  0.00    +0.000 C 
ATOM     13  O   UNL     1       7.898   6.106  18.269  0.00  0.00    +0.000 OA
ATOM     14  C   UNL     1       7.061   5.679  19.326  0.00  0.00    +0.000 C 
ATOM     15  C   UNL     1       5.824   4.938  18.833  0.00  0.00    +0.000 C 
ATOM     16  O   UNL     1       5.512   3.837  19.274  0.00  0.00    +0.000 OA
ENDBRANCH   6   9
BRANCH   1  17
ATOM     17  C   UNL     1       0.726   7.797  21.382  0.00  0.00    +0.000 C 
BRANCH  17  18
ATOM     18  C   UNL     1      -0.501   8.672  21.630  0.00  0.00    +0.000 C 
BRANCH  18  20
ATOM     19  C   UNL     1      -0.983  10.632  23.119  0.00  0.00    +0.000 C 
ATOM     20  C   UNL     1      -0.360   9.471  22.896  0.00  0.00    +0.000 C 
ENDBRANCH  18  20
ENDBRANCH  17  18
ENDBRANCH   1  17
TORSDOF 4
ENDMDL
