MODEL 1
REMARK VINA RESULT:      -6.7      0.000      0.000
REMARK  Name = 
REMARK  11 active torsions:
REMARK  status: ('A' for Active; 'I' for Inactive)
REMARK    1  A    between atoms: C_1  and  O_2
REMARK    2  A    between atoms: O_2  and  C_3
REMARK    3  A    between atoms: C_15  and  N_16
REMARK    4  A    between atoms: N_16  and  C_17
REMARK    5  A    between atoms: C_17  and  C_18
REMARK    6  A    between atoms: C_18  and  N_19
REMARK    7  A    between atoms: N_19  and  C_20
REMARK    8  A    between atoms: C_20  and  C_21
REMARK    9  A    between atoms: C_21  and  O_22
REMARK   10  A    between atoms: C_21  and  C_23
REMARK   11  A    between atoms: C_23  and  O_24
REMARK                            x       y       z     vdW  Elec       q    Type
REMARK                         _______ _______ _______ _____ _____    ______ ____
ROOT
ATOM      1  C   UNL     1       5.265   5.364  17.269  0.00  0.00    +0.000 A 
ATOM      2  C   UNL     1       5.239   6.317  16.250  0.00  0.00    +0.000 A 
ATOM      3  C   UNL     1       4.353   7.391  16.340  0.00  0.00    +0.000 A 
ATOM      4  C   UNL     1       3.516   7.507  17.451  0.00  0.00    +0.000 A 
ATOM      5  N   UNL     1       2.690   8.570  17.562  0.00  0.00    +0.000 NA
ATOM      6  C   UNL     1       1.881   8.753  18.629  0.00  0.00    +0.000 A 
ATOM      7  C   UNL     1       1.091   9.910  18.659  0.00  0.00    +0.000 A 
ATOM      8  C   UNL     1       0.255  10.170  19.738  0.00  0.00    +0.000 A 
ATOM      9 CL   UNL     1      -0.717  11.628  19.779  0.00  0.00    +0.000 Cl
ATOM     10  C   UNL     1       0.197   9.273  20.790  0.00  0.00    +0.000 A 
ATOM     11  C   UNL     1       0.971   8.114  20.779  0.00  0.00    +0.000 A 
ATOM     12  C   UNL     1       1.852   7.805  19.699  0.00  0.00    +0.000 A 
ATOM     13  C   UNL     1       2.713   6.634  19.602  0.00  0.00    +0.000 A 
ATOM     14  C   UNL     1       3.550   6.532  18.464  0.00  0.00    +0.000 A 
ATOM     15  N   UNL     1       4.421   5.493  18.332  0.00  0.00    +0.000 NA
ENDROOT
BRANCH   1  17
ATOM     16  C   UNL     1       7.494   4.477  17.472  0.00  0.00    +0.000 C 
ATOM     17  O   UNL     1       6.148   4.341  17.206  0.00  0.00    +0.000 OA
ENDBRANCH   1  17
BRANCH  13  18
ATOM     18  N   UNL     1       2.807   5.566  20.573  0.00  0.00    +0.000 N 
ATOM     19  H   UNL     1       3.714   5.382  21.028  0.00  0.00    +0.000 HD
BRANCH  18  20
ATOM     20  C   UNL     1       1.729   4.688  20.946  0.00  0.00    +0.000 C 
BRANCH  20  21
ATOM     21  C   UNL     1       2.163   3.416  21.664  0.00  0.00    +0.000 C 
BRANCH  21  22
ATOM     22  N   UNL     1       2.521   2.441  20.627  0.00  0.00    +0.000 NA
ATOM     23  H   UNL     1       2.624   1.501  21.076  0.00  0.00    +0.000 HD
BRANCH  22  24
ATOM     24  C   UNL     1       1.517   2.352  19.571  0.00  0.00    +0.000 C 
BRANCH  24  25
ATOM     25  C   UNL     1       2.218   2.179  18.208  0.00  0.00    +0.000 C 
BRANCH  25  26
ATOM     26  O   UNL     1       2.353   3.416  17.548  0.00  0.00    +0.000 OA
ATOM     27  H   UNL     1       1.583   3.986  17.815  0.00  0.00    +0.000 HD
ENDBRANCH  25  26
BRANCH  25  28
ATOM     28  C   UNL     1       3.585   1.508  18.370  0.00  0.00    +0.000 C 
BRANCH  28  29
ATOM     29  O   UNL     1       4.561   2.455  18.709  0.00  0.00    +0.000 OA
ATOM     30  H   UNL     1       4.079   3.239  19.079  0.00  0.00    +0.000 HD
ENDBRANCH  28  29
ENDBRANCH  25  28
ENDBRANCH  24  25
ENDBRANCH  22  24
ENDBRANCH  21  22
ENDBRANCH  20  21
ENDBRANCH  18  20
ENDBRANCH  13  18
TORSDOF 10
ENDMDL
MODEL 2
REMARK VINA RESULT:      -6.7      1.579      4.158
REMARK  Name = 
REMARK  11 active torsions:
REMARK  status: ('A' for Active; 'I' for Inactive)
REMARK    1  A    between atoms: C_1  and  O_2
REMARK    2  A    between atoms: O_2  and  C_3
REMARK    3  A    between atoms: C_15  and  N_16
REMARK    4  A    between atoms: N_16  and  C_17
REMARK    5  A    between atoms: C_17  and  C_18
REMARK    6  A    between atoms: C_18  and  N_19
REMARK    7  A    between atoms: N_19  and  C_20
REMARK    8  A    between atoms: C_20  and  C_21
REMARK    9  A    between atoms: C_21  and  O_22
REMARK   10  A    between atoms: C_21  and  C_23
REMARK   11  A    between atoms: C_23  and  O_24
REMARK                            x       y       z     vdW  Elec       q    Type
REMARK                         _______ _______ _______ _____ _____    ______ ____
ROOT
ATOM      1  C   UNL     1       3.617   3.193  19.750  0.00  0.00    +0.000 A 
ATOM      2  C   UNL     1       2.854   3.282  20.915  0.00  0.00    +0.000 A 
ATOM      3  C   UNL     1       2.209   4.481  21.222  0.00  0.00    +0.000 A 
ATOM      4  C   UNL     1       2.324   5.570  20.356  0.00  0.00    +0.000 A 
ATOM      5  N   UNL     1       1.665   6.717  20.629  0.00  0.00    +0.000 NA
ATOM      6  C   UNL     1       1.712   7.793  19.812  0.00  0.00    +0.000 A 
ATOM      7  C   UNL     1       0.959   8.919  20.171  0.00  0.00    +0.000 A 
ATOM      8  C   UNL     1       0.945  10.049  19.364  0.00  0.00    +0.000 A 
ATOM      9 CL   UNL     1      -0.012  11.449  19.809  0.00  0.00    +0.000 Cl
ATOM     10  C   UNL     1       1.687  10.065  18.196  0.00  0.00    +0.000 A 
ATOM     11  C   UNL     1       2.446   8.957  17.821  0.00  0.00    +0.000 A 
ATOM     12  C   UNL     1       2.487   7.769  18.610  0.00  0.00    +0.000 A 
ATOM     13  C   UNL     1       3.231   6.556  18.297  0.00  0.00    +0.000 A 
ATOM     14  C   UNL     1       3.106   5.465  19.191  0.00  0.00    +0.000 A 
ATOM     15  N   UNL     1       3.728   4.280  18.935  0.00  0.00    +0.000 NA
ENDROOT
BRANCH   1  17
ATOM     16  C   UNL     1       3.683   1.117  18.534  0.00  0.00    +0.000 C 
ATOM     17  O   UNL     1       4.214   2.023  19.428  0.00  0.00    +0.000 OA
ENDBRANCH   1  17
BRANCH  13  18
ATOM     18  N   UNL     1       4.078   6.354  17.142  0.00  0.00    +0.000 N 
ATOM     19  H   UNL     1       3.735   5.765  16.368  0.00  0.00    +0.000 HD
BRANCH  18  20
ATOM     20  C   UNL     1       5.407   6.883  16.986  0.00  0.00    +0.000 C 
BRANCH  20  21
ATOM     21  C   UNL     1       6.409   6.410  18.033  0.00  0.00    +0.000 C 
BRANCH  21  22
ATOM     22  N   UNL     1       6.616   4.975  17.808  0.00  0.00    +0.000 NA
ATOM     23  H   UNL     1       5.700   4.483  17.935  0.00  0.00    +0.000 HD
BRANCH  22  24
ATOM     24  C   UNL     1       7.125   4.685  16.470  0.00  0.00    +0.000 C 
BRANCH  24  25
ATOM     25  C   UNL     1       6.195   3.670  15.775  0.00  0.00    +0.000 C 
BRANCH  25  26
ATOM     26  O   UNL     1       5.061   3.399  16.565  0.00  0.00    +0.000 OA
ATOM     27  H   UNL     1       5.154   2.474  16.919  0.00  0.00    +0.000 HD
ENDBRANCH  25  26
BRANCH  25  28
ATOM     28  C   UNL     1       5.774   4.164  14.388  0.00  0.00    +0.000 C 
BRANCH  28  29
ATOM     29  O   UNL     1       6.322   3.348  13.388  0.00  0.00    +0.000 OA
ATOM     30  H   UNL     1       5.657   2.631  13.212  0.00  0.00    +0.000 HD
ENDBRANCH  28  29
ENDBRANCH  25  28
ENDBRANCH  24  25
ENDBRANCH  22  24
ENDBRANCH  21  22
ENDBRANCH  20  21
ENDBRANCH  18  20
ENDBRANCH  13  18
TORSDOF 10
ENDMDL
MODEL 3
REMARK VINA RESULT:      -6.6      1.674      4.565
REMARK  Name = 
REMARK  11 active torsions:
REMARK  status: ('A' for Active; 'I' for Inactive)
REMARK    1  A    between atoms: C_1  and  O_2
REMARK    2  A    between atoms: O_2  and  C_3
REMARK    3  A    between atoms: C_15  and  N_16
REMARK    4  A    between atoms: N_16  and  C_17
REMARK    5  A    between atoms: C_17  and  C_18
REMARK    6  A    between atoms: C_18  and  N_19
REMARK    7  A    between atoms: N_19  and  C_20
REMARK    8  A    between atoms: C_20  and  C_21
REMARK    9  A    between atoms: C_21  and  O_22
REMARK   10  A    between atoms: C_21  and  C_23
REMARK   11  A    between atoms: C_23  and  O_24
REMARK                            x       y       z     vdW  Elec       q    Type
REMARK                         _______ _______ _______ _____ _____    ______ ____
ROOT
ATOM      1  C   UNL     1       2.985   2.931  19.666  0.00  0.00    +0.000 A 
ATOM      2  C   UNL     1       2.391   3.147  20.910  0.00  0.00    +0.000 A 
ATOM      3  C   UNL     1       1.967   4.432  21.252  0.00  0.00    +0.000 A 
ATOM      4  C   UNL     1       2.130   5.480  20.343  0.00  0.00    +0.000 A 
ATOM      5  N   UNL     1       1.681   6.715  20.654  0.00  0.00    +0.000 NA
ATOM      6  C   UNL     1       1.782   7.760  19.803  0.00  0.00    +0.000 A 
ATOM      7  C   UNL     1       1.248   8.989  20.212  0.00  0.00    +0.000 A 
ATOM      8  C   UNL     1       1.297  10.097  19.376  0.00  0.00    +0.000 A 
ATOM      9 CL   UNL     1       0.613  11.628  19.885  0.00  0.00    +0.000 Cl
ATOM     10  C   UNL     1       1.886   9.987  18.128  0.00  0.00    +0.000 A 
ATOM     11  C   UNL     1       2.426   8.774  17.702  0.00  0.00    +0.000 A 
ATOM     12  C   UNL     1       2.393   7.605  18.520  0.00  0.00    +0.000 A 
ATOM     13  C   UNL     1       2.910   6.291  18.160  0.00  0.00    +0.000 A 
ATOM     14  C   UNL     1       2.741   5.244  19.098  0.00  0.00    +0.000 A 
ATOM     15  N   UNL     1       3.150   3.977  18.809  0.00  0.00    +0.000 NA
ENDROOT
BRANCH   1  17
ATOM     16  C   UNL     1       4.006   1.383  18.131  0.00  0.00    +0.000 C 
ATOM     17  O   UNL     1       3.364   1.681  19.314  0.00  0.00    +0.000 OA
ENDBRANCH   1  17
BRANCH  13  18
ATOM     18  N   UNL     1       3.573   5.950  16.920  0.00  0.00    +0.000 N 
ATOM     19  H   UNL     1       3.142   5.246  16.301  0.00  0.00    +0.000 HD
BRANCH  18  20
ATOM     20  C   UNL     1       4.831   6.489  16.476  0.00  0.00    +0.000 C 
BRANCH  20  21
ATOM     21  C   UNL     1       5.729   5.496  15.749  0.00  0.00    +0.000 C 
BRANCH  21  22
ATOM     22  N   UNL     1       7.104   5.766  16.184  0.00  0.00    +0.000 NA
ATOM     23  H   UNL     1       7.634   6.171  15.377  0.00  0.00    +0.000 HD
BRANCH  22  24
ATOM     24  C   UNL     1       7.164   6.701  17.304  0.00  0.00    +0.000 C 
BRANCH  24  25
ATOM     25  C   UNL     1       7.732   5.982  18.544  0.00  0.00    +0.000 C 
BRANCH  25  26
ATOM     26  O   UNL     1       8.471   6.869  19.350  0.00  0.00    +0.000 OA
ATOM     27  H   UNL     1       9.399   6.517  19.414  0.00  0.00    +0.000 HD
ENDBRANCH  25  26
BRANCH  25  28
ATOM     28  C   UNL     1       6.617   5.321  19.360  0.00  0.00    +0.000 C 
BRANCH  28  29
ATOM     29  O   UNL     1       6.337   4.040  18.863  0.00  0.00    +0.000 OA
ATOM     30  H   UNL     1       6.945   3.414  19.336  0.00  0.00    +0.000 HD
ENDBRANCH  28  29
ENDBRANCH  25  28
ENDBRANCH  24  25
ENDBRANCH  22  24
ENDBRANCH  21  22
ENDBRANCH  20  21
ENDBRANCH  18  20
ENDBRANCH  13  18
TORSDOF 10
ENDMDL
MODEL 4
REMARK VINA RESULT:      -6.4      1.741      4.548
REMARK  Name = 
REMARK  11 active torsions:
REMARK  status: ('A' for Active; 'I' for Inactive)
REMARK    1  A    between atoms: C_1  and  O_2
REMARK    2  A    between atoms: O_2  and  C_3
REMARK    3  A    between atoms: C_15  and  N_16
REMARK    4  A    between atoms: N_16  and  C_17
REMARK    5  A    between atoms: C_17  and  C_18
REMARK    6  A    between atoms: C_18  and  N_19
REMARK    7  A    between atoms: N_19  and  C_20
REMARK    8  A    between atoms: C_20  and  C_21
REMARK    9  A    between atoms: C_21  and  O_22
REMARK   10  A    between atoms: C_21  and  C_23
REMARK   11  A    between atoms: C_23  and  O_24
REMARK                            x       y       z     vdW  Elec       q    Type
REMARK                         _______ _______ _______ _____ _____    ______ ____
ROOT
ATOM      1  C   UNL     1       3.630   3.077  19.938  0.00  0.00    +0.000 A 
ATOM      2  C   UNL     1       2.781   3.186  21.040  0.00  0.00    +0.000 A 
ATOM      3  C   UNL     1       2.116   4.390  21.275  0.00  0.00    +0.000 A 
ATOM      4  C   UNL     1       2.297   5.464  20.401  0.00  0.00    +0.000 A 
ATOM      5  N   UNL     1       1.620   6.615  20.602  0.00  0.00    +0.000 NA
ATOM      6  C   UNL     1       1.729   7.676  19.772  0.00  0.00    +0.000 A 
ATOM      7  C   UNL     1       0.953   8.808  20.052  0.00  0.00    +0.000 A 
ATOM      8  C   UNL     1       1.000   9.923  19.226  0.00  0.00    +0.000 A 
ATOM      9 CL   UNL     1       0.014  11.330  19.571  0.00  0.00    +0.000 Cl
ATOM     10  C   UNL     1       1.829   9.919  18.117  0.00  0.00    +0.000 A 
ATOM     11  C   UNL     1       2.613   8.804  17.821  0.00  0.00    +0.000 A 
ATOM     12  C   UNL     1       2.593   7.631  18.633  0.00  0.00    +0.000 A 
ATOM     13  C   UNL     1       3.357   6.413  18.399  0.00  0.00    +0.000 A 
ATOM     14  C   UNL     1       3.164   5.337  19.301  0.00  0.00    +0.000 A 
ATOM     15  N   UNL     1       3.803   4.149  19.114  0.00  0.00    +0.000 NA
ENDROOT
BRANCH   1  17
ATOM     16  C   UNL     1       3.880   1.051  18.662  0.00  0.00    +0.000 C 
ATOM     17  O   UNL     1       4.248   1.901  19.683  0.00  0.00    +0.000 OA
ENDBRANCH   1  17
BRANCH  13  18
ATOM     18  N   UNL     1       4.289   6.190  17.315  0.00  0.00    +0.000 N 
ATOM     19  H   UNL     1       4.963   6.933  17.074  0.00  0.00    +0.000 HD
BRANCH  18  20
ATOM     20  C   UNL     1       4.341   5.008  16.496  0.00  0.00    +0.000 C 
BRANCH  20  21
ATOM     21  C   UNL     1       5.746   4.527  16.158  0.00  0.00    +0.000 C 
BRANCH  21  22
ATOM     22  N   UNL     1       6.328   4.002  17.398  0.00  0.00    +0.000 NA
ATOM     23  H   UNL     1       6.426   2.963  17.304  0.00  0.00    +0.000 HD
BRANCH  22  24
ATOM     24  C   UNL     1       7.639   4.575  17.689  0.00  0.00    +0.000 C 
BRANCH  24  25
ATOM     25  C   UNL     1       7.489   5.690  18.743  0.00  0.00    +0.000 C 
BRANCH  25  26
ATOM     26  O   UNL     1       8.328   5.458  19.849  0.00  0.00    +0.000 OA
ATOM     27  H   UNL     1       8.011   4.631  20.301  0.00  0.00    +0.000 HD
ENDBRANCH  25  26
BRANCH  25  28
ATOM     28  C   UNL     1       7.773   7.068  18.136  0.00  0.00    +0.000 C 
BRANCH  28  29
ATOM     29  O   UNL     1       8.651   7.794  18.954  0.00  0.00    +0.000 OA
ATOM     30  H   UNL     1       8.844   7.221  19.742  0.00  0.00    +0.000 HD
ENDBRANCH  28  29
ENDBRANCH  25  28
ENDBRANCH  24  25
ENDBRANCH  22  24
ENDBRANCH  21  22
ENDBRANCH  20  21
ENDBRANCH  18  20
ENDBRANCH  13  18
TORSDOF 10
ENDMDL
MODEL 5
REMARK VINA RESULT:      -6.4      2.811      5.004
REMARK  Name = 
REMARK  11 active torsions:
REMARK  status: ('A' for Active; 'I' for Inactive)
REMARK    1  A    between atoms: C_1  and  O_2
REMARK    2  A    between atoms: O_2  and  C_3
REMARK    3  A    between atoms: C_15  and  N_16
REMARK    4  A    between atoms: N_16  and  C_17
REMARK    5  A    between atoms: C_17  and  C_18
REMARK    6  A    between atoms: C_18  and  N_19
REMARK    7  A    between atoms: N_19  and  C_20
REMARK    8  A    between atoms: C_20  and  C_21
REMARK    9  A    between atoms: C_21  and  O_22
REMARK   10  A    between atoms: C_21  and  C_23
REMARK   11  A    between atoms: C_23  and  O_24
REMARK                            x       y       z     vdW  Elec       q    Type
REMARK                         _______ _______ _______ _____ _____    ______ ____
ROOT
ATOM      1  C   UNL     1       0.754   9.191  20.099  0.00  0.00    +0.000 A 
ATOM      2  C   UNL     1       0.936  10.020  18.992  0.00  0.00    +0.000 A 
ATOM      3  C   UNL     1       1.842   9.646  17.997  0.00  0.00    +0.000 A 
ATOM      4  C   UNL     1       2.543   8.445  18.116  0.00  0.00    +0.000 A 
ATOM      5  N   UNL     1       3.387   8.060  17.135  0.00  0.00    +0.000 NA
ATOM      6  C   UNL     1       4.068   6.894  17.178  0.00  0.00    +0.000 A 
ATOM      7  C   UNL     1       4.888   6.575  16.087  0.00  0.00    +0.000 A 
ATOM      8  C   UNL     1       5.597   5.381  16.059  0.00  0.00    +0.000 A 
ATOM      9 CL   UNL     1       6.608   4.978  14.685  0.00  0.00    +0.000 Cl
ATOM     10  C   UNL     1       5.498   4.500  17.122  0.00  0.00    +0.000 A 
ATOM     11  C   UNL     1       4.690   4.799  18.219  0.00  0.00    +0.000 A 
ATOM     12  C   UNL     1       3.935   6.007  18.292  0.00  0.00    +0.000 A 
ATOM     13  C   UNL     1       3.051   6.402  19.381  0.00  0.00    +0.000 A 
ATOM     14  C   UNL     1       2.354   7.627  19.245  0.00  0.00    +0.000 A 
ATOM     15  N   UNL     1       1.469   8.034  20.198  0.00  0.00    +0.000 NA
ENDROOT
BRANCH   1  17
ATOM     16  C   UNL     1       0.176   9.737  22.371  0.00  0.00    +0.000 C 
ATOM     17  O   UNL     1      -0.149   9.529  21.047  0.00  0.00    +0.000 OA
ENDBRANCH   1  17
BRANCH  13  18
ATOM     18  N   UNL     1       2.805   5.648  20.591  0.00  0.00    +0.000 N 
ATOM     19  H   UNL     1       3.477   5.720  21.371  0.00  0.00    +0.000 HD
BRANCH  18  20
ATOM     20  C   UNL     1       1.698   4.753  20.799  0.00  0.00    +0.000 C 
BRANCH  20  21
ATOM     21  C   UNL     1       2.034   3.495  21.590  0.00  0.00    +0.000 C 
BRANCH  21  22
ATOM     22  N   UNL     1       2.006   2.375  20.643  0.00  0.00    +0.000 NA
ATOM     23  H   UNL     1       1.628   1.532  21.137  0.00  0.00    +0.000 HD
BRANCH  22  24
ATOM     24  C   UNL     1       1.175   2.649  19.475  0.00  0.00    +0.000 C 
BRANCH  24  25
ATOM     25  C   UNL     1       1.951   2.280  18.194  0.00  0.00    +0.000 C 
BRANCH  25  26
ATOM     26  O   UNL     1       1.875   3.314  17.241  0.00  0.00    +0.000 OA
ATOM     27  H   UNL     1       2.297   2.983  16.403  0.00  0.00    +0.000 HD
ENDBRANCH  25  26
BRANCH  25  28
ATOM     28  C   UNL     1       3.413   1.949  18.508  0.00  0.00    +0.000 C 
BRANCH  28  29
ATOM     29  O   UNL     1       3.564   0.577  18.752  0.00  0.00    +0.000 OA
ATOM     30  H   UNL     1       3.918   0.177  17.915  0.00  0.00    +0.000 HD
ENDBRANCH  28  29
ENDBRANCH  25  28
ENDBRANCH  24  25
ENDBRANCH  22  24
ENDBRANCH  21  22
ENDBRANCH  20  21
ENDBRANCH  18  20
ENDBRANCH  13  18
TORSDOF 10
ENDMDL
MODEL 6
REMARK VINA RESULT:      -6.3      0.846      1.065
REMARK  Name = 
REMARK  11 active torsions:
REMARK  status: ('A' for Active; 'I' for Inactive)
REMARK    1  A    between atoms: C_1  and  O_2
REMARK    2  A    between atoms: O_2  and  C_3
REMARK    3  A    between atoms: C_15  and  N_16
REMARK    4  A    between atoms: N_16  and  C_17
REMARK    5  A    between atoms: C_17  and  C_18
REMARK    6  A    between atoms: C_18  and  N_19
REMARK    7  A    between atoms: N_19  and  C_20
REMARK    8  A    between atoms: C_20  and  C_21
REMARK    9  A    between atoms: C_21  and  O_22
REMARK   10  A    between atoms: C_21  and  C_23
REMARK   11  A    between atoms: C_23  and  O_24
REMARK                            x       y       z     vdW  Elec       q    Type
REMARK                         _______ _______ _______ _____ _____    ______ ____
ROOT
ATOM      1  C   UNL     1       5.059   5.323  17.372  0.00  0.00    +0.000 A 
ATOM      2  C   UNL     1       4.994   6.289  16.368  0.00  0.00    +0.000 A 
ATOM      3  C   UNL     1       4.119   7.368  16.511  0.00  0.00    +0.000 A 
ATOM      4  C   UNL     1       3.333   7.473  17.660  0.00  0.00    +0.000 A 
ATOM      5  N   UNL     1       2.519   8.539  17.821  0.00  0.00    +0.000 NA
ATOM      6  C   UNL     1       1.759   8.712  18.925  0.00  0.00    +0.000 A 
ATOM      7  C   UNL     1       0.979   9.873  19.006  0.00  0.00    +0.000 A 
ATOM      8  C   UNL     1       0.193  10.123  20.124  0.00  0.00    +0.000 A 
ATOM      9 CL   UNL     1      -0.767  11.585  20.228  0.00  0.00    +0.000 Cl
ATOM     10  C   UNL     1       0.176   9.212  21.166  0.00  0.00    +0.000 A 
ATOM     11  C   UNL     1       0.942   8.048  21.104  0.00  0.00    +0.000 A 
ATOM     12  C   UNL     1       1.772   7.750  19.983  0.00  0.00    +0.000 A 
ATOM     13  C   UNL     1       2.621   6.575  19.832  0.00  0.00    +0.000 A 
ATOM     14  C   UNL     1       3.406   6.484  18.657  0.00  0.00    +0.000 A 
ATOM     15  N   UNL     1       4.264   5.441  18.472  0.00  0.00    +0.000 NA
ENDROOT
BRANCH   1  17
ATOM     16  C   UNL     1       7.215   4.436  16.771  0.00  0.00    +0.000 C 
ATOM     17  O   UNL     1       5.931   4.295  17.256  0.00  0.00    +0.000 OA
ENDBRANCH   1  17
BRANCH  13  18
ATOM     18  N   UNL     1       2.750   5.493  20.783  0.00  0.00    +0.000 N 
ATOM     19  H   UNL     1       3.665   5.325  21.228  0.00  0.00    +0.000 HD
BRANCH  18  20
ATOM     20  C   UNL     1       1.699   4.581  21.149  0.00  0.00    +0.000 C 
BRANCH  20  21
ATOM     21  C   UNL     1       0.963   3.951  19.973  0.00  0.00    +0.000 C 
BRANCH  21  22
ATOM     22  N   UNL     1       1.486   2.588  19.822  0.00  0.00    +0.000 NA
ATOM     23  H   UNL     1       0.685   1.916  19.881  0.00  0.00    +0.000 HD
BRANCH  22  24
ATOM     24  C   UNL     1       2.175   2.391  18.550  0.00  0.00    +0.000 C 
BRANCH  24  25
ATOM     25  C   UNL     1       3.540   1.721  18.803  0.00  0.00    +0.000 C 
BRANCH  25  26
ATOM     26  O   UNL     1       4.286   1.626  17.612  0.00  0.00    +0.000 OA
ATOM     27  H   UNL     1       4.985   2.333  17.637  0.00  0.00    +0.000 HD
ENDBRANCH  25  26
BRANCH  25  28
ATOM     28  C   UNL     1       4.336   2.473  19.874  0.00  0.00    +0.000 C 
BRANCH  28  29
ATOM     29  O   UNL     1       4.067   1.947  21.146  0.00  0.00    +0.000 OA
ATOM     30  H   UNL     1       3.281   2.442  21.496  0.00  0.00    +0.000 HD
ENDBRANCH  28  29
ENDBRANCH  25  28
ENDBRANCH  24  25
ENDBRANCH  22  24
ENDBRANCH  21  22
ENDBRANCH  20  21
ENDBRANCH  18  20
ENDBRANCH  13  18
TORSDOF 10
ENDMDL
MODEL 7
REMARK VINA RESULT:      -6.3      1.514      4.281
REMARK  Name = 
REMARK  11 active torsions:
REMARK  status: ('A' for Active; 'I' for Inactive)
REMARK    1  A    between atoms: C_1  and  O_2
REMARK    2  A    between atoms: O_2  and  C_3
REMARK    3  A    between atoms: C_15  and  N_16
REMARK    4  A    between atoms: N_16  and  C_17
REMARK    5  A    between atoms: C_17  and  C_18
REMARK    6  A    between atoms: C_18  and  N_19
REMARK    7  A    between atoms: N_19  and  C_20
REMARK    8  A    between atoms: C_20  and  C_21
REMARK    9  A    between atoms: C_21  and  O_22
REMARK   10  A    between atoms: C_21  and  C_23
REMARK   11  A    between atoms: C_23  and  O_24
REMARK                            x       y       z     vdW  Elec       q    Type
REMARK                         _______ _______ _______ _____ _____    ______ ____
ROOT
ATOM      1  C   UNL     1       3.427   3.147  19.841  0.00  0.00    +0.000 A 
ATOM      2  C   UNL     1       2.666   3.251  21.005  0.00  0.00    +0.000 A 
ATOM      3  C   UNL     1       2.047   4.463  21.314  0.00  0.00    +0.000 A 
ATOM      4  C   UNL     1       2.186   5.551  20.449  0.00  0.00    +0.000 A 
ATOM      5  N   UNL     1       1.552   6.711  20.722  0.00  0.00    +0.000 NA
ATOM      6  C   UNL     1       1.622   7.787  19.907  0.00  0.00    +0.000 A 
ATOM      7  C   UNL     1       0.894   8.929  20.267  0.00  0.00    +0.000 A 
ATOM      8  C   UNL     1       0.904  10.060  19.461  0.00  0.00    +0.000 A 
ATOM      9 CL   UNL     1      -0.021  11.479  19.907  0.00  0.00    +0.000 Cl
ATOM     10  C   UNL     1       1.647  10.061  18.293  0.00  0.00    +0.000 A 
ATOM     11  C   UNL     1       2.382   8.937  17.917  0.00  0.00    +0.000 A 
ATOM     12  C   UNL     1       2.397   7.748  18.705  0.00  0.00    +0.000 A 
ATOM     13  C   UNL     1       3.114   6.519  18.391  0.00  0.00    +0.000 A 
ATOM     14  C   UNL     1       2.965   5.430  19.284  0.00  0.00    +0.000 A 
ATOM     15  N   UNL     1       3.561   4.232  19.027  0.00  0.00    +0.000 NA
ENDROOT
BRANCH   1  17
ATOM     16  C   UNL     1       3.675   1.246  18.386  0.00  0.00    +0.000 C 
ATOM     17  O   UNL     1       3.998   1.964  19.517  0.00  0.00    +0.000 OA
ENDBRANCH   1  17
BRANCH  13  18
ATOM     18  N   UNL     1       3.957   6.299  17.236  0.00  0.00    +0.000 N 
ATOM     19  H   UNL     1       3.628   5.668  16.490  0.00  0.00    +0.000 HD
BRANCH  18  20
ATOM     20  C   UNL     1       5.265   6.868  17.044  0.00  0.00    +0.000 C 
BRANCH  20  21
ATOM     21  C   UNL     1       6.309   6.423  18.061  0.00  0.00    +0.000 C 
BRANCH  21  22
ATOM     22  N   UNL     1       6.514   4.984  17.861  0.00  0.00    +0.000 NA
ATOM     23  H   UNL     1       5.604   4.556  17.569  0.00  0.00    +0.000 HD
BRANCH  22  24
ATOM     24  C   UNL     1       7.518   4.699  16.839  0.00  0.00    +0.000 C 
BRANCH  24  25
ATOM     25  C   UNL     1       6.931   4.993  15.445  0.00  0.00    +0.000 C 
BRANCH  25  26
ATOM     26  O   UNL     1       7.940   5.371  14.539  0.00  0.00    +0.000 OA
ATOM     27  H   UNL     1       7.584   5.244  13.619  0.00  0.00    +0.000 HD
ENDBRANCH  25  26
BRANCH  25  28
ATOM     28  C   UNL     1       6.152   3.789  14.906  0.00  0.00    +0.000 C 
BRANCH  28  29
ATOM     29  O   UNL     1       5.681   2.996  15.961  0.00  0.00    +0.000 OA
ATOM     30  H   UNL     1       4.704   3.164  16.027  0.00  0.00    +0.000 HD
ENDBRANCH  28  29
ENDBRANCH  25  28
ENDBRANCH  24  25
ENDBRANCH  22  24
ENDBRANCH  21  22
ENDBRANCH  20  21
ENDBRANCH  18  20
ENDBRANCH  13  18
TORSDOF 10
ENDMDL
MODEL 8
REMARK VINA RESULT:      -6.3      2.139      4.761
REMARK  Name = 
REMARK  11 active torsions:
REMARK  status: ('A' for Active; 'I' for Inactive)
REMARK    1  A    between atoms: C_1  and  O_2
REMARK    2  A    between atoms: O_2  and  C_3
REMARK    3  A    between atoms: C_15  and  N_16
REMARK    4  A    between atoms: N_16  and  C_17
REMARK    5  A    between atoms: C_17  and  C_18
REMARK    6  A    between atoms: C_18  and  N_19
REMARK    7  A    between atoms: N_19  and  C_20
REMARK    8  A    between atoms: C_20  and  C_21
REMARK    9  A    between atoms: C_21  and  O_22
REMARK   10  A    between atoms: C_21  and  C_23
REMARK   11  A    between atoms: C_23  and  O_24
REMARK                            x       y       z     vdW  Elec       q    Type
REMARK                         _______ _______ _______ _____ _____    ______ ____
ROOT
ATOM      1  C   UNL     1       3.474   3.096  19.877  0.00  0.00    +0.000 A 
ATOM      2  C   UNL     1       2.706   3.202  21.037  0.00  0.00    +0.000 A 
ATOM      3  C   UNL     1       2.081   4.414  21.336  0.00  0.00    +0.000 A 
ATOM      4  C   UNL     1       2.221   5.498  20.467  0.00  0.00    +0.000 A 
ATOM      5  N   UNL     1       1.582   6.657  20.732  0.00  0.00    +0.000 NA
ATOM      6  C   UNL     1       1.653   7.729  19.912  0.00  0.00    +0.000 A 
ATOM      7  C   UNL     1       0.919   8.871  20.262  0.00  0.00    +0.000 A 
ATOM      8  C   UNL     1       0.931   9.998  19.451  0.00  0.00    +0.000 A 
ATOM      9 CL   UNL     1      -0.003  11.416  19.885  0.00  0.00    +0.000 Cl
ATOM     10  C   UNL     1       1.680   9.997  18.288  0.00  0.00    +0.000 A 
ATOM     11  C   UNL     1       2.421   8.873  17.922  0.00  0.00    +0.000 A 
ATOM     12  C   UNL     1       2.435   7.688  18.715  0.00  0.00    +0.000 A 
ATOM     13  C   UNL     1       3.159   6.460  18.411  0.00  0.00    +0.000 A 
ATOM     14  C   UNL     1       3.008   5.374  19.308  0.00  0.00    +0.000 A 
ATOM     15  N   UNL     1       3.610   4.178  19.059  0.00  0.00    +0.000 NA
ENDROOT
BRANCH   1  17
ATOM     16  C   UNL     1       3.779   1.216  18.405  0.00  0.00    +0.000 C 
ATOM     17  O   UNL     1       4.051   1.913  19.563  0.00  0.00    +0.000 OA
ENDBRANCH   1  17
BRANCH  13  18
ATOM     18  N   UNL     1       4.009   6.238  17.262  0.00  0.00    +0.000 N 
ATOM     19  H   UNL     1       3.639   5.703  16.461  0.00  0.00    +0.000 HD
BRANCH  18  20
ATOM     20  C   UNL     1       5.375   6.675  17.145  0.00  0.00    +0.000 C 
BRANCH  20  21
ATOM     21  C   UNL     1       6.269   5.761  16.316  0.00  0.00    +0.000 C 
BRANCH  21  22
ATOM     22  N   UNL     1       5.777   5.820  14.936  0.00  0.00    +0.000 NA
ATOM     23  H   UNL     1       6.511   6.271  14.340  0.00  0.00    +0.000 HD
BRANCH  22  24
ATOM     24  C   UNL     1       5.475   4.499  14.392  0.00  0.00    +0.000 C 
BRANCH  24  25
ATOM     25  C   UNL     1       6.704   3.965  13.628  0.00  0.00    +0.000 C 
BRANCH  25  26
ATOM     26  O   UNL     1       6.352   2.888  12.792  0.00  0.00    +0.000 OA
ATOM     27  H   UNL     1       5.398   2.670  12.966  0.00  0.00    +0.000 HD
ENDBRANCH  25  26
BRANCH  25  28
ATOM     28  C   UNL     1       7.376   5.076  12.815  0.00  0.00    +0.000 C 
BRANCH  28  29
ATOM     29  O   UNL     1       8.375   5.704  13.572  0.00  0.00    +0.000 OA
ATOM     30  H   UNL     1       7.910   6.249  14.259  0.00  0.00    +0.000 HD
ENDBRANCH  28  29
ENDBRANCH  25  28
ENDBRANCH  24  25
ENDBRANCH  22  24
ENDBRANCH  21  22
ENDBRANCH  20  21
ENDBRANCH  18  20
ENDBRANCH  13  18
TORSDOF 10
ENDMDL
MODEL 9
REMARK VINA RESULT:      -6.2      0.903      1.342
REMARK  Name = 
REMARK  11 active torsions:
REMARK  status: ('A' for Active; 'I' for Inactive)
REMARK    1  A    between atoms: C_1  and  O_2
REMARK    2  A    between atoms: O_2  and  C_3
REMARK    3  A    between atoms: C_15  and  N_16
REMARK    4  A    between atoms: N_16  and  C_17
REMARK    5  A    between atoms: C_17  and  C_18
REMARK    6  A    between atoms: C_18  and  N_19
REMARK    7  A    between atoms: N_19  and  C_20
REMARK    8  A    between atoms: C_20  and  C_21
REMARK    9  A    between atoms: C_21  and  O_22
REMARK   10  A    between atoms: C_21  and  C_23
REMARK   11  A    between atoms: C_23  and  O_24
REMARK                            x       y       z     vdW  Elec       q    Type
REMARK                         _______ _______ _______ _____ _____    ______ ____
ROOT
ATOM      1  C   UNL     1       4.990   5.369  17.420  0.00  0.00    +0.000 A 
ATOM      2  C   UNL     1       4.973   6.357  16.436  0.00  0.00    +0.000 A 
ATOM      3  C   UNL     1       4.117   7.451  16.578  0.00  0.00    +0.000 A 
ATOM      4  C   UNL     1       3.300   7.548  17.706  0.00  0.00    +0.000 A 
ATOM      5  N   UNL     1       2.504   8.626  17.868  0.00  0.00    +0.000 NA
ATOM      6  C   UNL     1       1.717   8.792  18.954  0.00  0.00    +0.000 A 
ATOM      7  C   UNL     1       0.958   9.967  19.038  0.00  0.00    +0.000 A 
ATOM      8  C   UNL     1       0.146  10.210  20.139  0.00  0.00    +0.000 A 
ATOM      9 CL   UNL     1      -0.787  11.689  20.248  0.00  0.00    +0.000 Cl
ATOM     10  C   UNL     1       0.081   9.278  21.160  0.00  0.00    +0.000 A 
ATOM     11  C   UNL     1       0.825   8.100  21.095  0.00  0.00    +0.000 A 
ATOM     12  C   UNL     1       1.680   7.808  19.991  0.00  0.00    +0.000 A 
ATOM     13  C   UNL     1       2.509   6.619  19.838  0.00  0.00    +0.000 A 
ATOM     14  C   UNL     1       3.325   6.536  18.683  0.00  0.00    +0.000 A 
ATOM     15  N   UNL     1       4.166   5.481  18.500  0.00  0.00    +0.000 NA
ENDROOT
BRANCH   1  17
ATOM     16  C   UNL     1       6.890   4.291  16.407  0.00  0.00    +0.000 C 
ATOM     17  O   UNL     1       5.845   4.326  17.306  0.00  0.00    +0.000 OA
ENDBRANCH   1  17
BRANCH  13  18
ATOM     18  N   UNL     1       2.589   5.515  20.769  0.00  0.00    +0.000 N 
ATOM     19  H   UNL     1       3.464   5.369  21.297  0.00  0.00    +0.000 HD
BRANCH  18  20
ATOM     20  C   UNL     1       1.546   4.553  21.006  0.00  0.00    +0.000 C 
BRANCH  20  21
ATOM     21  C   UNL     1       1.200   3.679  19.807  0.00  0.00    +0.000 C 
BRANCH  21  22
ATOM     22  N   UNL     1       1.867   2.388  20.012  0.00  0.00    +0.000 NA
ATOM     23  H   UNL     1       2.222   2.048  19.087  0.00  0.00    +0.000 HD
BRANCH  22  24
ATOM     24  C   UNL     1       2.988   2.479  20.943  0.00  0.00    +0.000 C 
BRANCH  24  25
ATOM     25  C   UNL     1       4.308   2.229  20.184  0.00  0.00    +0.000 C 
BRANCH  25  26
ATOM     26  O   UNL     1       5.261   1.611  21.016  0.00  0.00    +0.000 OA
ATOM     27  H   UNL     1       5.203   2.040  21.911  0.00  0.00    +0.000 HD
ENDBRANCH  25  26
BRANCH  25  28
ATOM     28  C   UNL     1       4.072   1.389  18.925  0.00  0.00    +0.000 C 
BRANCH  28  29
ATOM     29  O   UNL     1       3.980   2.213  17.795  0.00  0.00    +0.000 OA
ATOM     30  H   UNL     1       3.384   1.746  17.152  0.00  0.00    +0.000 HD
ENDBRANCH  28  29
ENDBRANCH  25  28
ENDBRANCH  24  25
ENDBRANCH  22  24
ENDBRANCH  21  22
ENDBRANCH  20  21
ENDBRANCH  18  20
ENDBRANCH  13  18
TORSDOF 10
ENDMDL
