MODEL 1
REMARK VINA RESULT:      -6.3      0.000      0.000
REMARK  Name = 
REMARK  13 active torsions:
REMARK  status: ('A' for Active; 'I' for Inactive)
REMARK    1  A    between atoms: C_1  and  C_2
REMARK    2  A    between atoms: C_2  and  C_3
REMARK    3  A    between atoms: C_3  and  C_4
REMARK    4  A    between atoms: C_4  and  C_5
REMARK    5  A    between atoms: N_7  and  C_8
REMARK    6  A    between atoms: C_8  and  C_9
REMARK    7  A    between atoms: C_9  and  C_10
REMARK    8  A    between atoms: C_10  and  C_11
REMARK    9  A    between atoms: C_11  and  O_12
REMARK   10  A    between atoms: C_11  and  P_13
REMARK   11  A    between atoms: C_11  and  P_17
REMARK   12  A    between atoms: P_13  and  O_16
REMARK   13  A    between atoms: P_17  and  O_20
REMARK                            x       y       z     vdW  Elec       q    Type
REMARK                         _______ _______ _______ _____ _____    ______ ____
ROOT
ATOM      1  C   UNL     1       3.101   3.790  19.380  0.00  0.00    +0.000 C 
ENDROOT
BRANCH   1   2
ATOM      2  P   UNL     1       2.262   3.171  20.883  0.00  0.00    +0.000 P 
ATOM      3  O   UNL     1       2.337   4.482  21.683  0.00  0.00    +0.000 OA
ATOM      4  O   UNL     1       0.931   2.879  20.178  0.00  0.00    +0.000 OA
BRANCH   2   5
ATOM      5  O   UNL     1       1.468   2.586  22.305  0.00  0.00    +0.000 OA
ATOM      6  H   UNL     1       1.296   3.477  22.681  0.00  0.00    +0.000 HD
ENDBRANCH   2   5
ENDBRANCH   1   2
BRANCH   1   7
ATOM      7  P   UNL     1       3.342   2.626  17.923  0.00  0.00    +0.000 P 
ATOM      8  O   UNL     1       3.314   1.200  18.407  0.00  0.00    +0.000 OA
ATOM      9  O   UNL     1       2.544   3.069  16.706  0.00  0.00    +0.000 OA
BRANCH   7  10
ATOM     10  O   UNL     1       4.895   2.919  17.548  0.00  0.00    +0.000 OA
ATOM     11  H   UNL     1       5.161   2.298  16.852  0.00  0.00    +0.000 HD
ENDBRANCH   7  10
ENDBRANCH   1   7
BRANCH   1  12
ATOM     12  O   UNL     1       4.452   4.170  19.816  0.00  0.00    +0.000 OA
ATOM     13  H   UNL     1       4.323   4.471  20.736  0.00  0.00    +0.000 HD
ENDBRANCH   1  12
BRANCH   1  14
ATOM     14  C   UNL     1       2.438   5.132  18.881  0.00  0.00    +0.000 C 
BRANCH  14  15
ATOM     15  C   UNL     1       3.388   6.314  19.020  0.00  0.00    +0.000 C 
BRANCH  15  16
ATOM     16  C   UNL     1       3.790   6.990  17.732  0.00  0.00    +0.000 C 
BRANCH  16  19
ATOM     17  C   UNL     1       6.135   5.298  15.588  0.00  0.00    +0.000 A 
ATOM     18  C   UNL     1       4.887   5.887  15.728  0.00  0.00    +0.000 A 
ATOM     19  N   UNL     1       4.845   6.239  17.050  0.00  0.00    +0.000 N 
ATOM     20  N   UNL     1       5.952   5.778  17.696  0.00  0.00    +0.000 NA
ATOM     21  N   UNL     1       6.760   5.228  16.795  0.00  0.00    +0.000 NA
BRANCH  17  22
ATOM     22  C   UNL     1       6.805   4.741  14.380  0.00  0.00    +0.000 C 
BRANCH  22  23
ATOM     23  C   UNL     1       5.809   3.999  13.494  0.00  0.00    +0.000 C 
BRANCH  23  25
ATOM     24  C   UNL     1       5.618   2.368  11.601  0.00  0.00    +0.000 C 
ATOM     25  C   UNL     1       6.481   3.438  12.245  0.00  0.00    +0.000 C 
ENDBRANCH  23  25
ENDBRANCH  22  23
ENDBRANCH  17  22
ENDBRANCH  16  19
ENDBRANCH  15  16
ENDBRANCH  14  15
ENDBRANCH   1  14
TORSDOF 12
ENDMDL
MODEL 2
REMARK VINA RESULT:      -6.3      1.683      2.574
REMARK  Name = 
REMARK  13 active torsions:
REMARK  status: ('A' for Active; 'I' for Inactive)
REMARK    1  A    between atoms: C_1  and  C_2
REMARK    2  A    between atoms: C_2  and  C_3
REMARK    3  A    between atoms: C_3  and  C_4
REMARK    4  A    between atoms: C_4  and  C_5
REMARK    5  A    between atoms: N_7  and  C_8
REMARK    6  A    between atoms: C_8  and  C_9
REMARK    7  A    between atoms: C_9  and  C_10
REMARK    8  A    between atoms: C_10  and  C_11
REMARK    9  A    between atoms: C_11  and  O_12
REMARK   10  A    between atoms: C_11  and  P_13
REMARK   11  A    between atoms: C_11  and  P_17
REMARK   12  A    between atoms: P_13  and  O_16
REMARK   13  A    between atoms: P_17  and  O_20
REMARK                            x       y       z     vdW  Elec       q    Type
REMARK                         _______ _______ _______ _____ _____    ______ ____
ROOT
ATOM      1  C   UNL     1       2.807   3.985  19.116  0.00  0.00    +0.000 C 
ENDROOT
BRANCH   1   2
ATOM      2  P   UNL     1       2.295   5.527  19.957  0.00  0.00    +0.000 P 
ATOM      3  O   UNL     1       2.313   4.966  21.388  0.00  0.00    +0.000 OA
ATOM      4  O   UNL     1       3.530   6.328  19.523  0.00  0.00    +0.000 OA
BRANCH   2   5
ATOM      5  O   UNL     1       1.810   6.986  20.752  0.00  0.00    +0.000 OA
ATOM      6  H   UNL     1       2.632   7.071  21.285  0.00  0.00    +0.000 HD
ENDBRANCH   2   5
ENDBRANCH   1   2
BRANCH   1   7
ATOM      7  P   UNL     1       1.653   2.502  19.146  0.00  0.00    +0.000 P 
ATOM      8  O   UNL     1       1.461   2.041  20.567  0.00  0.00    +0.000 OA
ATOM      9  O   UNL     1       0.474   2.681  18.202  0.00  0.00    +0.000 OA
BRANCH   7  10
ATOM     10  O   UNL     1       2.590   1.369  18.453  0.00  0.00    +0.000 OA
ATOM     11  H   UNL     1       3.257   1.092  19.100  0.00  0.00    +0.000 HD
ENDBRANCH   7  10
ENDBRANCH   1   7
BRANCH   1  12
ATOM     12  O   UNL     1       4.032   3.554  19.805  0.00  0.00    +0.000 OA
ATOM     13  H   UNL     1       4.258   4.314  20.375  0.00  0.00    +0.000 HD
ENDBRANCH   1  12
BRANCH   1  14
ATOM     14  C   UNL     1       3.253   4.279  17.632  0.00  0.00    +0.000 C 
BRANCH  14  15
ATOM     15  C   UNL     1       4.639   3.720  17.340  0.00  0.00    +0.000 C 
BRANCH  15  16
ATOM     16  C   UNL     1       5.747   4.738  17.217  0.00  0.00    +0.000 C 
BRANCH  16  19
ATOM     17  C   UNL     1       6.765   4.360  13.785  0.00  0.00    +0.000 A 
ATOM     18  C   UNL     1       6.020   3.872  14.848  0.00  0.00    +0.000 A 
ATOM     19  N   UNL     1       6.328   4.725  15.874  0.00  0.00    +0.000 N 
ATOM     20  N   UNL     1       7.295   5.600  15.485  0.00  0.00    +0.000 NA
ATOM     21  N   UNL     1       7.542   5.400  14.194  0.00  0.00    +0.000 NA
BRANCH  17  22
ATOM     22  C   UNL     1       6.839   3.898  12.371  0.00  0.00    +0.000 C 
BRANCH  22  23
ATOM     23  C   UNL     1       5.536   3.231  11.945  0.00  0.00    +0.000 C 
BRANCH  23  25
ATOM     24  C   UNL     1       7.215   1.643  10.973  0.00  0.00    +0.000 C 
ATOM     25  C   UNL     1       5.775   1.818  11.423  0.00  0.00    +0.000 C 
ENDBRANCH  23  25
ENDBRANCH  22  23
ENDBRANCH  17  22
ENDBRANCH  16  19
ENDBRANCH  15  16
ENDBRANCH  14  15
ENDBRANCH   1  14
TORSDOF 12
ENDMDL
MODEL 3
REMARK VINA RESULT:      -6.2      1.167      2.839
REMARK  Name = 
REMARK  13 active torsions:
REMARK  status: ('A' for Active; 'I' for Inactive)
REMARK    1  A    between atoms: C_1  and  C_2
REMARK    2  A    between atoms: C_2  and  C_3
REMARK    3  A    between atoms: C_3  and  C_4
REMARK    4  A    between atoms: C_4  and  C_5
REMARK    5  A    between atoms: N_7  and  C_8
REMARK    6  A    between atoms: C_8  and  C_9
REMARK    7  A    between atoms: C_9  and  C_10
REMARK    8  A    between atoms: C_10  and  C_11
REMARK    9  A    between atoms: C_11  and  O_12
REMARK   10  A    between atoms: C_11  and  P_13
REMARK   11  A    between atoms: C_11  and  P_17
REMARK   12  A    between atoms: P_13  and  O_16
REMARK   13  A    between atoms: P_17  and  O_20
REMARK                            x       y       z     vdW  Elec       q    Type
REMARK                         _______ _______ _______ _____ _____    ______ ____
ROOT
ATOM      1  C   UNL     1       2.989   4.133  19.080  0.00  0.00    +0.000 C 
ENDROOT
BRANCH   1   2
ATOM      2  P   UNL     1       3.578   2.425  18.793  0.00  0.00    +0.000 P 
ATOM      3  O   UNL     1       2.194   1.754  18.804  0.00  0.00    +0.000 OA
ATOM      4  O   UNL     1       4.180   2.724  17.414  0.00  0.00    +0.000 OA
BRANCH   2   5
ATOM      5  O   UNL     1       4.135   0.809  18.523  0.00  0.00    +0.000 OA
ATOM      6  H   UNL     1       3.281   0.483  18.160  0.00  0.00    +0.000 HD
ENDBRANCH   2   5
ENDBRANCH   1   2
BRANCH   1   7
ATOM      7  P   UNL     1       1.965   4.502  20.613  0.00  0.00    +0.000 P 
ATOM      8  O   UNL     1       2.498   3.709  21.777  0.00  0.00    +0.000 OA
ATOM      9  O   UNL     1       1.646   5.983  20.738  0.00  0.00    +0.000 OA
BRANCH   7  10
ATOM     10  O   UNL     1       0.558   3.791  20.221  0.00  0.00    +0.000 OA
ATOM     11  H   UNL     1       0.359   3.123  20.896  0.00  0.00    +0.000 HD
ENDBRANCH   7  10
ENDBRANCH   1   7
BRANCH   1  12
ATOM     12  O   UNL     1       2.122   4.444  17.934  0.00  0.00    +0.000 OA
ATOM     13  H   UNL     1       2.452   5.308  17.621  0.00  0.00    +0.000 HD
ENDBRANCH   1  12
BRANCH   1  14
ATOM     14  C   UNL     1       4.183   5.159  18.981  0.00  0.00    +0.000 C 
BRANCH  14  15
ATOM     15  C   UNL     1       3.818   6.366  18.127  0.00  0.00    +0.000 C 
BRANCH  15  16
ATOM     16  C   UNL     1       4.939   6.955  17.305  0.00  0.00    +0.000 C 
BRANCH  16  19
ATOM     17  C   UNL     1       6.289   4.506  15.038  0.00  0.00    +0.000 A 
ATOM     18  C   UNL     1       5.221   5.320  15.386  0.00  0.00    +0.000 A 
ATOM     19  N   UNL     1       5.637   5.916  16.546  0.00  0.00    +0.000 N 
ATOM     20  N   UNL     1       6.833   5.398  16.940  0.00  0.00    +0.000 NA
ATOM     21  N   UNL     1       7.251   4.556  16.000  0.00  0.00    +0.000 NA
BRANCH  17  22
ATOM     22  C   UNL     1       6.479   3.624  13.853  0.00  0.00    +0.000 C 
BRANCH  22  23
ATOM     23  C   UNL     1       5.677   4.132  12.659  0.00  0.00    +0.000 C 
BRANCH  23  25
ATOM     24  C   UNL     1       3.833   3.310  11.174  0.00  0.00    +0.000 C 
ATOM     25  C   UNL     1       5.182   2.982  11.788  0.00  0.00    +0.000 C 
ENDBRANCH  23  25
ENDBRANCH  22  23
ENDBRANCH  17  22
ENDBRANCH  16  19
ENDBRANCH  15  16
ENDBRANCH  14  15
ENDBRANCH   1  14
TORSDOF 12
ENDMDL
MODEL 4
REMARK VINA RESULT:      -6.2      1.395      2.851
REMARK  Name = 
REMARK  13 active torsions:
REMARK  status: ('A' for Active; 'I' for Inactive)
REMARK    1  A    between atoms: C_1  and  C_2
REMARK    2  A    between atoms: C_2  and  C_3
REMARK    3  A    between atoms: C_3  and  C_4
REMARK    4  A    between atoms: C_4  and  C_5
REMARK    5  A    between atoms: N_7  and  C_8
REMARK    6  A    between atoms: C_8  and  C_9
REMARK    7  A    between atoms: C_9  and  C_10
REMARK    8  A    between atoms: C_10  and  C_11
REMARK    9  A    between atoms: C_11  and  O_12
REMARK   10  A    between atoms: C_11  and  P_13
REMARK   11  A    between atoms: C_11  and  P_17
REMARK   12  A    between atoms: P_13  and  O_16
REMARK   13  A    between atoms: P_17  and  O_20
REMARK                            x       y       z     vdW  Elec       q    Type
REMARK                         _______ _______ _______ _____ _____    ______ ____
ROOT
ATOM      1  C   UNL     1       3.119   4.030  19.338  0.00  0.00    +0.000 C 
ENDROOT
BRANCH   1   2
ATOM      2  P   UNL     1       3.733   2.349  18.956  0.00  0.00    +0.000 P 
ATOM      3  O   UNL     1       4.661   2.216  20.174  0.00  0.00    +0.000 OA
ATOM      4  O   UNL     1       2.357   1.679  19.071  0.00  0.00    +0.000 OA
BRANCH   2   5
ATOM      5  O   UNL     1       4.313   0.759  18.594  0.00  0.00    +0.000 OA
ATOM      6  H   UNL     1       5.034   1.064  17.999  0.00  0.00    +0.000 HD
ENDBRANCH   2   5
ENDBRANCH   1   2
BRANCH   1   7
ATOM      7  P   UNL     1       1.870   4.253  20.725  0.00  0.00    +0.000 P 
ATOM      8  O   UNL     1       2.312   3.468  21.932  0.00  0.00    +0.000 OA
ATOM      9  O   UNL     1       1.404   5.696  20.841  0.00  0.00    +0.000 OA
BRANCH   7  10
ATOM     10  O   UNL     1       0.598   3.437  20.128  0.00  0.00    +0.000 OA
ATOM     11  H   UNL     1       0.596   2.551  20.522  0.00  0.00    +0.000 HD
ENDBRANCH   7  10
ENDBRANCH   1   7
BRANCH   1  12
ATOM     12  O   UNL     1       2.444   4.485  18.114  0.00  0.00    +0.000 OA
ATOM     13  H   UNL     1       1.712   3.848  18.001  0.00  0.00    +0.000 HD
ENDBRANCH   1  12
BRANCH   1  14
ATOM     14  C   UNL     1       4.321   5.031  19.541  0.00  0.00    +0.000 C 
BRANCH  14  15
ATOM     15  C   UNL     1       4.678   5.751  18.248  0.00  0.00    +0.000 C 
BRANCH  15  16
ATOM     16  C   UNL     1       6.142   5.760  17.881  0.00  0.00    +0.000 C 
BRANCH  16  19
ATOM     17  C   UNL     1       6.072   4.789  14.416  0.00  0.00    +0.000 A 
ATOM     18  C   UNL     1       5.428   4.801  15.644  0.00  0.00    +0.000 A 
ATOM     19  N   UNL     1       6.336   5.398  16.476  0.00  0.00    +0.000 N 
ATOM     20  N   UNL     1       7.505   5.621  15.816  0.00  0.00    +0.000 NA
ATOM     21  N   UNL     1       7.337   5.278  14.543  0.00  0.00    +0.000 NA
BRANCH  17  22
ATOM     22  C   UNL     1       5.600   4.310  13.087  0.00  0.00    +0.000 C 
BRANCH  22  23
ATOM     23  C   UNL     1       6.072   2.885  12.820  0.00  0.00    +0.000 C 
BRANCH  23  25
ATOM     24  C   UNL     1       6.920   1.368  11.013  0.00  0.00    +0.000 C 
ATOM     25  C   UNL     1       6.881   2.795  11.530  0.00  0.00    +0.000 C 
ENDBRANCH  23  25
ENDBRANCH  22  23
ENDBRANCH  17  22
ENDBRANCH  16  19
ENDBRANCH  15  16
ENDBRANCH  14  15
ENDBRANCH   1  14
TORSDOF 12
ENDMDL
MODEL 5
REMARK VINA RESULT:      -6.1      3.697      6.184
REMARK  Name = 
REMARK  13 active torsions:
REMARK  status: ('A' for Active; 'I' for Inactive)
REMARK    1  A    between atoms: C_1  and  C_2
REMARK    2  A    between atoms: C_2  and  C_3
REMARK    3  A    between atoms: C_3  and  C_4
REMARK    4  A    between atoms: C_4  and  C_5
REMARK    5  A    between atoms: N_7  and  C_8
REMARK    6  A    between atoms: C_8  and  C_9
REMARK    7  A    between atoms: C_9  and  C_10
REMARK    8  A    between atoms: C_10  and  C_11
REMARK    9  A    between atoms: C_11  and  O_12
REMARK   10  A    between atoms: C_11  and  P_13
REMARK   11  A    between atoms: C_11  and  P_17
REMARK   12  A    between atoms: P_13  and  O_16
REMARK   13  A    between atoms: P_17  and  O_20
REMARK                            x       y       z     vdW  Elec       q    Type
REMARK                         _______ _______ _______ _____ _____    ______ ____
ROOT
ATOM      1  C   UNL     1       5.808   5.298  16.391  0.00  0.00    +0.000 C 
ENDROOT
BRANCH   1   2
ATOM      2  P   UNL     1       6.312   4.741  14.723  0.00  0.00    +0.000 P 
ATOM      3  O   UNL     1       7.725   5.347  14.750  0.00  0.00    +0.000 OA
ATOM      4  O   UNL     1       6.206   3.245  15.048  0.00  0.00    +0.000 OA
BRANCH   2   5
ATOM      5  O   UNL     1       6.788   4.214  13.144  0.00  0.00    +0.000 OA
ATOM      6  H   UNL     1       6.577   3.267  13.303  0.00  0.00    +0.000 HD
ENDBRANCH   2   5
ENDBRANCH   1   2
BRANCH   1   7
ATOM      7  P   UNL     1       7.039   5.172  17.807  0.00  0.00    +0.000 P 
ATOM      8  O   UNL     1       7.794   6.469  17.935  0.00  0.00    +0.000 OA
ATOM      9  O   UNL     1       6.439   4.477  19.019  0.00  0.00    +0.000 OA
BRANCH   7  10
ATOM     10  O   UNL     1       8.109   4.115  17.191  0.00  0.00    +0.000 OA
ATOM     11  H   UNL     1       8.704   4.599  16.599  0.00  0.00    +0.000 HD
ENDBRANCH   7  10
ENDBRANCH   1   7
BRANCH   1  12
ATOM     12  O   UNL     1       4.678   4.437  16.764  0.00  0.00    +0.000 OA
ATOM     13  H   UNL     1       4.332   4.848  17.581  0.00  0.00    +0.000 HD
ENDBRANCH   1  12
BRANCH   1  14
ATOM     14  C   UNL     1       5.212   6.758  16.336  0.00  0.00    +0.000 C 
BRANCH  14  15
ATOM     15  C   UNL     1       4.614   7.171  17.674  0.00  0.00    +0.000 C 
BRANCH  15  16
ATOM     16  C   UNL     1       3.122   7.406  17.684  0.00  0.00    +0.000 C 
BRANCH  16  19
ATOM     17  C   UNL     1       1.566   4.994  19.856  0.00  0.00    +0.000 A 
ATOM     18  C   UNL     1       1.960   5.332  18.570  0.00  0.00    +0.000 A 
ATOM     19  N   UNL     1       2.469   6.595  18.712  0.00  0.00    +0.000 N 
ATOM     20  N   UNL     1       2.278   7.039  19.985  0.00  0.00    +0.000 NA
ATOM     21  N   UNL     1       1.753   6.047  20.697  0.00  0.00    +0.000 NA
BRANCH  17  22
ATOM     22  C   UNL     1       0.973   3.731  20.379  0.00  0.00    +0.000 C 
BRANCH  22  23
ATOM     23  C   UNL     1       2.010   2.613  20.411  0.00  0.00    +0.000 C 
BRANCH  23  25
ATOM     24  C   UNL     1       3.338   1.648  18.517  0.00  0.00    +0.000 C 
ATOM     25  C   UNL     1       1.960   1.767  19.143  0.00  0.00    +0.000 C 
ENDBRANCH  23  25
ENDBRANCH  22  23
ENDBRANCH  17  22
ENDBRANCH  16  19
ENDBRANCH  15  16
ENDBRANCH  14  15
ENDBRANCH   1  14
TORSDOF 12
ENDMDL
MODEL 6
REMARK VINA RESULT:      -6.1      1.429      2.430
REMARK  Name = 
REMARK  13 active torsions:
REMARK  status: ('A' for Active; 'I' for Inactive)
REMARK    1  A    between atoms: C_1  and  C_2
REMARK    2  A    between atoms: C_2  and  C_3
REMARK    3  A    between atoms: C_3  and  C_4
REMARK    4  A    between atoms: C_4  and  C_5
REMARK    5  A    between atoms: N_7  and  C_8
REMARK    6  A    between atoms: C_8  and  C_9
REMARK    7  A    between atoms: C_9  and  C_10
REMARK    8  A    between atoms: C_10  and  C_11
REMARK    9  A    between atoms: C_11  and  O_12
REMARK   10  A    between atoms: C_11  and  P_13
REMARK   11  A    between atoms: C_11  and  P_17
REMARK   12  A    between atoms: P_13  and  O_16
REMARK   13  A    between atoms: P_17  and  O_20
REMARK                            x       y       z     vdW  Elec       q    Type
REMARK                         _______ _______ _______ _____ _____    ______ ____
ROOT
ATOM      1  C   UNL     1       3.301   3.734  18.559  0.00  0.00    +0.000 C 
ENDROOT
BRANCH   1   2
ATOM      2  P   UNL     1       4.218   2.717  19.773  0.00  0.00    +0.000 P 
ATOM      3  O   UNL     1       3.996   1.364  19.078  0.00  0.00    +0.000 OA
ATOM      4  O   UNL     1       5.569   3.400  19.521  0.00  0.00    +0.000 OA
BRANCH   2   5
ATOM      5  O   UNL     1       5.084   1.756  20.923  0.00  0.00    +0.000 OA
ATOM      6  H   UNL     1       4.322   1.647  21.535  0.00  0.00    +0.000 HD
ENDBRANCH   2   5
ENDBRANCH   1   2
BRANCH   1   7
ATOM      7  P   UNL     1       1.460   3.434  18.321  0.00  0.00    +0.000 P 
ATOM      8  O   UNL     1       0.772   3.438  19.660  0.00  0.00    +0.000 OA
ATOM      9  O   UNL     1       0.908   4.216  17.139  0.00  0.00    +0.000 OA
BRANCH   7  10
ATOM     10  O   UNL     1       1.461   1.880  17.846  0.00  0.00    +0.000 OA
ATOM     11  H   UNL     1       0.683   1.735  17.286  0.00  0.00    +0.000 HD
ENDBRANCH   7  10
ENDBRANCH   1   7
BRANCH   1  12
ATOM     12  O   UNL     1       3.926   3.446  17.260  0.00  0.00    +0.000 OA
ATOM     13  H   UNL     1       4.281   4.310  16.976  0.00  0.00    +0.000 HD
ENDBRANCH   1  12
BRANCH   1  14
ATOM     14  C   UNL     1       3.560   5.270  18.807  0.00  0.00    +0.000 C 
BRANCH  14  15
ATOM     15  C   UNL     1       3.790   6.019  17.502  0.00  0.00    +0.000 C 
BRANCH  15  16
ATOM     16  C   UNL     1       5.182   6.567  17.294  0.00  0.00    +0.000 C 
BRANCH  16  19
ATOM     17  C   UNL     1       6.535   4.812  14.458  0.00  0.00    +0.000 A 
ATOM     18  C   UNL     1       5.428   5.389  15.061  0.00  0.00    +0.000 A 
ATOM     19  N   UNL     1       5.903   5.801  16.277  0.00  0.00    +0.000 N 
ATOM     20  N   UNL     1       7.188   5.386  16.446  0.00  0.00    +0.000 NA
ATOM     21  N   UNL     1       7.590   4.807  15.319  0.00  0.00    +0.000 NA
BRANCH  17  22
ATOM     22  C   UNL     1       6.688   4.211  13.104  0.00  0.00    +0.000 C 
BRANCH  22  23
ATOM     23  C   UNL     1       5.591   3.186  12.833  0.00  0.00    +0.000 C 
BRANCH  23  25
ATOM     24  C   UNL     1       7.292   2.097  11.348  0.00  0.00    +0.000 C 
ATOM     25  C   UNL     1       5.825   2.451  11.518  0.00  0.00    +0.000 C 
ENDBRANCH  23  25
ENDBRANCH  22  23
ENDBRANCH  17  22
ENDBRANCH  16  19
ENDBRANCH  15  16
ENDBRANCH  14  15
ENDBRANCH   1  14
TORSDOF 12
ENDMDL
MODEL 7
REMARK VINA RESULT:      -6.1      1.594      3.094
REMARK  Name = 
REMARK  13 active torsions:
REMARK  status: ('A' for Active; 'I' for Inactive)
REMARK    1  A    between atoms: C_1  and  C_2
REMARK    2  A    between atoms: C_2  and  C_3
REMARK    3  A    between atoms: C_3  and  C_4
REMARK    4  A    between atoms: C_4  and  C_5
REMARK    5  A    between atoms: N_7  and  C_8
REMARK    6  A    between atoms: C_8  and  C_9
REMARK    7  A    between atoms: C_9  and  C_10
REMARK    8  A    between atoms: C_10  and  C_11
REMARK    9  A    between atoms: C_11  and  O_12
REMARK   10  A    between atoms: C_11  and  P_13
REMARK   11  A    between atoms: C_11  and  P_17
REMARK   12  A    between atoms: P_13  and  O_16
REMARK   13  A    between atoms: P_17  and  O_20
REMARK                            x       y       z     vdW  Elec       q    Type
REMARK                         _______ _______ _______ _____ _____    ______ ____
ROOT
ATOM      1  C   UNL     1       2.898   4.865  18.908  0.00  0.00    +0.000 C 
ENDROOT
BRANCH   1   2
ATOM      2  P   UNL     1       2.952   3.139  18.304  0.00  0.00    +0.000 P 
ATOM      3  O   UNL     1       2.790   2.464  19.675  0.00  0.00    +0.000 OA
ATOM      4  O   UNL     1       1.682   3.261  17.450  0.00  0.00    +0.000 OA
BRANCH   2   5
ATOM      5  O   UNL     1       3.003   1.507  17.732  0.00  0.00    +0.000 OA
ATOM      6  H   UNL     1       2.759   1.732  16.807  0.00  0.00    +0.000 HD
ENDBRANCH   2   5
ENDBRANCH   1   2
BRANCH   1   7
ATOM      7  P   UNL     1       1.788   5.289  20.365  0.00  0.00    +0.000 P 
ATOM      8  O   UNL     1       1.731   6.784  20.536  0.00  0.00    +0.000 OA
ATOM      9  O   UNL     1       0.529   4.437  20.386  0.00  0.00    +0.000 OA
BRANCH   7  10
ATOM     10  O   UNL     1       2.691   4.753  21.605  0.00  0.00    +0.000 OA
ATOM     11  H   UNL     1       2.237   4.982  22.431  0.00  0.00    +0.000 HD
ENDBRANCH   7  10
ENDBRANCH   1   7
BRANCH   1  12
ATOM     12  O   UNL     1       2.395   5.658  17.777  0.00  0.00    +0.000 OA
ATOM     13  H   UNL     1       3.173   6.174  17.490  0.00  0.00    +0.000 HD
ENDBRANCH   1  12
BRANCH   1  14
ATOM     14  C   UNL     1       4.354   5.410  19.175  0.00  0.00    +0.000 C 
BRANCH  14  15
ATOM     15  C   UNL     1       5.416   4.391  18.786  0.00  0.00    +0.000 C 
BRANCH  15  16
ATOM     16  C   UNL     1       6.753   4.958  18.373  0.00  0.00    +0.000 C 
BRANCH  16  19
ATOM     17  C   UNL     1       6.775   4.543  14.797  0.00  0.00    +0.000 A 
ATOM     18  C   UNL     1       6.542   3.978  16.042  0.00  0.00    +0.000 A 
ATOM     19  N   UNL     1       6.891   4.972  16.916  0.00  0.00    +0.000 N 
ATOM     20  N   UNL     1       7.421   6.029  16.240  0.00  0.00    +0.000 NA
ATOM     21  N   UNL     1       7.321   5.781  14.937  0.00  0.00    +0.000 NA
BRANCH  17  22
ATOM     22  C   UNL     1       6.552   3.987  13.433  0.00  0.00    +0.000 C 
BRANCH  22  23
ATOM     23  C   UNL     1       5.068   3.750  13.174  0.00  0.00    +0.000 C 
BRANCH  23  25
ATOM     24  C   UNL     1       5.623   2.051  11.417  0.00  0.00    +0.000 C 
ATOM     25  C   UNL     1       4.816   3.296  11.740  0.00  0.00    +0.000 C 
ENDBRANCH  23  25
ENDBRANCH  22  23
ENDBRANCH  17  22
ENDBRANCH  16  19
ENDBRANCH  15  16
ENDBRANCH  14  15
ENDBRANCH   1  14
TORSDOF 12
ENDMDL
MODEL 8
REMARK VINA RESULT:      -6.0      0.920      1.505
REMARK  Name = 
REMARK  13 active torsions:
REMARK  status: ('A' for Active; 'I' for Inactive)
REMARK    1  A    between atoms: C_1  and  C_2
REMARK    2  A    between atoms: C_2  and  C_3
REMARK    3  A    between atoms: C_3  and  C_4
REMARK    4  A    between atoms: C_4  and  C_5
REMARK    5  A    between atoms: N_7  and  C_8
REMARK    6  A    between atoms: C_8  and  C_9
REMARK    7  A    between atoms: C_9  and  C_10
REMARK    8  A    between atoms: C_10  and  C_11
REMARK    9  A    between atoms: C_11  and  O_12
REMARK   10  A    between atoms: C_11  and  P_13
REMARK   11  A    between atoms: C_11  and  P_17
REMARK   12  A    between atoms: P_13  and  O_16
REMARK   13  A    between atoms: P_17  and  O_20
REMARK                            x       y       z     vdW  Elec       q    Type
REMARK                         _______ _______ _______ _____ _____    ______ ____
ROOT
ATOM      1  C   UNL     1       2.970   3.864  19.110  0.00  0.00    +0.000 C 
ENDROOT
BRANCH   1   2
ATOM      2  P   UNL     1       2.469   3.566  20.844  0.00  0.00    +0.000 P 
ATOM      3  O   UNL     1       0.957   3.481  20.582  0.00  0.00    +0.000 OA
ATOM      4  O   UNL     1       3.215   2.230  20.967  0.00  0.00    +0.000 OA
BRANCH   2   5
ATOM      5  O   UNL     1       1.996   3.284  22.485  0.00  0.00    +0.000 OA
ATOM      6  H   UNL     1       2.563   2.490  22.603  0.00  0.00    +0.000 HD
ENDBRANCH   2   5
ENDBRANCH   1   2
BRANCH   1   7
ATOM      7  P   UNL     1       2.686   2.515  17.832  0.00  0.00    +0.000 P 
ATOM      8  O   UNL     1       2.103   3.120  16.582  0.00  0.00    +0.000 OA
ATOM      9  O   UNL     1       3.848   1.536  17.774  0.00  0.00    +0.000 OA
BRANCH   7  10
ATOM     10  O   UNL     1       1.464   1.693  18.518  0.00  0.00    +0.000 OA
ATOM     11  H   UNL     1       1.743   0.771  18.625  0.00  0.00    +0.000 HD
ENDBRANCH   7  10
ENDBRANCH   1   7
BRANCH   1  12
ATOM     12  O   UNL     1       4.424   4.074  19.156  0.00  0.00    +0.000 OA
ATOM     13  H   UNL     1       4.658   3.881  20.084  0.00  0.00    +0.000 HD
ENDBRANCH   1  12
BRANCH   1  14
ATOM     14  C   UNL     1       2.375   5.227  18.583  0.00  0.00    +0.000 C 
BRANCH  14  15
ATOM     15  C   UNL     1       3.288   6.401  18.904  0.00  0.00    +0.000 C 
BRANCH  15  16
ATOM     16  C   UNL     1       3.694   7.260  17.731  0.00  0.00    +0.000 C 
BRANCH  16  19
ATOM     17  C   UNL     1       6.261   5.694  15.751  0.00  0.00    +0.000 A 
ATOM     18  C   UNL     1       4.922   5.743  16.110  0.00  0.00    +0.000 A 
ATOM     19  N   UNL     1       4.882   6.720  17.068  0.00  0.00    +0.000 N 
ATOM     20  N   UNL     1       6.142   7.148  17.358  0.00  0.00    +0.000 NA
ATOM     21  N   UNL     1       6.987   6.543  16.529  0.00  0.00    +0.000 NA
BRANCH  17  22
ATOM     22  C   UNL     1       6.951   4.864  14.725  0.00  0.00    +0.000 C 
BRANCH  22  23
ATOM     23  C   UNL     1       6.113   3.646  14.353  0.00  0.00    +0.000 C 
BRANCH  23  25
ATOM     24  C   UNL     1       6.816   3.388  11.961  0.00  0.00    +0.000 C 
ATOM     25  C   UNL     1       5.662   3.701  12.897  0.00  0.00    +0.000 C 
ENDBRANCH  23  25
ENDBRANCH  22  23
ENDBRANCH  17  22
ENDBRANCH  16  19
ENDBRANCH  15  16
ENDBRANCH  14  15
ENDBRANCH   1  14
TORSDOF 12
ENDMDL
MODEL 9
REMARK VINA RESULT:      -6.0      3.031      4.895
REMARK  Name = 
REMARK  13 active torsions:
REMARK  status: ('A' for Active; 'I' for Inactive)
REMARK    1  A    between atoms: C_1  and  C_2
REMARK    2  A    between atoms: C_2  and  C_3
REMARK    3  A    between atoms: C_3  and  C_4
REMARK    4  A    between atoms: C_4  and  C_5
REMARK    5  A    between atoms: N_7  and  C_8
REMARK    6  A    between atoms: C_8  and  C_9
REMARK    7  A    between atoms: C_9  and  C_10
REMARK    8  A    between atoms: C_10  and  C_11
REMARK    9  A    between atoms: C_11  and  O_12
REMARK   10  A    between atoms: C_11  and  P_13
REMARK   11  A    between atoms: C_11  and  P_17
REMARK   12  A    between atoms: P_13  and  O_16
REMARK   13  A    between atoms: P_17  and  O_20
REMARK                            x       y       z     vdW  Elec       q    Type
REMARK                         _______ _______ _______ _____ _____    ______ ____
ROOT
ATOM      1  C   UNL     1       2.990   4.097  18.154  0.00  0.00    +0.000 C 
ENDROOT
BRANCH   1   2
ATOM      2  P   UNL     1       3.447   2.348  18.438  0.00  0.00    +0.000 P 
ATOM      3  O   UNL     1       4.425   2.604  19.596  0.00  0.00    +0.000 OA
ATOM      4  O   UNL     1       2.031   1.905  18.827  0.00  0.00    +0.000 OA
BRANCH   2   5
ATOM      5  O   UNL     1       3.880   0.694  18.705  0.00  0.00    +0.000 OA
ATOM      6  H   UNL     1       4.722   0.899  19.169  0.00  0.00    +0.000 HD
ENDBRANCH   2   5
ENDBRANCH   1   2
BRANCH   1   7
ATOM      7  P   UNL     1       2.803   5.244  19.632  0.00  0.00    +0.000 P 
ATOM      8  O   UNL     1       2.315   6.590  19.166  0.00  0.00    +0.000 OA
ATOM      9  O   UNL     1       2.174   4.537  20.822  0.00  0.00    +0.000 OA
BRANCH   7  10
ATOM     10  O   UNL     1       4.359   5.473  20.042  0.00  0.00    +0.000 OA
ATOM     11  H   UNL     1       4.382   5.980  20.868  0.00  0.00    +0.000 HD
ENDBRANCH   7  10
ENDBRANCH   1   7
BRANCH   1  12
ATOM     12  O   UNL     1       1.670   4.055  17.510  0.00  0.00    +0.000 OA
ATOM     13  H   UNL     1       1.164   3.425  18.058  0.00  0.00    +0.000 HD
ENDBRANCH   1  12
BRANCH   1  14
ATOM     14  C   UNL     1       3.946   4.759  17.088  0.00  0.00    +0.000 C 
BRANCH  14  15
ATOM     15  C   UNL     1       4.761   3.715  16.338  0.00  0.00    +0.000 C 
BRANCH  15  16
ATOM     16  C   UNL     1       6.102   4.174  15.818  0.00  0.00    +0.000 C 
BRANCH  16  19
ATOM     17  C   UNL     1       7.487   6.975  17.606  0.00  0.00    +0.000 A 
ATOM     18  C   UNL     1       7.378   5.598  17.486  0.00  0.00    +0.000 A 
ATOM     19  N   UNL     1       6.506   5.434  16.444  0.00  0.00    +0.000 N 
ATOM     20  N   UNL     1       6.022   6.641  16.040  0.00  0.00    +0.000 NA
ATOM     21  N   UNL     1       6.647   7.591  16.730  0.00  0.00    +0.000 NA
BRANCH  17  22
ATOM     22  C   UNL     1       8.318   7.797  18.529  0.00  0.00    +0.000 C 
BRANCH  22  23
ATOM     23  C   UNL     1       8.320   9.262  18.105  0.00  0.00    +0.000 C 
BRANCH  23  25
ATOM     24  C   UNL     1       9.887  11.209  18.303  0.00  0.00    +0.000 C 
ATOM     25  C   UNL     1       9.146  10.120  19.058  0.00  0.00    +0.000 C 
ENDBRANCH  23  25
ENDBRANCH  22  23
ENDBRANCH  17  22
ENDBRANCH  16  19
ENDBRANCH  15  16
ENDBRANCH  14  15
ENDBRANCH   1  14
TORSDOF 12
ENDMDL
