MODEL 1
REMARK VINA RESULT:      -7.1      0.000      0.000
REMARK  Name = 
REMARK  5 active torsions:
REMARK  status: ('A' for Active; 'I' for Inactive)
REMARK    1  A    between atoms: C_1  and  N_2
REMARK    2  A    between atoms: N_2  and  C_3
REMARK    3  A    between atoms: N_2  and  C_4
REMARK    4  A    between atoms: C_4  and  C_5
REMARK    5  A    between atoms: C_5  and  C_6
REMARK                            x       y       z     vdW  Elec       q    Type
REMARK                         _______ _______ _______ _____ _____    ______ ____
ROOT
ATOM      1  C   UNL     1       4.000   6.376  17.190  0.00  0.00    +0.000 C 
ATOM      2  C   UNL     1       3.232   6.415  18.321  0.00  0.00    +0.000 C 
ATOM      3  C   UNL     1       2.484   7.733  18.578  0.00  0.00    +0.000 A 
ATOM      4  C   UNL     1       2.612   8.877  17.747  0.00  0.00    +0.000 A 
ATOM      5  C   UNL     1       1.936  10.082  17.989  0.00  0.00    +0.000 A 
ATOM      6  C   UNL     1       1.105  10.201  19.087  0.00  0.00    +0.000 A 
ATOM      7  C   UNL     1       0.957   9.109  19.926  0.00  0.00    +0.000 A 
ATOM      8  C   UNL     1       1.633   7.889  19.687  0.00  0.00    +0.000 A 
ATOM      9  S   UNL     1       1.289   6.651  20.900  0.00  0.00    +0.000 S 
ATOM     10  C   UNL     1       2.286   5.274  20.421  0.00  0.00    +0.000 A 
ATOM     11  C   UNL     1       2.164   4.172  21.307  0.00  0.00    +0.000 A 
ATOM     12  C   UNL     1       2.849   2.987  21.105  0.00  0.00    +0.000 A 
ATOM     13  C   UNL     1       3.670   2.896  20.008  0.00  0.00    +0.000 A 
ATOM     14 CL   UNL     1       4.544   1.442  19.700  0.00  0.00    +0.000 Cl
ATOM     15  C   UNL     1       3.794   3.980  19.131  0.00  0.00    +0.000 A 
ATOM     16  C   UNL     1       3.118   5.216  19.287  0.00  0.00    +0.000 A 
ENDROOT
BRANCH   1  17
ATOM     17  C   UNL     1       4.910   5.289  16.702  0.00  0.00    +0.000 C 
BRANCH  17  18
ATOM     18  C   UNL     1       6.138   5.622  15.841  0.00  0.00    +0.000 C 
BRANCH  18  20
ATOM     19  C   UNL     1       7.443   6.993  17.357  0.00  0.00    +0.000 C 
ATOM     20  N   UNL     1       7.348   5.694  16.695  0.00  0.00    +0.000 NA
ATOM     21  C   UNL     1       7.414   4.621  17.692  0.00  0.00    +0.000 C 
ENDBRANCH  18  20
ENDBRANCH  17  18
ENDBRANCH   1  17
TORSDOF 3
ENDMDL
MODEL 2
REMARK VINA RESULT:      -6.8      0.868      1.144
REMARK  Name = 
REMARK  5 active torsions:
REMARK  status: ('A' for Active; 'I' for Inactive)
REMARK    1  A    between atoms: C_1  and  N_2
REMARK    2  A    between atoms: N_2  and  C_3
REMARK    3  A    between atoms: N_2  and  C_4
REMARK    4  A    between atoms: C_4  and  C_5
REMARK    5  A    between atoms: C_5  and  C_6
REMARK                            x       y       z     vdW  Elec       q    Type
REMARK                         _______ _______ _______ _____ _____    ______ ____
ROOT
ATOM      1  C   UNL     1       3.816   6.831  17.209  0.00  0.00    +0.000 C 
ATOM      2  C   UNL     1       3.055   6.816  18.344  0.00  0.00    +0.000 C 
ATOM      3  C   UNL     1       2.301   8.117  18.664  0.00  0.00    +0.000 A 
ATOM      4  C   UNL     1       2.419   9.297  17.883  0.00  0.00    +0.000 A 
ATOM      5  C   UNL     1       1.738  10.487  18.182  0.00  0.00    +0.000 A 
ATOM      6  C   UNL     1       0.912  10.553  19.288  0.00  0.00    +0.000 A 
ATOM      7  C   UNL     1       0.775   9.424  20.079  0.00  0.00    +0.000 A 
ATOM      8  C   UNL     1       1.456   8.220  19.783  0.00  0.00    +0.000 A 
ATOM      9  S   UNL     1       1.125   6.928  20.942  0.00  0.00    +0.000 S 
ATOM     10  C   UNL     1       2.126   5.578  20.397  0.00  0.00    +0.000 A 
ATOM     11  C   UNL     1       2.015   4.438  21.235  0.00  0.00    +0.000 A 
ATOM     12  C   UNL     1       2.706   3.267  20.977  0.00  0.00    +0.000 A 
ATOM     13  C   UNL     1       3.520   3.229  19.872  0.00  0.00    +0.000 A 
ATOM     14 CL   UNL     1       4.401   1.794  19.496  0.00  0.00    +0.000 Cl
ATOM     15  C   UNL     1       3.634   4.351  19.043  0.00  0.00    +0.000 A 
ATOM     16  C   UNL     1       2.952   5.575  19.257  0.00  0.00    +0.000 A 
ENDROOT
BRANCH   1  17
ATOM     17  C   UNL     1       4.730   5.772  16.668  0.00  0.00    +0.000 C 
BRANCH  17  18
ATOM     18  C   UNL     1       5.441   5.963  15.320  0.00  0.00    +0.000 C 
BRANCH  18  20
ATOM     19  C   UNL     1       6.968   4.511  16.521  0.00  0.00    +0.000 C 
ATOM     20  N   UNL     1       6.569   5.007  15.206  0.00  0.00    +0.000 NA
ATOM     21  C   UNL     1       6.279   3.879  14.314  0.00  0.00    +0.000 C 
ENDBRANCH  18  20
ENDBRANCH  17  18
ENDBRANCH   1  17
TORSDOF 3
ENDMDL
MODEL 3
REMARK VINA RESULT:      -6.7      2.409      4.502
REMARK  Name = 
REMARK  5 active torsions:
REMARK  status: ('A' for Active; 'I' for Inactive)
REMARK    1  A    between atoms: C_1  and  N_2
REMARK    2  A    between atoms: N_2  and  C_3
REMARK    3  A    between atoms: N_2  and  C_4
REMARK    4  A    between atoms: C_4  and  C_5
REMARK    5  A    between atoms: C_5  and  C_6
REMARK                            x       y       z     vdW  Elec       q    Type
REMARK                         _______ _______ _______ _____ _____    ______ ____
ROOT
ATOM      1  C   UNL     1       2.070   5.409  20.858  0.00  0.00    +0.000 C 
ATOM      2  C   UNL     1       2.185   6.458  19.990  0.00  0.00    +0.000 C 
ATOM      3  C   UNL     1       1.379   7.716  20.348  0.00  0.00    +0.000 A 
ATOM      4  C   UNL     1       0.509   7.792  21.468  0.00  0.00    +0.000 A 
ATOM      5  C   UNL     1      -0.234   8.938  21.788  0.00  0.00    +0.000 A 
ATOM      6  C   UNL     1      -0.148  10.063  20.990  0.00  0.00    +0.000 A 
ATOM      7  C   UNL     1       0.685  10.028  19.884  0.00  0.00    +0.000 A 
ATOM      8  C   UNL     1       1.440   8.877  19.557  0.00  0.00    +0.000 A 
ATOM      9  S   UNL     1       2.418   9.076  18.099  0.00  0.00    +0.000 S 
ATOM     10  C   UNL     1       3.198   7.507  17.873  0.00  0.00    +0.000 A 
ATOM     11  C   UNL     1       4.017   7.462  16.715  0.00  0.00    +0.000 A 
ATOM     12  C   UNL     1       4.731   6.330  16.363  0.00  0.00    +0.000 A 
ATOM     13  C   UNL     1       4.627   5.226  17.172  0.00  0.00    +0.000 A 
ATOM     14 CL   UNL     1       5.498   3.787  16.788  0.00  0.00    +0.000 Cl
ATOM     15  C   UNL     1       3.820   5.264  18.315  0.00  0.00    +0.000 A 
ATOM     16  C   UNL     1       3.068   6.394  18.725  0.00  0.00    +0.000 A 
ENDROOT
BRANCH   1  17
ATOM     17  C   UNL     1       2.647   4.028  20.756  0.00  0.00    +0.000 C 
BRANCH  17  18
ATOM     18  C   UNL     1       1.744   2.790  20.861  0.00  0.00    +0.000 C 
BRANCH  18  20
ATOM     19  C   UNL     1       0.919   2.714  18.583  0.00  0.00    +0.000 C 
ATOM     20  N   UNL     1       1.754   2.048  19.578  0.00  0.00    +0.000 NA
ATOM     21  C   UNL     1       3.104   1.845  19.041  0.00  0.00    +0.000 C 
ENDBRANCH  18  20
ENDBRANCH  17  18
ENDBRANCH   1  17
TORSDOF 3
ENDMDL
MODEL 4
REMARK VINA RESULT:      -6.7      1.103      1.461
REMARK  Name = 
REMARK  5 active torsions:
REMARK  status: ('A' for Active; 'I' for Inactive)
REMARK    1  A    between atoms: C_1  and  N_2
REMARK    2  A    between atoms: N_2  and  C_3
REMARK    3  A    between atoms: N_2  and  C_4
REMARK    4  A    between atoms: C_4  and  C_5
REMARK    5  A    between atoms: C_5  and  C_6
REMARK                            x       y       z     vdW  Elec       q    Type
REMARK                         _______ _______ _______ _____ _____    ______ ____
ROOT
ATOM      1  C   UNL     1       4.239   6.083  17.353  0.00  0.00    +0.000 C 
ATOM      2  C   UNL     1       3.405   6.145  18.434  0.00  0.00    +0.000 C 
ATOM      3  C   UNL     1       2.622   7.456  18.603  0.00  0.00    +0.000 A 
ATOM      4  C   UNL     1       2.782   8.575  17.743  0.00  0.00    +0.000 A 
ATOM      5  C   UNL     1       2.074   9.776  17.905  0.00  0.00    +0.000 A 
ATOM      6  C   UNL     1       1.177   9.915  18.947  0.00  0.00    +0.000 A 
ATOM      7  C   UNL     1       0.996   8.848  19.811  0.00  0.00    +0.000 A 
ATOM      8  C   UNL     1       1.704   7.633  19.654  0.00  0.00    +0.000 A 
ATOM      9  S   UNL     1       1.308   6.429  20.884  0.00  0.00    +0.000 S 
ATOM     10  C   UNL     1       2.353   5.055  20.511  0.00  0.00    +0.000 A 
ATOM     11  C   UNL     1       2.196   3.981  21.425  0.00  0.00    +0.000 A 
ATOM     12  C   UNL     1       2.910   2.802  21.303  0.00  0.00    +0.000 A 
ATOM     13  C   UNL     1       3.796   2.690  20.260  0.00  0.00    +0.000 A 
ATOM     14 CL   UNL     1       4.710   1.242  20.053  0.00  0.00    +0.000 Cl
ATOM     15  C   UNL     1       3.955   3.747  19.356  0.00  0.00    +0.000 A 
ATOM     16  C   UNL     1       3.252   4.975  19.431  0.00  0.00    +0.000 A 
ENDROOT
BRANCH   1  17
ATOM     17  C   UNL     1       5.194   4.997  16.955  0.00  0.00    +0.000 C 
BRANCH  17  18
ATOM     18  C   UNL     1       4.942   4.152  15.698  0.00  0.00    +0.000 C 
BRANCH  18  20
ATOM     19  C   UNL     1       6.020   3.878  13.543  0.00  0.00    +0.000 C 
ATOM     20  N   UNL     1       6.222   3.908  14.990  0.00  0.00    +0.000 NA
ATOM     21  C   UNL     1       7.262   4.886  15.327  0.00  0.00    +0.000 C 
ENDBRANCH  18  20
ENDBRANCH  17  18
ENDBRANCH   1  17
TORSDOF 3
ENDMDL
MODEL 5
REMARK VINA RESULT:      -6.5      3.111      5.950
REMARK  Name = 
REMARK  5 active torsions:
REMARK  status: ('A' for Active; 'I' for Inactive)
REMARK    1  A    between atoms: C_1  and  N_2
REMARK    2  A    between atoms: N_2  and  C_3
REMARK    3  A    between atoms: N_2  and  C_4
REMARK    4  A    between atoms: C_4  and  C_5
REMARK    5  A    between atoms: C_5  and  C_6
REMARK                            x       y       z     vdW  Elec       q    Type
REMARK                         _______ _______ _______ _____ _____    ______ ____
ROOT
ATOM      1  C   UNL     1       2.415   6.775  18.068  0.00  0.00    +0.000 C 
ATOM      2  C   UNL     1       3.257   5.702  18.162  0.00  0.00    +0.000 C 
ATOM      3  C   UNL     1       2.586   4.342  18.410  0.00  0.00    +0.000 A 
ATOM      4  C   UNL     1       1.187   4.187  18.597  0.00  0.00    +0.000 A 
ATOM      5  C   UNL     1       0.577   2.945  18.833  0.00  0.00    +0.000 A 
ATOM      6  C   UNL     1       1.345   1.799  18.903  0.00  0.00    +0.000 A 
ATOM      7  C   UNL     1       2.715   1.909  18.731  0.00  0.00    +0.000 A 
ATOM      8  C   UNL     1       3.338   3.156  18.490  0.00  0.00    +0.000 A 
ATOM      9  S   UNL     1       5.092   3.039  18.313  0.00  0.00    +0.000 S 
ATOM     10  C   UNL     1       5.626   4.708  18.091  0.00  0.00    +0.000 A 
ATOM     11  C   UNL     1       7.035   4.820  17.958  0.00  0.00    +0.000 A 
ATOM     12  C   UNL     1       7.659   6.039  17.760  0.00  0.00    +0.000 A 
ATOM     13  C   UNL     1       6.872   7.163  17.696  0.00  0.00    +0.000 A 
ATOM     14 CL   UNL     1       7.593   8.710  17.444  0.00  0.00    +0.000 Cl
ATOM     15  C   UNL     1       5.483   7.057  17.827  0.00  0.00    +0.000 A 
ATOM     16  C   UNL     1       4.790   5.838  18.031  0.00  0.00    +0.000 A 
ENDROOT
BRANCH   1  17
ATOM     17  C   UNL     1       2.748   8.230  17.920  0.00  0.00    +0.000 C 
BRANCH  17  18
ATOM     18  C   UNL     1       1.636   9.279  17.779  0.00  0.00    +0.000 C 
BRANCH  18  20
ATOM     19  C   UNL     1       0.747  11.280  18.822  0.00  0.00    +0.000 C 
ATOM     20  N   UNL     1       1.512  10.054  19.037  0.00  0.00    +0.000 NA
ATOM     21  C   UNL     1       0.918   9.282  20.134  0.00  0.00    +0.000 C 
ENDBRANCH  18  20
ENDBRANCH  17  18
ENDBRANCH   1  17
TORSDOF 3
ENDMDL
MODEL 6
REMARK VINA RESULT:      -6.2      5.188      7.876
REMARK  Name = 
REMARK  5 active torsions:
REMARK  status: ('A' for Active; 'I' for Inactive)
REMARK    1  A    between atoms: C_1  and  N_2
REMARK    2  A    between atoms: N_2  and  C_3
REMARK    3  A    between atoms: N_2  and  C_4
REMARK    4  A    between atoms: C_4  and  C_5
REMARK    5  A    between atoms: C_5  and  C_6
REMARK                            x       y       z     vdW  Elec       q    Type
REMARK                         _______ _______ _______ _____ _____    ______ ____
ROOT
ATOM      1  C   UNL     1      -0.088  10.501  19.172  0.00  0.00    +0.000 C 
ATOM      2  C   UNL     1      -1.326  11.067  19.298  0.00  0.00    +0.000 C 
ATOM      3  C   UNL     1      -1.639  11.697  20.664  0.00  0.00    +0.000 A 
ATOM      4  C   UNL     1      -0.744  11.654  21.766  0.00  0.00    +0.000 A 
ATOM      5  C   UNL     1      -1.037  12.221  23.016  0.00  0.00    +0.000 A 
ATOM      6  C   UNL     1      -2.249  12.850  23.224  0.00  0.00    +0.000 A 
ATOM      7  C   UNL     1      -3.152  12.909  22.175  0.00  0.00    +0.000 A 
ATOM      8  C   UNL     1      -2.864  12.342  20.911  0.00  0.00    +0.000 A 
ATOM      9  S   UNL     1      -4.175  12.539  19.743  0.00  0.00    +0.000 S 
ATOM     10  C   UNL     1      -3.605  11.704  18.294  0.00  0.00    +0.000 A 
ATOM     11  C   UNL     1      -4.551  11.729  17.237  0.00  0.00    +0.000 A 
ATOM     12  C   UNL     1      -4.296  11.146  16.009  0.00  0.00    +0.000 A 
ATOM     13  C   UNL     1      -3.084  10.525  15.829  0.00  0.00    +0.000 A 
ATOM     14 CL   UNL     1      -2.707   9.785  14.317  0.00  0.00    +0.000 Cl
ATOM     15  C   UNL     1      -2.148  10.496  16.869  0.00  0.00    +0.000 A 
ATOM     16  C   UNL     1      -2.353  11.077  18.146  0.00  0.00    +0.000 A 
ENDROOT
BRANCH   1  17
ATOM     17  C   UNL     1       0.492   9.739  18.018  0.00  0.00    +0.000 C 
BRANCH  17  18
ATOM     18  C   UNL     1       1.989   9.401  17.973  0.00  0.00    +0.000 C 
BRANCH  18  20
ATOM     19  C   UNL     1       3.448   7.498  17.612  0.00  0.00    +0.000 C 
ATOM     20  N   UNL     1       2.185   7.948  18.191  0.00  0.00    +0.000 NA
ATOM     21  C   UNL     1       2.120   7.564  19.605  0.00  0.00    +0.000 C 
ENDBRANCH  18  20
ENDBRANCH  17  18
ENDBRANCH   1  17
TORSDOF 3
ENDMDL
MODEL 7
REMARK VINA RESULT:      -6.1      4.857      7.906
REMARK  Name = 
REMARK  5 active torsions:
REMARK  status: ('A' for Active; 'I' for Inactive)
REMARK    1  A    between atoms: C_1  and  N_2
REMARK    2  A    between atoms: N_2  and  C_3
REMARK    3  A    between atoms: N_2  and  C_4
REMARK    4  A    between atoms: C_4  and  C_5
REMARK    5  A    between atoms: C_5  and  C_6
REMARK                            x       y       z     vdW  Elec       q    Type
REMARK                         _______ _______ _______ _____ _____    ______ ____
ROOT
ATOM      1  C   UNL     1      -0.090  10.994  18.163  0.00  0.00    +0.000 C 
ATOM      2  C   UNL     1       0.191  10.257  19.279  0.00  0.00    +0.000 C 
ATOM      3  C   UNL     1       1.167   9.087  19.082  0.00  0.00    +0.000 A 
ATOM      4  C   UNL     1       1.709   8.730  17.819  0.00  0.00    +0.000 A 
ATOM      5  C   UNL     1       2.593   7.654  17.639  0.00  0.00    +0.000 A 
ATOM      6  C   UNL     1       2.967   6.877  18.719  0.00  0.00    +0.000 A 
ATOM      7  C   UNL     1       2.455   7.190  19.968  0.00  0.00    +0.000 A 
ATOM      8  C   UNL     1       1.566   8.274  20.158  0.00  0.00    +0.000 A 
ATOM      9  S   UNL     1       1.047   8.464  21.836  0.00  0.00    +0.000 S 
ATOM     10  C   UNL     1      -0.087   9.818  21.797  0.00  0.00    +0.000 A 
ATOM     11  C   UNL     1      -0.642  10.107  23.071  0.00  0.00    +0.000 A 
ATOM     12  C   UNL     1      -1.542  11.141  23.263  0.00  0.00    +0.000 A 
ATOM     13  C   UNL     1      -1.897  11.897  22.173  0.00  0.00    +0.000 A 
ATOM     14 CL   UNL     1      -3.009  13.203  22.352  0.00  0.00    +0.000 Cl
ATOM     15  C   UNL     1      -1.353  11.615  20.914  0.00  0.00    +0.000 A 
ATOM     16  C   UNL     1      -0.429  10.572  20.658  0.00  0.00    +0.000 A 
ENDROOT
BRANCH   1  17
ATOM     17  C   UNL     1      -1.054  12.131  17.998  0.00  0.00    +0.000 C 
BRANCH  17  18
ATOM     18  C   UNL     1      -2.484  11.881  17.497  0.00  0.00    +0.000 C 
BRANCH  18  20
ATOM     19  C   UNL     1      -3.388   9.631  17.499  0.00  0.00    +0.000 C 
ATOM     20  N   UNL     1      -2.547  10.584  16.780  0.00  0.00    +0.000 NA
ATOM     21  C   UNL     1      -3.012  10.714  15.395  0.00  0.00    +0.000 C 
ENDBRANCH  18  20
ENDBRANCH  17  18
ENDBRANCH   1  17
TORSDOF 3
ENDMDL
MODEL 8
REMARK VINA RESULT:      -6.0      4.569      7.453
REMARK  Name = 
REMARK  5 active torsions:
REMARK  status: ('A' for Active; 'I' for Inactive)
REMARK    1  A    between atoms: C_1  and  N_2
REMARK    2  A    between atoms: N_2  and  C_3
REMARK    3  A    between atoms: N_2  and  C_4
REMARK    4  A    between atoms: C_4  and  C_5
REMARK    5  A    between atoms: C_5  and  C_6
REMARK                            x       y       z     vdW  Elec       q    Type
REMARK                         _______ _______ _______ _____ _____    ______ ____
ROOT
ATOM      1  C   UNL     1       0.930  11.493  18.483  0.00  0.00    +0.000 C 
ATOM      2  C   UNL     1       0.865  10.502  19.421  0.00  0.00    +0.000 C 
ATOM      3  C   UNL     1       1.605   9.200  19.075  0.00  0.00    +0.000 A 
ATOM      4  C   UNL     1       2.269   8.988  17.838  0.00  0.00    +0.000 A 
ATOM      5  C   UNL     1       2.936   7.795  17.519  0.00  0.00    +0.000 A 
ATOM      6  C   UNL     1       2.958   6.751  18.424  0.00  0.00    +0.000 A 
ATOM      7  C   UNL     1       2.317   6.917  19.641  0.00  0.00    +0.000 A 
ATOM      8  C   UNL     1       1.644   8.117  19.971  0.00  0.00    +0.000 A 
ATOM      9  S   UNL     1       0.899   8.082  21.572  0.00  0.00    +0.000 S 
ATOM     10  C   UNL     1       0.083   9.643  21.715  0.00  0.00    +0.000 A 
ATOM     11  C   UNL     1      -0.609   9.791  22.945  0.00  0.00    +0.000 A 
ATOM     12  C   UNL     1      -1.301  10.946  23.264  0.00  0.00    +0.000 A 
ATOM     13  C   UNL     1      -1.308  11.967  22.346  0.00  0.00    +0.000 A 
ATOM     14 CL   UNL     1      -2.149  13.433  22.690  0.00  0.00    +0.000 Cl
ATOM     15  C   UNL     1      -0.628  11.825  21.130  0.00  0.00    +0.000 A 
ATOM     16  C   UNL     1       0.097  10.668  20.751  0.00  0.00    +0.000 A 
ENDROOT
BRANCH   1  17
ATOM     17  C   UNL     1       0.256  12.833  18.473  0.00  0.00    +0.000 C 
BRANCH  17  18
ATOM     18  C   UNL     1       1.048  14.112  18.781  0.00  0.00    +0.000 C 
BRANCH  18  20
ATOM     19  C   UNL     1       3.443  14.483  18.693  0.00  0.00    +0.000 C 
ATOM     20  N   UNL     1       2.366  13.761  19.364  0.00  0.00    +0.000 NA
ATOM     21  C   UNL     1       2.435  13.993  20.811  0.00  0.00    +0.000 C 
ENDBRANCH  18  20
ENDBRANCH  17  18
ENDBRANCH   1  17
TORSDOF 3
ENDMDL
MODEL 9
REMARK VINA RESULT:      -6.0      8.584     11.341
REMARK  Name = 
REMARK  5 active torsions:
REMARK  status: ('A' for Active; 'I' for Inactive)
REMARK    1  A    between atoms: C_1  and  N_2
REMARK    2  A    between atoms: N_2  and  C_3
REMARK    3  A    between atoms: N_2  and  C_4
REMARK    4  A    between atoms: C_4  and  C_5
REMARK    5  A    between atoms: C_5  and  C_6
REMARK                            x       y       z     vdW  Elec       q    Type
REMARK                         _______ _______ _______ _____ _____    ______ ____
ROOT
ATOM      1  C   UNL     1      -5.248  12.883  19.595  0.00  0.00    +0.000 C 
ATOM      2  C   UNL     1      -3.979  12.386  19.699  0.00  0.00    +0.000 C 
ATOM      3  C   UNL     1      -3.468  11.592  18.486  0.00  0.00    +0.000 A 
ATOM      4  C   UNL     1      -4.264  11.320  17.342  0.00  0.00    +0.000 A 
ATOM      5  C   UNL     1      -3.799  10.587  16.240  0.00  0.00    +0.000 A 
ATOM      6  C   UNL     1      -2.514  10.079  16.238  0.00  0.00    +0.000 A 
ATOM      7  C   UNL     1      -1.707  10.318  17.339  0.00  0.00    +0.000 A 
ATOM      8  C   UNL     1      -2.167  11.059  18.453  0.00  0.00    +0.000 A 
ATOM      9  S   UNL     1      -0.959  11.219  19.731  0.00  0.00    +0.000 S 
ATOM     10  C   UNL     1      -1.786  12.112  21.012  0.00  0.00    +0.000 A 
ATOM     11  C   UNL     1      -0.970  12.316  22.155  0.00  0.00    +0.000 A 
ATOM     12  C   UNL     1      -1.421  13.007  23.266  0.00  0.00    +0.000 A 
ATOM     13  C   UNL     1      -2.703  13.499  23.242  0.00  0.00    +0.000 A 
ATOM     14 CL   UNL     1      -3.318  14.374  24.595  0.00  0.00    +0.000 Cl
ATOM     15  C   UNL     1      -3.512  13.300  22.117  0.00  0.00    +0.000 A 
ATOM     16  C   UNL     1      -3.104  12.602  20.953  0.00  0.00    +0.000 A 
ENDROOT
BRANCH   1  17
ATOM     17  C   UNL     1      -6.064  13.617  20.618  0.00  0.00    +0.000 C 
BRANCH  17  18
ATOM     18  C   UNL     1      -7.442  13.092  21.045  0.00  0.00    +0.000 C 
BRANCH  18  20
ATOM     19  C   UNL     1      -7.872  11.885  23.104  0.00  0.00    +0.000 C 
ATOM     20  N   UNL     1      -7.290  11.805  21.767  0.00  0.00    +0.000 NA
ATOM     21  C   UNL     1      -7.862  10.666  21.041  0.00  0.00    +0.000 C 
ENDBRANCH  18  20
ENDBRANCH  17  18
ENDBRANCH   1  17
TORSDOF 3
ENDMDL
