MODEL 1
REMARK VINA RESULT:      -8.5      0.000      0.000
REMARK  Name = 
REMARK  14 active torsions:
REMARK  status: ('A' for Active; 'I' for Inactive)
REMARK    1  A    between atoms: C_1  and  O_2
REMARK    2  A    between atoms: O_2  and  C_3
REMARK    3  A    between atoms: C_6  and  C_7
REMARK    4  A    between atoms: C_8  and  C_9
REMARK    5  A    between atoms: N_11  and  C_12
REMARK    6  A    between atoms: C_17  and  C_18
REMARK    7  A    between atoms: N_20  and  C_21
REMARK    8  A    between atoms: C_21  and  C_22
REMARK    9  A    between atoms: C_22  and  C_23
REMARK   10  A    between atoms: C_22  and  N_31
REMARK   11  A    between atoms: C_26  and  O_27
REMARK   12  A    between atoms: O_27  and  C_28
REMARK   13  A    between atoms: N_31  and  C_32
REMARK   14  A    between atoms: N_31  and  C_33
REMARK                            x       y       z     vdW  Elec       q    Type
REMARK                         _______ _______ _______ _____ _____    ______ ____
ROOT
ATOM      1  C   UNL     1       7.016   5.051  15.293  0.00  0.00    +0.000 A 
ATOM      2  C   UNL     1       7.521   5.228  13.992  0.00  0.00    +0.000 A 
ATOM      3  C   UNL     1       7.008   4.506  12.910  0.00  0.00    +0.000 A 
ATOM      4  C   UNL     1       5.957   3.618  13.101  0.00  0.00    +0.000 A 
ATOM      5  C   UNL     1       5.418   3.456  14.377  0.00  0.00    +0.000 A 
ATOM      6  C   UNL     1       5.938   4.161  15.483  0.00  0.00    +0.000 A 
ENDROOT
BRANCH   1   9
ATOM      7  C   UNL     1       6.934   7.028  16.749  0.00  0.00    +0.000 C 
ATOM      8  O   UNL     1       5.825   7.408  16.386  0.00  0.00    +0.000 OA
ATOM      9  N   UNL     1       7.575   5.895  16.289  0.00  0.00    +0.000 N 
ATOM     10  H   UNL     1       8.155   5.441  16.981  0.00  0.00    +0.000 HD
BRANCH   7  12
ATOM     11  C   UNL     1       7.775   9.127  17.697  0.00  0.00    +0.000 C 
ATOM     12  C   UNL     1       7.744   7.784  17.749  0.00  0.00    +0.000 C 
BRANCH  11  16
ATOM     13  C   UNL     1      10.712  11.640  19.582  0.00  0.00    +0.000 A 
ATOM     14  C   UNL     1      10.553  11.604  18.199  0.00  0.00    +0.000 A 
ATOM     15  C   UNL     1       9.567  10.803  17.621  0.00  0.00    +0.000 A 
ATOM     16  C   UNL     1       8.731   9.998  18.407  0.00  0.00    +0.000 A 
ATOM     17  C   UNL     1       8.897  10.040  19.797  0.00  0.00    +0.000 A 
ATOM     18  C   UNL     1       9.884  10.853  20.383  0.00  0.00    +0.000 A 
BRANCH  13  20
ATOM     19  C   UNL     1      11.380  13.778  20.350  0.00  0.00    +0.000 C 
ATOM     20  O   UNL     1      11.729  12.440  20.019  0.00  0.00    +0.000 OA
ENDBRANCH  13  20
ENDBRANCH  11  16
ENDBRANCH   7  12
ENDBRANCH   1   9
BRANCH   6  21
ATOM     21  C   UNL     1       5.108   4.069  16.713  0.00  0.00    +0.000 C 
ATOM     22  O   UNL     1       5.649   4.157  17.813  0.00  0.00    +0.000 OA
ATOM     23  N   UNL     1       3.754   3.936  16.560  0.00  0.00    +0.000 N 
ATOM     24  H   UNL     1       3.345   4.055  15.633  0.00  0.00    +0.000 HD
BRANCH  23  25
ATOM     25  C   UNL     1       2.867   3.787  17.699  0.00  0.00    +0.000 C 
BRANCH  25  26
ATOM     26  C   UNL     1       3.367   4.485  19.005  0.00  0.00    +0.000 C 
BRANCH  26  27
ATOM     27  C   UNL     1       2.748   5.890  19.118  0.00  0.00    +0.000 A 
ATOM     28  C   UNL     1       2.186   6.384  20.305  0.00  0.00    +0.000 A 
ATOM     29  C   UNL     1       1.691   7.694  20.364  0.00  0.00    +0.000 A 
ATOM     30  C   UNL     1       1.773   8.539  19.257  0.00  0.00    +0.000 A 
ATOM     31  C   UNL     1       2.299   8.049  18.063  0.00  0.00    +0.000 A 
ATOM     32  C   UNL     1       2.776   6.735  17.997  0.00  0.00    +0.000 A 
BRANCH  30  33
ATOM     33  O   UNL     1       1.278   9.805  19.426  0.00  0.00    +0.000 OA
ATOM     34  C   UNL     1       0.214  10.163  18.547  0.00  0.00    +0.000 C 
ENDBRANCH  30  33
ENDBRANCH  26  27
BRANCH  26  35
ATOM     35  N   UNL     1       3.128   3.654  20.231  0.00  0.00    +0.000 NA
ATOM     36  C   UNL     1       1.830   2.962  20.145  0.00  0.00    +0.000 C 
ATOM     37  C   UNL     1       4.156   2.618  20.411  0.00  0.00    +0.000 C 
ENDBRANCH  26  35
ENDBRANCH  25  26
ENDBRANCH  23  25
ENDBRANCH   6  21
TORSDOF 10
ENDMDL
MODEL 2
REMARK VINA RESULT:      -8.5      1.722      2.240
REMARK  Name = 
REMARK  14 active torsions:
REMARK  status: ('A' for Active; 'I' for Inactive)
REMARK    1  A    between atoms: C_1  and  O_2
REMARK    2  A    between atoms: O_2  and  C_3
REMARK    3  A    between atoms: C_6  and  C_7
REMARK    4  A    between atoms: C_8  and  C_9
REMARK    5  A    between atoms: N_11  and  C_12
REMARK    6  A    between atoms: C_17  and  C_18
REMARK    7  A    between atoms: N_20  and  C_21
REMARK    8  A    between atoms: C_21  and  C_22
REMARK    9  A    between atoms: C_22  and  C_23
REMARK   10  A    between atoms: C_22  and  N_31
REMARK   11  A    between atoms: C_26  and  O_27
REMARK   12  A    between atoms: O_27  and  C_28
REMARK   13  A    between atoms: N_31  and  C_32
REMARK   14  A    between atoms: N_31  and  C_33
REMARK                            x       y       z     vdW  Elec       q    Type
REMARK                         _______ _______ _______ _____ _____    ______ ____
ROOT
ATOM      1  C   UNL     1       6.447   5.949  16.281  0.00  0.00    +0.000 A 
ATOM      2  C   UNL     1       7.268   5.223  15.401  0.00  0.00    +0.000 A 
ATOM      3  C   UNL     1       6.895   3.957  14.938  0.00  0.00    +0.000 A 
ATOM      4  C   UNL     1       5.677   3.407  15.318  0.00  0.00    +0.000 A 
ATOM      5  C   UNL     1       4.831   4.128  16.162  0.00  0.00    +0.000 A 
ATOM      6  C   UNL     1       5.204   5.397  16.655  0.00  0.00    +0.000 A 
ENDROOT
BRANCH   1   9
ATOM      7  C   UNL     1       7.649   7.502  17.757  0.00  0.00    +0.000 C 
ATOM      8  O   UNL     1       8.012   6.653  18.566  0.00  0.00    +0.000 OA
ATOM      9  N   UNL     1       6.908   7.249  16.620  0.00  0.00    +0.000 N 
ATOM     10  H   UNL     1       7.124   7.860  15.844  0.00  0.00    +0.000 HD
BRANCH   7  12
ATOM     11  C   UNL     1       8.962   9.317  18.754  0.00  0.00    +0.000 C 
ATOM     12  C   UNL     1       7.964   8.950  17.931  0.00  0.00    +0.000 C 
BRANCH  11  16
ATOM     13  C   UNL     1       9.786  13.348  20.005  0.00  0.00    +0.000 A 
ATOM     14  C   UNL     1       9.457  13.039  18.688  0.00  0.00    +0.000 A 
ATOM     15  C   UNL     1       9.161  11.725  18.321  0.00  0.00    +0.000 A 
ATOM     16  C   UNL     1       9.212  10.681  19.256  0.00  0.00    +0.000 A 
ATOM     17  C   UNL     1       9.543  11.000  20.579  0.00  0.00    +0.000 A 
ATOM     18  C   UNL     1       9.832  12.325  20.953  0.00  0.00    +0.000 A 
BRANCH  13  20
ATOM     19  C   UNL     1      10.379  15.444  19.077  0.00  0.00    +0.000 C 
ATOM     20  O   UNL     1      10.080  14.663  20.227  0.00  0.00    +0.000 OA
ENDBRANCH  13  20
ENDBRANCH  11  16
ENDBRANCH   7  12
ENDBRANCH   1   9
BRANCH   6  21
ATOM     21  C   UNL     1       4.105   6.136  17.333  0.00  0.00    +0.000 C 
ATOM     22  O   UNL     1       4.196   7.354  17.473  0.00  0.00    +0.000 OA
ATOM     23  N   UNL     1       3.008   5.421  17.731  0.00  0.00    +0.000 N 
ATOM     24  H   UNL     1       2.906   4.454  17.425  0.00  0.00    +0.000 HD
BRANCH  23  25
ATOM     25  C   UNL     1       1.908   6.045  18.446  0.00  0.00    +0.000 C 
BRANCH  25  26
ATOM     26  C   UNL     1       2.212   6.370  19.944  0.00  0.00    +0.000 C 
BRANCH  26  27
ATOM     27  C   UNL     1       1.647   7.755  20.305  0.00  0.00    +0.000 A 
ATOM     28  C   UNL     1       1.339   8.137  21.620  0.00  0.00    +0.000 A 
ATOM     29  C   UNL     1       0.883   9.434  21.895  0.00  0.00    +0.000 A 
ATOM     30  C   UNL     1       0.756  10.376  20.874  0.00  0.00    +0.000 A 
ATOM     31  C   UNL     1       1.028  10.000  19.561  0.00  0.00    +0.000 A 
ATOM     32  C   UNL     1       1.464   8.700  19.282  0.00  0.00    +0.000 A 
BRANCH  30  33
ATOM     33  O   UNL     1       0.322  11.619  21.253  0.00  0.00    +0.000 OA
ATOM     34  C   UNL     1       1.125  12.707  20.800  0.00  0.00    +0.000 C 
ENDBRANCH  30  33
ENDBRANCH  26  27
BRANCH  26  35
ATOM     35  N   UNL     1       1.731   5.296  20.875  0.00  0.00    +0.000 NA
ATOM     36  C   UNL     1       0.675   4.489  20.238  0.00  0.00    +0.000 C 
ATOM     37  C   UNL     1       2.806   4.370  21.260  0.00  0.00    +0.000 C 
ENDBRANCH  26  35
ENDBRANCH  25  26
ENDBRANCH  23  25
ENDBRANCH   6  21
TORSDOF 10
ENDMDL
MODEL 3
REMARK VINA RESULT:      -8.5      1.300      1.862
REMARK  Name = 
REMARK  14 active torsions:
REMARK  status: ('A' for Active; 'I' for Inactive)
REMARK    1  A    between atoms: C_1  and  O_2
REMARK    2  A    between atoms: O_2  and  C_3
REMARK    3  A    between atoms: C_6  and  C_7
REMARK    4  A    between atoms: C_8  and  C_9
REMARK    5  A    between atoms: N_11  and  C_12
REMARK    6  A    between atoms: C_17  and  C_18
REMARK    7  A    between atoms: N_20  and  C_21
REMARK    8  A    between atoms: C_21  and  C_22
REMARK    9  A    between atoms: C_22  and  C_23
REMARK   10  A    between atoms: C_22  and  N_31
REMARK   11  A    between atoms: C_26  and  O_27
REMARK   12  A    between atoms: O_27  and  C_28
REMARK   13  A    between atoms: N_31  and  C_32
REMARK   14  A    between atoms: N_31  and  C_33
REMARK                            x       y       z     vdW  Elec       q    Type
REMARK                         _______ _______ _______ _____ _____    ______ ____
ROOT
ATOM      1  C   UNL     1       6.933   5.304  16.794  0.00  0.00    +0.000 A 
ATOM      2  C   UNL     1       7.052   5.231  15.394  0.00  0.00    +0.000 A 
ATOM      3  C   UNL     1       6.240   4.378  14.640  0.00  0.00    +0.000 A 
ATOM      4  C   UNL     1       5.268   3.608  15.267  0.00  0.00    +0.000 A 
ATOM      5  C   UNL     1       5.110   3.694  16.651  0.00  0.00    +0.000 A 
ATOM      6  C   UNL     1       5.937   4.533  17.428  0.00  0.00    +0.000 A 
ENDROOT
BRANCH   1   9
ATOM      7  C   UNL     1       7.434   7.595  17.526  0.00  0.00    +0.000 C 
ATOM      8  O   UNL     1       6.392   8.092  17.110  0.00  0.00    +0.000 OA
ATOM      9  N   UNL     1       7.768   6.259  17.432  0.00  0.00    +0.000 N 
ATOM     10  H   UNL     1       8.321   5.919  18.207  0.00  0.00    +0.000 HD
BRANCH   7  12
ATOM     11  C   UNL     1       8.356   9.748  18.253  0.00  0.00    +0.000 C 
ATOM     12  C   UNL     1       8.495   8.412  18.184  0.00  0.00    +0.000 C 
BRANCH  11  16
ATOM     13  C   UNL     1      11.296  12.668  19.402  0.00  0.00    +0.000 A 
ATOM     14  C   UNL     1      10.295  12.249  20.274  0.00  0.00    +0.000 A 
ATOM     15  C   UNL     1       9.376  11.275  19.882  0.00  0.00    +0.000 A 
ATOM     16  C   UNL     1       9.418  10.711  18.600  0.00  0.00    +0.000 A 
ATOM     17  C   UNL     1      10.429  11.136  17.728  0.00  0.00    +0.000 A 
ATOM     18  C   UNL     1      11.362  12.112  18.124  0.00  0.00    +0.000 A 
BRANCH  13  20
ATOM     19  C   UNL     1      11.469  14.818  20.380  0.00  0.00    +0.000 C 
ATOM     20  O   UNL     1      12.112  13.646  19.896  0.00  0.00    +0.000 OA
ENDBRANCH  13  20
ENDBRANCH  11  16
ENDBRANCH   7  12
ENDBRANCH   1   9
BRANCH   6  21
ATOM     21  C   UNL     1       5.487   4.700  18.835  0.00  0.00    +0.000 C 
ATOM     22  O   UNL     1       6.295   5.068  19.686  0.00  0.00    +0.000 OA
ATOM     23  N   UNL     1       4.166   4.480  19.113  0.00  0.00    +0.000 N 
ATOM     24  H   UNL     1       3.509   4.359  18.342  0.00  0.00    +0.000 HD
BRANCH  23  25
ATOM     25  C   UNL     1       3.643   4.568  20.465  0.00  0.00    +0.000 C 
BRANCH  25  26
ATOM     26  C   UNL     1       2.189   5.131  20.561  0.00  0.00    +0.000 C 
BRANCH  26  27
ATOM     27  C   UNL     1       2.079   6.438  19.757  0.00  0.00    +0.000 A 
ATOM     28  C   UNL     1       1.576   7.630  20.301  0.00  0.00    +0.000 A 
ATOM     29  C   UNL     1       1.556   8.807  19.538  0.00  0.00    +0.000 A 
ATOM     30  C   UNL     1       2.062   8.821  18.237  0.00  0.00    +0.000 A 
ATOM     31  C   UNL     1       2.533   7.637  17.676  0.00  0.00    +0.000 A 
ATOM     32  C   UNL     1       2.536   6.458  18.430  0.00  0.00    +0.000 A 
BRANCH  30  33
ATOM     33  O   UNL     1       2.012  10.025  17.586  0.00  0.00    +0.000 OA
ATOM     34  C   UNL     1       1.917  11.169  18.432  0.00  0.00    +0.000 C 
ENDBRANCH  30  33
ENDBRANCH  26  27
BRANCH  26  35
ATOM     35  N   UNL     1       1.154   4.123  20.158  0.00  0.00    +0.000 NA
ATOM     36  C   UNL     1       1.372   3.678  18.771  0.00  0.00    +0.000 C 
ATOM     37  C   UNL     1       1.187   2.920  21.005  0.00  0.00    +0.000 C 
ENDBRANCH  26  35
ENDBRANCH  25  26
ENDBRANCH  23  25
ENDBRANCH   6  21
TORSDOF 10
ENDMDL
MODEL 4
REMARK VINA RESULT:      -7.9      4.744     10.413
REMARK  Name = 
REMARK  14 active torsions:
REMARK  status: ('A' for Active; 'I' for Inactive)
REMARK    1  A    between atoms: C_1  and  O_2
REMARK    2  A    between atoms: O_2  and  C_3
REMARK    3  A    between atoms: C_6  and  C_7
REMARK    4  A    between atoms: C_8  and  C_9
REMARK    5  A    between atoms: N_11  and  C_12
REMARK    6  A    between atoms: C_17  and  C_18
REMARK    7  A    between atoms: N_20  and  C_21
REMARK    8  A    between atoms: C_21  and  C_22
REMARK    9  A    between atoms: C_22  and  C_23
REMARK   10  A    between atoms: C_22  and  N_31
REMARK   11  A    between atoms: C_26  and  O_27
REMARK   12  A    between atoms: O_27  and  C_28
REMARK   13  A    between atoms: N_31  and  C_32
REMARK   14  A    between atoms: N_31  and  C_33
REMARK                            x       y       z     vdW  Elec       q    Type
REMARK                         _______ _______ _______ _____ _____    ______ ____
ROOT
ATOM      1  C   UNL     1       0.165  11.090  18.750  0.00  0.00    +0.000 A 
ATOM      2  C   UNL     1      -1.176  10.872  19.115  0.00  0.00    +0.000 A 
ATOM      3  C   UNL     1      -1.939  11.879  19.713  0.00  0.00    +0.000 A 
ATOM      4  C   UNL     1      -1.386  13.136  19.929  0.00  0.00    +0.000 A 
ATOM      5  C   UNL     1      -0.069  13.383  19.541  0.00  0.00    +0.000 A 
ATOM      6  C   UNL     1       0.720  12.370  18.956  0.00  0.00    +0.000 A 
ENDROOT
BRANCH   1   9
ATOM      7  C   UNL     1       1.449   8.996  18.770  0.00  0.00    +0.000 C 
ATOM      8  O   UNL     1       1.512   8.896  19.991  0.00  0.00    +0.000 OA
ATOM      9  N   UNL     1       0.806  10.009  18.088  0.00  0.00    +0.000 N 
ATOM     10  H   UNL     1       0.394   9.718  17.211  0.00  0.00    +0.000 HD
BRANCH   7  12
ATOM     11  C   UNL     1       2.621   6.879  18.370  0.00  0.00    +0.000 C 
ATOM     12  C   UNL     1       2.098   8.007  17.859  0.00  0.00    +0.000 C 
BRANCH  11  16
ATOM     13  C   UNL     1       5.311   4.353  16.162  0.00  0.00    +0.000 A 
ATOM     14  C   UNL     1       5.448   5.739  16.176  0.00  0.00    +0.000 A 
ATOM     15  C   UNL     1       4.578   6.528  16.931  0.00  0.00    +0.000 A 
ATOM     16  C   UNL     1       3.534   5.956  17.670  0.00  0.00    +0.000 A 
ATOM     17  C   UNL     1       3.404   4.561  17.653  0.00  0.00    +0.000 A 
ATOM     18  C   UNL     1       4.285   3.763  16.900  0.00  0.00    +0.000 A 
BRANCH  13  20
ATOM     19  C   UNL     1       6.455   4.280  14.090  0.00  0.00    +0.000 C 
ATOM     20  O   UNL     1       6.206   3.699  15.364  0.00  0.00    +0.000 OA
ENDBRANCH  13  20
ENDBRANCH  11  16
ENDBRANCH   7  12
ENDBRANCH   1   9
BRANCH   6  21
ATOM     21  C   UNL     1       2.004  12.852  18.379  0.00  0.00    +0.000 C 
ATOM     22  O   UNL     1       2.758  12.049  17.833  0.00  0.00    +0.000 OA
ATOM     23  N   UNL     1       2.267  14.194  18.442  0.00  0.00    +0.000 N 
ATOM     24  H   UNL     1       1.528  14.832  18.736  0.00  0.00    +0.000 HD
BRANCH  23  25
ATOM     25  C   UNL     1       3.515  14.751  17.952  0.00  0.00    +0.000 C 
BRANCH  25  26
ATOM     26  C   UNL     1       4.056  15.957  18.787  0.00  0.00    +0.000 C 
BRANCH  26  27
ATOM     27  C   UNL     1       5.575  16.093  18.585  0.00  0.00    +0.000 A 
ATOM     28  C   UNL     1       6.304  17.217  19.004  0.00  0.00    +0.000 A 
ATOM     29  C   UNL     1       7.697  17.259  18.847  0.00  0.00    +0.000 A 
ATOM     30  C   UNL     1       8.386  16.176  18.301  0.00  0.00    +0.000 A 
ATOM     31  C   UNL     1       7.670  15.069  17.851  0.00  0.00    +0.000 A 
ATOM     32  C   UNL     1       6.278  15.034  17.989  0.00  0.00    +0.000 A 
BRANCH  30  33
ATOM     33  O   UNL     1       9.747  16.312  18.210  0.00  0.00    +0.000 OA
ATOM     34  C   UNL     1      10.483  15.798  19.317  0.00  0.00    +0.000 C 
ENDBRANCH  30  33
ENDBRANCH  26  27
BRANCH  26  35
ATOM     35  N   UNL     1       3.324  17.233  18.496  0.00  0.00    +0.000 NA
ATOM     36  C   UNL     1       2.757  17.211  17.136  0.00  0.00    +0.000 C 
ATOM     37  C   UNL     1       2.205  17.457  19.424  0.00  0.00    +0.000 C 
ENDBRANCH  26  35
ENDBRANCH  25  26
ENDBRANCH  23  25
ENDBRANCH   6  21
TORSDOF 10
ENDMDL
MODEL 5
REMARK VINA RESULT:      -7.9      2.545      4.482
REMARK  Name = 
REMARK  14 active torsions:
REMARK  status: ('A' for Active; 'I' for Inactive)
REMARK    1  A    between atoms: C_1  and  O_2
REMARK    2  A    between atoms: O_2  and  C_3
REMARK    3  A    between atoms: C_6  and  C_7
REMARK    4  A    between atoms: C_8  and  C_9
REMARK    5  A    between atoms: N_11  and  C_12
REMARK    6  A    between atoms: C_17  and  C_18
REMARK    7  A    between atoms: N_20  and  C_21
REMARK    8  A    between atoms: C_21  and  C_22
REMARK    9  A    between atoms: C_22  and  C_23
REMARK   10  A    between atoms: C_22  and  N_31
REMARK   11  A    between atoms: C_26  and  O_27
REMARK   12  A    between atoms: O_27  and  C_28
REMARK   13  A    between atoms: N_31  and  C_32
REMARK   14  A    between atoms: N_31  and  C_33
REMARK                            x       y       z     vdW  Elec       q    Type
REMARK                         _______ _______ _______ _____ _____    ______ ____
ROOT
ATOM      1  C   UNL     1       4.826   5.738  18.190  0.00  0.00    +0.000 A 
ATOM      2  C   UNL     1       5.147   4.372  18.101  0.00  0.00    +0.000 A 
ATOM      3  C   UNL     1       4.153   3.402  17.937  0.00  0.00    +0.000 A 
ATOM      4  C   UNL     1       2.821   3.782  17.825  0.00  0.00    +0.000 A 
ATOM      5  C   UNL     1       2.486   5.135  17.874  0.00  0.00    +0.000 A 
ATOM      6  C   UNL     1       3.475   6.124  18.061  0.00  0.00    +0.000 A 
ENDROOT
BRANCH   1   9
ATOM      7  C   UNL     1       6.688   6.990  17.188  0.00  0.00    +0.000 C 
ATOM      8  O   UNL     1       6.478   6.628  16.035  0.00  0.00    +0.000 OA
ATOM      9  N   UNL     1       5.932   6.625  18.284  0.00  0.00    +0.000 N 
ATOM     10  H   UNL     1       5.869   7.339  18.997  0.00  0.00    +0.000 HD
BRANCH   7  12
ATOM     11  C   UNL     1       7.594   9.048  18.166  0.00  0.00    +0.000 C 
ATOM     12  C   UNL     1       7.832   7.880  17.546  0.00  0.00    +0.000 C 
BRANCH  11  16
ATOM     13  C   UNL     1      10.363  12.329  18.402  0.00  0.00    +0.000 A 
ATOM     14  C   UNL     1       9.235  12.376  17.587  0.00  0.00    +0.000 A 
ATOM     15  C   UNL     1       8.338  11.307  17.559  0.00  0.00    +0.000 A 
ATOM     16  C   UNL     1       8.557  10.154  18.325  0.00  0.00    +0.000 A 
ATOM     17  C   UNL     1       9.693  10.115  19.144  0.00  0.00    +0.000 A 
ATOM     18  C   UNL     1      10.595  11.195  19.180  0.00  0.00    +0.000 A 
BRANCH  13  20
ATOM     19  C   UNL     1      10.672  14.524  17.570  0.00  0.00    +0.000 C 
ATOM     20  O   UNL     1      11.175  13.424  18.317  0.00  0.00    +0.000 OA
ENDBRANCH  13  20
ENDBRANCH  11  16
ENDBRANCH   7  12
ENDBRANCH   1   9
BRANCH   6  21
ATOM     21  C   UNL     1       2.997   7.515  17.846  0.00  0.00    +0.000 C 
ATOM     22  O   UNL     1       3.336   8.119  16.830  0.00  0.00    +0.000 OA
ATOM     23  N   UNL     1       2.150   8.049  18.779  0.00  0.00    +0.000 N 
ATOM     24  H   UNL     1       1.757   7.443  19.499  0.00  0.00    +0.000 HD
BRANCH  23  25
ATOM     25  C   UNL     1       1.670   9.417  18.682  0.00  0.00    +0.000 C 
BRANCH  25  26
ATOM     26  C   UNL     1       0.815   9.890  19.902  0.00  0.00    +0.000 C 
BRANCH  26  27
ATOM     27  C   UNL     1      -0.554  10.398  19.416  0.00  0.00    +0.000 A 
ATOM     28  C   UNL     1      -1.230  11.469  20.020  0.00  0.00    +0.000 A 
ATOM     29  C   UNL     1      -2.447  11.927  19.496  0.00  0.00    +0.000 A 
ATOM     30  C   UNL     1      -2.993  11.348  18.350  0.00  0.00    +0.000 A 
ATOM     31  C   UNL     1      -2.347  10.263  17.761  0.00  0.00    +0.000 A 
ATOM     32  C   UNL     1      -1.143   9.793  18.294  0.00  0.00    +0.000 A 
BRANCH  30  33
ATOM     33  O   UNL     1      -4.175  11.883  17.910  0.00  0.00    +0.000 OA
ATOM     34  C   UNL     1      -5.321  11.052  18.089  0.00  0.00    +0.000 C 
ENDBRANCH  30  33
ENDBRANCH  26  27
BRANCH  26  35
ATOM     35  N   UNL     1       0.691   8.835  20.961  0.00  0.00    +0.000 NA
ATOM     36  C   UNL     1       1.545   9.155  22.118  0.00  0.00    +0.000 C 
ATOM     37  C   UNL     1      -0.686   8.711  21.465  0.00  0.00    +0.000 C 
ENDBRANCH  26  35
ENDBRANCH  25  26
ENDBRANCH  23  25
ENDBRANCH   6  21
TORSDOF 10
ENDMDL
MODEL 6
REMARK VINA RESULT:      -7.8      1.237      1.691
REMARK  Name = 
REMARK  14 active torsions:
REMARK  status: ('A' for Active; 'I' for Inactive)
REMARK    1  A    between atoms: C_1  and  O_2
REMARK    2  A    between atoms: O_2  and  C_3
REMARK    3  A    between atoms: C_6  and  C_7
REMARK    4  A    between atoms: C_8  and  C_9
REMARK    5  A    between atoms: N_11  and  C_12
REMARK    6  A    between atoms: C_17  and  C_18
REMARK    7  A    between atoms: N_20  and  C_21
REMARK    8  A    between atoms: C_21  and  C_22
REMARK    9  A    between atoms: C_22  and  C_23
REMARK   10  A    between atoms: C_22  and  N_31
REMARK   11  A    between atoms: C_26  and  O_27
REMARK   12  A    between atoms: O_27  and  C_28
REMARK   13  A    between atoms: N_31  and  C_32
REMARK   14  A    between atoms: N_31  and  C_33
REMARK                            x       y       z     vdW  Elec       q    Type
REMARK                         _______ _______ _______ _____ _____    ______ ____
ROOT
ATOM      1  C   UNL     1       6.451   5.617  15.761  0.00  0.00    +0.000 A 
ATOM      2  C   UNL     1       7.087   5.512  14.511  0.00  0.00    +0.000 A 
ATOM      3  C   UNL     1       6.856   4.419  13.669  0.00  0.00    +0.000 A 
ATOM      4  C   UNL     1       5.959   3.427  14.046  0.00  0.00    +0.000 A 
ATOM      5  C   UNL     1       5.291   3.531  15.266  0.00  0.00    +0.000 A 
ATOM      6  C   UNL     1       5.530   4.617  16.136  0.00  0.00    +0.000 A 
ENDROOT
BRANCH   1   9
ATOM      7  C   UNL     1       7.552   6.838  17.586  0.00  0.00    +0.000 C 
ATOM      8  O   UNL     1       8.167   5.874  18.031  0.00  0.00    +0.000 OA
ATOM      9  N   UNL     1       6.718   6.808  16.487  0.00  0.00    +0.000 N 
ATOM     10  H   UNL     1       6.713   7.666  15.951  0.00  0.00    +0.000 HD
BRANCH   7  12
ATOM     11  C   UNL     1       8.480   9.103  17.727  0.00  0.00    +0.000 C 
ATOM     12  C   UNL     1       7.627   8.187  18.219  0.00  0.00    +0.000 C 
BRANCH  11  16
ATOM     13  C   UNL     1       9.593  12.655  19.880  0.00  0.00    +0.000 A 
ATOM     14  C   UNL     1       9.726  11.385  20.436  0.00  0.00    +0.000 A 
ATOM     15  C   UNL     1       9.388  10.250  19.698  0.00  0.00    +0.000 A 
ATOM     16  C   UNL     1       8.884  10.355  18.394  0.00  0.00    +0.000 A 
ATOM     17  C   UNL     1       8.754  11.635  17.840  0.00  0.00    +0.000 A 
ATOM     18  C   UNL     1       9.103  12.781  18.580  0.00  0.00    +0.000 A 
BRANCH  13  20
ATOM     19  C   UNL     1      10.899  14.600  20.222  0.00  0.00    +0.000 C 
ATOM     20  O   UNL     1       9.931  13.682  20.714  0.00  0.00    +0.000 OA
ENDBRANCH  13  20
ENDBRANCH  11  16
ENDBRANCH   7  12
ENDBRANCH   1   9
BRANCH   6  21
ATOM     21  C   UNL     1       4.572   4.714  17.269  0.00  0.00    +0.000 C 
ATOM     22  O   UNL     1       4.999   4.934  18.401  0.00  0.00    +0.000 OA
ATOM     23  N   UNL     1       3.238   4.599  16.988  0.00  0.00    +0.000 N 
ATOM     24  H   UNL     1       2.932   4.602  16.015  0.00  0.00    +0.000 HD
BRANCH  23  25
ATOM     25  C   UNL     1       2.230   4.628  18.033  0.00  0.00    +0.000 C 
BRANCH  25  26
ATOM     26  C   UNL     1       2.697   5.308  19.361  0.00  0.00    +0.000 C 
BRANCH  26  27
ATOM     27  C   UNL     1       2.247   6.779  19.383  0.00  0.00    +0.000 A 
ATOM     28  C   UNL     1       2.285   7.607  18.250  0.00  0.00    +0.000 A 
ATOM     29  C   UNL     1       1.806   8.923  18.315  0.00  0.00    +0.000 A 
ATOM     30  C   UNL     1       1.255   9.424  19.496  0.00  0.00    +0.000 A 
ATOM     31  C   UNL     1       1.242   8.622  20.635  0.00  0.00    +0.000 A 
ATOM     32  C   UNL     1       1.738   7.315  20.577  0.00  0.00    +0.000 A 
BRANCH  30  33
ATOM     33  O   UNL     1       0.799  10.714  19.447  0.00  0.00    +0.000 OA
ATOM     34  C   UNL     1       0.506  11.303  20.713  0.00  0.00    +0.000 C 
ENDBRANCH  30  33
ENDBRANCH  26  27
BRANCH  26  35
ATOM     35  N   UNL     1       2.250   4.555  20.580  0.00  0.00    +0.000 NA
ATOM     36  C   UNL     1       0.892   4.018  20.392  0.00  0.00    +0.000 C 
ATOM     37  C   UNL     1       3.126   3.413  20.882  0.00  0.00    +0.000 C 
ENDBRANCH  26  35
ENDBRANCH  25  26
ENDBRANCH  23  25
ENDBRANCH   6  21
TORSDOF 10
ENDMDL
MODEL 7
REMARK VINA RESULT:      -7.8      3.218      7.776
REMARK  Name = 
REMARK  14 active torsions:
REMARK  status: ('A' for Active; 'I' for Inactive)
REMARK    1  A    between atoms: C_1  and  O_2
REMARK    2  A    between atoms: O_2  and  C_3
REMARK    3  A    between atoms: C_6  and  C_7
REMARK    4  A    between atoms: C_8  and  C_9
REMARK    5  A    between atoms: N_11  and  C_12
REMARK    6  A    between atoms: C_17  and  C_18
REMARK    7  A    between atoms: N_20  and  C_21
REMARK    8  A    between atoms: C_21  and  C_22
REMARK    9  A    between atoms: C_22  and  C_23
REMARK   10  A    between atoms: C_22  and  N_31
REMARK   11  A    between atoms: C_26  and  O_27
REMARK   12  A    between atoms: O_27  and  C_28
REMARK   13  A    between atoms: N_31  and  C_32
REMARK   14  A    between atoms: N_31  and  C_33
REMARK                            x       y       z     vdW  Elec       q    Type
REMARK                         _______ _______ _______ _____ _____    ______ ____
ROOT
ATOM      1  C   UNL     1       2.388   4.253  18.663  0.00  0.00    +0.000 A 
ATOM      2  C   UNL     1       1.233   3.461  18.788  0.00  0.00    +0.000 A 
ATOM      3  C   UNL     1       1.282   2.073  18.618  0.00  0.00    +0.000 A 
ATOM      4  C   UNL     1       2.494   1.447  18.354  0.00  0.00    +0.000 A 
ATOM      5  C   UNL     1       3.657   2.211  18.263  0.00  0.00    +0.000 A 
ATOM      6  C   UNL     1       3.620   3.614  18.410  0.00  0.00    +0.000 A 
ENDROOT
BRANCH   1   9
ATOM      7  C   UNL     1       2.098   6.141  20.208  0.00  0.00    +0.000 C 
ATOM      8  O   UNL     1       2.161   5.474  21.236  0.00  0.00    +0.000 OA
ATOM      9  N   UNL     1       2.215   5.637  18.928  0.00  0.00    +0.000 N 
ATOM     10  H   UNL     1       2.653   6.273  18.275  0.00  0.00    +0.000 HD
BRANCH   7  12
ATOM     11  C   UNL     1       1.136   8.154  21.224  0.00  0.00    +0.000 C 
ATOM     12  C   UNL     1       1.862   7.614  20.231  0.00  0.00    +0.000 C 
BRANCH  11  16
ATOM     13  C   UNL     1      -0.322  12.199  21.137  0.00  0.00    +0.000 A 
ATOM     14  C   UNL     1       0.339  11.631  20.050  0.00  0.00    +0.000 A 
ATOM     15  C   UNL     1       0.769  10.305  20.098  0.00  0.00    +0.000 A 
ATOM     16  C   UNL     1       0.574   9.518  21.242  0.00  0.00    +0.000 A 
ATOM     17  C   UNL     1      -0.092  10.095  22.331  0.00  0.00    +0.000 A 
ATOM     18  C   UNL     1      -0.535  11.430  22.281  0.00  0.00    +0.000 A 
BRANCH  13  20
ATOM     19  C   UNL     1      -0.003  14.211  19.929  0.00  0.00    +0.000 C 
ATOM     20  O   UNL     1      -0.665  13.511  20.974  0.00  0.00    +0.000 OA
ENDBRANCH  13  20
ENDBRANCH  11  16
ENDBRANCH   7  12
ENDBRANCH   1   9
BRANCH   6  21
ATOM     21  C   UNL     1       4.958   4.252  18.531  0.00  0.00    +0.000 C 
ATOM     22  O   UNL     1       5.210   4.940  19.518  0.00  0.00    +0.000 OA
ATOM     23  N   UNL     1       5.875   4.000  17.547  0.00  0.00    +0.000 N 
ATOM     24  H   UNL     1       5.676   3.279  16.854  0.00  0.00    +0.000 HD
BRANCH  23  25
ATOM     25  C   UNL     1       7.190   4.618  17.552  0.00  0.00    +0.000 C 
BRANCH  25  26
ATOM     26  C   UNL     1       7.470   5.551  16.330  0.00  0.00    +0.000 C 
BRANCH  26  27
ATOM     27  C   UNL     1       6.912   4.914  15.046  0.00  0.00    +0.000 A 
ATOM     28  C   UNL     1       7.569   4.990  13.807  0.00  0.00    +0.000 A 
ATOM     29  C   UNL     1       7.043   4.338  12.683  0.00  0.00    +0.000 A 
ATOM     30  C   UNL     1       5.876   3.579  12.780  0.00  0.00    +0.000 A 
ATOM     31  C   UNL     1       5.198   3.523  13.996  0.00  0.00    +0.000 A 
ATOM     32  C   UNL     1       5.712   4.189  15.114  0.00  0.00    +0.000 A 
BRANCH  30  33
ATOM     33  O   UNL     1       5.458   2.968  11.628  0.00  0.00    +0.000 OA
ATOM     34  C   UNL     1       4.096   3.205  11.274  0.00  0.00    +0.000 C 
ENDBRANCH  30  33
ENDBRANCH  26  27
BRANCH  26  35
ATOM     35  N   UNL     1       6.961   6.947  16.544  0.00  0.00    +0.000 NA
ATOM     36  C   UNL     1       5.493   6.953  16.666  0.00  0.00    +0.000 C 
ATOM     37  C   UNL     1       7.497   7.553  17.772  0.00  0.00    +0.000 C 
ENDBRANCH  26  35
ENDBRANCH  25  26
ENDBRANCH  23  25
ENDBRANCH   6  21
TORSDOF 10
ENDMDL
MODEL 8
REMARK VINA RESULT:      -7.8      4.609     10.082
REMARK  Name = 
REMARK  14 active torsions:
REMARK  status: ('A' for Active; 'I' for Inactive)
REMARK    1  A    between atoms: C_1  and  O_2
REMARK    2  A    between atoms: O_2  and  C_3
REMARK    3  A    between atoms: C_6  and  C_7
REMARK    4  A    between atoms: C_8  and  C_9
REMARK    5  A    between atoms: N_11  and  C_12
REMARK    6  A    between atoms: C_17  and  C_18
REMARK    7  A    between atoms: N_20  and  C_21
REMARK    8  A    between atoms: C_21  and  C_22
REMARK    9  A    between atoms: C_22  and  C_23
REMARK   10  A    between atoms: C_22  and  N_31
REMARK   11  A    between atoms: C_26  and  O_27
REMARK   12  A    between atoms: O_27  and  C_28
REMARK   13  A    between atoms: N_31  and  C_32
REMARK   14  A    between atoms: N_31  and  C_33
REMARK                            x       y       z     vdW  Elec       q    Type
REMARK                         _______ _______ _______ _____ _____    ______ ____
ROOT
ATOM      1  C   UNL     1      -0.093  11.146  18.624  0.00  0.00    +0.000 A 
ATOM      2  C   UNL     1      -1.448  10.790  18.737  0.00  0.00    +0.000 A 
ATOM      3  C   UNL     1      -2.390  11.676  19.268  0.00  0.00    +0.000 A 
ATOM      4  C   UNL     1      -2.001  12.949  19.666  0.00  0.00    +0.000 A 
ATOM      5  C   UNL     1      -0.667  13.335  19.529  0.00  0.00    +0.000 A 
ATOM      6  C   UNL     1       0.299  12.444  19.014  0.00  0.00    +0.000 A 
ENDROOT
BRANCH   1   9
ATOM      7  C   UNL     1       1.403   9.200  18.716  0.00  0.00    +0.000 C 
ATOM      8  O   UNL     1       1.315   9.029  19.928  0.00  0.00    +0.000 OA
ATOM      9  N   UNL     1       0.746  10.183  18.003  0.00  0.00    +0.000 N 
ATOM     10  H   UNL     1       0.489   9.908  17.065  0.00  0.00    +0.000 HD
BRANCH   7  12
ATOM     11  C   UNL     1       2.451   7.051  18.171  0.00  0.00    +0.000 C 
ATOM     12  C   UNL     1       2.273   8.345  17.856  0.00  0.00    +0.000 C 
BRANCH  11  16
ATOM     13  C   UNL     1       5.497   4.609  16.367  0.00  0.00    +0.000 A 
ATOM     14  C   UNL     1       5.547   6.000  16.324  0.00  0.00    +0.000 A 
ATOM     15  C   UNL     1       4.560   6.764  16.949  0.00  0.00    +0.000 A 
ATOM     16  C   UNL     1       3.484   6.159  17.612  0.00  0.00    +0.000 A 
ATOM     17  C   UNL     1       3.441   4.759  17.653  0.00  0.00    +0.000 A 
ATOM     18  C   UNL     1       4.439   3.987  17.032  0.00  0.00    +0.000 A 
BRANCH  13  20
ATOM     19  C   UNL     1       6.472   4.078  14.276  0.00  0.00    +0.000 C 
ATOM     20  O   UNL     1       6.504   3.979  15.694  0.00  0.00    +0.000 OA
ENDBRANCH  13  20
ENDBRANCH  11  16
ENDBRANCH   7  12
ENDBRANCH   1   9
BRANCH   6  21
ATOM     21  C   UNL     1       1.608  13.076  18.702  0.00  0.00    +0.000 C 
ATOM     22  O   UNL     1       2.527  12.379  18.278  0.00  0.00    +0.000 OA
ATOM     23  N   UNL     1       1.714  14.432  18.858  0.00  0.00    +0.000 N 
ATOM     24  H   UNL     1       0.873  14.980  19.032  0.00  0.00    +0.000 HD
BRANCH  23  25
ATOM     25  C   UNL     1       2.966  15.132  18.627  0.00  0.00    +0.000 C 
BRANCH  25  26
ATOM     26  C   UNL     1       3.950  15.115  19.842  0.00  0.00    +0.000 C 
BRANCH  26  27
ATOM     27  C   UNL     1       5.398  14.979  19.340  0.00  0.00    +0.000 A 
ATOM     28  C   UNL     1       5.722  14.727  17.998  0.00  0.00    +0.000 A 
ATOM     29  C   UNL     1       7.062  14.673  17.589  0.00  0.00    +0.000 A 
ATOM     30  C   UNL     1       8.095  14.899  18.499  0.00  0.00    +0.000 A 
ATOM     31  C   UNL     1       7.787  15.118  19.840  0.00  0.00    +0.000 A 
ATOM     32  C   UNL     1       6.451  15.152  20.253  0.00  0.00    +0.000 A 
BRANCH  30  33
ATOM     33  O   UNL     1       9.367  14.842  17.992  0.00  0.00    +0.000 OA
ATOM     34  C   UNL     1      10.283  14.044  18.739  0.00  0.00    +0.000 C 
ENDBRANCH  30  33
ENDBRANCH  26  27
BRANCH  26  35
ATOM     35  N   UNL     1       3.766  16.296  20.748  0.00  0.00    +0.000 NA
ATOM     36  C   UNL     1       3.117  17.407  20.030  0.00  0.00    +0.000 C 
ATOM     37  C   UNL     1       2.920  15.982  21.909  0.00  0.00    +0.000 C 
ENDBRANCH  26  35
ENDBRANCH  25  26
ENDBRANCH  23  25
ENDBRANCH   6  21
TORSDOF 10
ENDMDL
MODEL 9
REMARK VINA RESULT:      -7.8      1.244      1.610
REMARK  Name = 
REMARK  14 active torsions:
REMARK  status: ('A' for Active; 'I' for Inactive)
REMARK    1  A    between atoms: C_1  and  O_2
REMARK    2  A    between atoms: O_2  and  C_3
REMARK    3  A    between atoms: C_6  and  C_7
REMARK    4  A    between atoms: C_8  and  C_9
REMARK    5  A    between atoms: N_11  and  C_12
REMARK    6  A    between atoms: C_17  and  C_18
REMARK    7  A    between atoms: N_20  and  C_21
REMARK    8  A    between atoms: C_21  and  C_22
REMARK    9  A    between atoms: C_22  and  C_23
REMARK   10  A    between atoms: C_22  and  N_31
REMARK   11  A    between atoms: C_26  and  O_27
REMARK   12  A    between atoms: O_27  and  C_28
REMARK   13  A    between atoms: N_31  and  C_32
REMARK   14  A    between atoms: N_31  and  C_33
REMARK                            x       y       z     vdW  Elec       q    Type
REMARK                         _______ _______ _______ _____ _____    ______ ____
ROOT
ATOM      1  C   UNL     1       6.526   5.304  15.394  0.00  0.00    +0.000 A 
ATOM      2  C   UNL     1       7.171   5.328  14.145  0.00  0.00    +0.000 A 
ATOM      3  C   UNL     1       6.970   4.312  13.205  0.00  0.00    +0.000 A 
ATOM      4  C   UNL     1       6.093   3.270  13.482  0.00  0.00    +0.000 A 
ATOM      5  C   UNL     1       5.416   3.248  14.702  0.00  0.00    +0.000 A 
ATOM      6  C   UNL     1       5.625   4.254  15.669  0.00  0.00    +0.000 A 
ENDROOT
BRANCH   1   9
ATOM      7  C   UNL     1       7.484   6.347  17.402  0.00  0.00    +0.000 C 
ATOM      8  O   UNL     1       8.019   5.330  17.831  0.00  0.00    +0.000 OA
ATOM      9  N   UNL     1       6.761   6.430  16.229  0.00  0.00    +0.000 N 
ATOM     10  H   UNL     1       6.838   7.322  15.760  0.00  0.00    +0.000 HD
BRANCH   7  12
ATOM     11  C   UNL     1       8.243   8.669  17.617  0.00  0.00    +0.000 C 
ATOM     12  C   UNL     1       7.543   7.645  18.136  0.00  0.00    +0.000 C 
BRANCH  11  16
ATOM     13  C   UNL     1       9.464  12.340  19.494  0.00  0.00    +0.000 A 
ATOM     14  C   UNL     1       8.924  12.314  18.211  0.00  0.00    +0.000 A 
ATOM     15  C   UNL     1       8.506  11.110  17.644  0.00  0.00    +0.000 A 
ATOM     16  C   UNL     1       8.639   9.896  18.333  0.00  0.00    +0.000 A 
ATOM     17  C   UNL     1       9.182   9.930  19.624  0.00  0.00    +0.000 A 
ATOM     18  C   UNL     1       9.596  11.145  20.201  0.00  0.00    +0.000 A 
BRANCH  13  20
ATOM     19  C   UNL     1      10.238  13.676  21.289  0.00  0.00    +0.000 C 
ATOM     20  O   UNL     1       9.860  13.575  19.922  0.00  0.00    +0.000 OA
ENDBRANCH  13  20
ENDBRANCH  11  16
ENDBRANCH   7  12
ENDBRANCH   1   9
BRANCH   6  21
ATOM     21  C   UNL     1       4.659   4.225  16.799  0.00  0.00    +0.000 C 
ATOM     22  O   UNL     1       4.825   3.421  17.713  0.00  0.00    +0.000 OA
ATOM     23  N   UNL     1       3.642   5.142  16.792  0.00  0.00    +0.000 N 
ATOM     24  H   UNL     1       3.661   5.900  16.110  0.00  0.00    +0.000 HD
BRANCH  23  25
ATOM     25  C   UNL     1       2.621   5.159  17.824  0.00  0.00    +0.000 C 
BRANCH  25  26
ATOM     26  C   UNL     1       3.007   5.970  19.103  0.00  0.00    +0.000 C 
BRANCH  26  27
ATOM     27  C   UNL     1       2.373   7.371  19.046  0.00  0.00    +0.000 A 
ATOM     28  C   UNL     1       2.299   8.129  17.867  0.00  0.00    +0.000 A 
ATOM     29  C   UNL     1       1.655   9.375  17.862  0.00  0.00    +0.000 A 
ATOM     30  C   UNL     1       1.053   9.870  19.019  0.00  0.00    +0.000 A 
ATOM     31  C   UNL     1       1.148   9.141  20.203  0.00  0.00    +0.000 A 
ATOM     32  C   UNL     1       1.807   7.907  20.213  0.00  0.00    +0.000 A 
BRANCH  30  33
ATOM     33  O   UNL     1       0.435  11.087  18.902  0.00  0.00    +0.000 OA
ATOM     34  C   UNL     1       0.983  12.126  19.711  0.00  0.00    +0.000 C 
ENDBRANCH  30  33
ENDBRANCH  26  27
BRANCH  26  35
ATOM     35  N   UNL     1       2.670   5.241  20.370  0.00  0.00    +0.000 NA
ATOM     36  C   UNL     1       1.264   4.800  20.360  0.00  0.00    +0.000 C 
ATOM     37  C   UNL     1       3.496   4.038  20.557  0.00  0.00    +0.000 C 
ENDBRANCH  26  35
ENDBRANCH  25  26
ENDBRANCH  23  25
ENDBRANCH   6  21
TORSDOF 10
ENDMDL
