MODEL 1
REMARK VINA RESULT:      -7.7      0.000      0.000
REMARK  Name = 
REMARK  7 active torsions:
REMARK  status: ('A' for Active; 'I' for Inactive)
REMARK    1  A    between atoms: C_1  and  C_2
REMARK    2  A    between atoms: C_2  and  C_3
REMARK    3  A    between atoms: C_2  and  C_4
REMARK    4  A    between atoms: C_2  and  C_5
REMARK    5  A    between atoms: C_7  and  C_8
REMARK    6  A    between atoms: C_11  and  S_12
REMARK    7  A    between atoms: N_13  and  C_14
REMARK                            x       y       z     vdW  Elec       q    Type
REMARK                         _______ _______ _______ _____ _____    ______ ____
ROOT
ATOM      1  C   UNL     1       3.020   6.952  18.299  0.00  0.00    +0.000 A 
ATOM      2  N   UNL     1       3.772   7.509  17.374  0.00  0.00    +0.000 NA
ATOM      3  N   UNL     1       4.557   6.537  16.814  0.00  0.00    +0.000 NA
ATOM      4  C   UNL     1       4.246   5.396  17.379  0.00  0.00    +0.000 A 
ATOM      5  N   UNL     1       3.233   5.569  18.314  0.00  0.00    +0.000 N 
ENDROOT
BRANCH   5   6
ATOM      6  C   UNL     1       2.583   4.596  19.125  0.00  0.00    +0.000 A 
ATOM      7  C   UNL     1       3.057   4.282  20.407  0.00  0.00    +0.000 A 
ATOM      8  C   UNL     1       2.370   3.361  21.204  0.00  0.00    +0.000 A 
ATOM      9  C   UNL     1       1.191   2.773  20.749  0.00  0.00    +0.000 A 
ATOM     10  C   UNL     1       0.716   3.076  19.478  0.00  0.00    +0.000 A 
ATOM     11  C   UNL     1       1.427   3.954  18.666  0.00  0.00    +0.000 A 
ATOM     12  F   UNL     1       0.982   4.138  17.416  0.00  0.00    +0.000 F 
ENDBRANCH   5   6
BRANCH   1  15
ATOM     13  C   UNL     1       0.973   9.261  20.249  0.00  0.00    +0.000 A 
ATOM     14  C   UNL     1       1.560   8.930  18.994  0.00  0.00    +0.000 A 
ATOM     15  C   UNL     1       2.237   7.747  19.200  0.00  0.00    +0.000 A 
ATOM     16  N   UNL     1       2.071   7.474  20.529  0.00  0.00    +0.000 N 
ATOM     17  N   UNL     1       1.284   8.342  21.173  0.00  0.00    +0.000 NA
ATOM     18  H   UNL     1       2.442   6.698  21.060  0.00  0.00    +0.000 HD
BRANCH  13  20
ATOM     19  C   UNL     1      -0.478  10.327  22.012  0.00  0.00    +0.000 C 
ATOM     20  C   UNL     1       0.143  10.480  20.609  0.00  0.00    +0.000 C 
ATOM     21  C   UNL     1      -0.986  10.650  19.574  0.00  0.00    +0.000 C 
ATOM     22  C   UNL     1       0.989  11.774  20.609  0.00  0.00    +0.000 C 
ENDBRANCH  13  20
ENDBRANCH   1  15
BRANCH   4  23
ATOM     23  S   UNL     1       4.927   3.892  16.861  0.00  0.00    +0.000 S 
ATOM     24  H   UNL     1       3.852   3.132  17.125  0.00  0.00    +0.000 HD
ENDBRANCH   4  23
TORSDOF 4
ENDMDL
MODEL 2
REMARK VINA RESULT:      -7.7      0.452      1.039
REMARK  Name = 
REMARK  7 active torsions:
REMARK  status: ('A' for Active; 'I' for Inactive)
REMARK    1  A    between atoms: C_1  and  C_2
REMARK    2  A    between atoms: C_2  and  C_3
REMARK    3  A    between atoms: C_2  and  C_4
REMARK    4  A    between atoms: C_2  and  C_5
REMARK    5  A    between atoms: C_7  and  C_8
REMARK    6  A    between atoms: C_11  and  S_12
REMARK    7  A    between atoms: N_13  and  C_14
REMARK                            x       y       z     vdW  Elec       q    Type
REMARK                         _______ _______ _______ _____ _____    ______ ____
ROOT
ATOM      1  C   UNL     1       3.244   6.866  17.976  0.00  0.00    +0.000 A 
ATOM      2  N   UNL     1       4.017   7.456  17.089  0.00  0.00    +0.000 NA
ATOM      3  N   UNL     1       4.829   6.508  16.527  0.00  0.00    +0.000 NA
ATOM      4  C   UNL     1       4.514   5.349  17.052  0.00  0.00    +0.000 A 
ATOM      5  N   UNL     1       3.472   5.486  17.960  0.00  0.00    +0.000 N 
ENDROOT
BRANCH   5   6
ATOM      6  C   UNL     1       2.810   4.484  18.725  0.00  0.00    +0.000 A 
ATOM      7  C   UNL     1       3.397   3.938  19.875  0.00  0.00    +0.000 A 
ATOM      8  C   UNL     1       2.703   2.994  20.639  0.00  0.00    +0.000 A 
ATOM      9  C   UNL     1       1.411   2.612  20.286  0.00  0.00    +0.000 A 
ATOM     10  C   UNL     1       0.821   3.145  19.144  0.00  0.00    +0.000 A 
ATOM     11  C   UNL     1       1.531   4.047  18.358  0.00  0.00    +0.000 A 
ATOM     12  F   UNL     1       0.960   4.456  17.218  0.00  0.00    +0.000 F 
ENDBRANCH   5   6
BRANCH   1  15
ATOM     13  C   UNL     1       1.089   9.082  19.917  0.00  0.00    +0.000 A 
ATOM     14  C   UNL     1       1.683   8.769  18.660  0.00  0.00    +0.000 A 
ATOM     15  C   UNL     1       2.426   7.627  18.875  0.00  0.00    +0.000 A 
ATOM     16  N   UNL     1       2.287   7.362  20.208  0.00  0.00    +0.000 N 
ATOM     17  N   UNL     1       1.458   8.194  20.849  0.00  0.00    +0.000 NA
ATOM     18  H   UNL     1       2.704   6.614  20.745  0.00  0.00    +0.000 HD
BRANCH  13  20
ATOM     19  C   UNL     1       0.985  11.581  20.216  0.00  0.00    +0.000 C 
ATOM     20  C   UNL     1       0.196  10.259  20.270  0.00  0.00    +0.000 C 
ATOM     21  C   UNL     1      -0.364  10.063  21.693  0.00  0.00    +0.000 C 
ATOM     22  C   UNL     1      -1.000  10.386  19.299  0.00  0.00    +0.000 C 
ENDBRANCH  13  20
ENDBRANCH   1  15
BRANCH   4  23
ATOM     23  S   UNL     1       5.226   3.866  16.513  0.00  0.00    +0.000 S 
ATOM     24  H   UNL     1       4.183   3.074  16.802  0.00  0.00    +0.000 HD
ENDBRANCH   4  23
TORSDOF 4
ENDMDL
MODEL 3
REMARK VINA RESULT:      -7.5      1.272      1.848
REMARK  Name = 
REMARK  7 active torsions:
REMARK  status: ('A' for Active; 'I' for Inactive)
REMARK    1  A    between atoms: C_1  and  C_2
REMARK    2  A    between atoms: C_2  and  C_3
REMARK    3  A    between atoms: C_2  and  C_4
REMARK    4  A    between atoms: C_2  and  C_5
REMARK    5  A    between atoms: C_7  and  C_8
REMARK    6  A    between atoms: C_11  and  S_12
REMARK    7  A    between atoms: N_13  and  C_14
REMARK                            x       y       z     vdW  Elec       q    Type
REMARK                         _______ _______ _______ _____ _____    ______ ____
ROOT
ATOM      1  C   UNL     1       3.407   6.815  17.843  0.00  0.00    +0.000 A 
ATOM      2  N   UNL     1       4.211   7.489  17.049  0.00  0.00    +0.000 NA
ATOM      3  N   UNL     1       5.035   6.599  16.413  0.00  0.00    +0.000 NA
ATOM      4  C   UNL     1       4.697   5.393  16.801  0.00  0.00    +0.000 A 
ATOM      5  N   UNL     1       3.628   5.442  17.686  0.00  0.00    +0.000 N 
ENDROOT
BRANCH   5   6
ATOM      6  C   UNL     1       2.936   4.370  18.319  0.00  0.00    +0.000 A 
ATOM      7  C   UNL     1       1.632   4.021  17.942  0.00  0.00    +0.000 A 
ATOM      8  C   UNL     1       0.994   2.930  18.543  0.00  0.00    +0.000 A 
ATOM      9  C   UNL     1       1.658   2.160  19.495  0.00  0.00    +0.000 A 
ATOM     10  C   UNL     1       2.951   2.502  19.878  0.00  0.00    +0.000 A 
ATOM     11  C   UNL     1       3.566   3.616  19.317  0.00  0.00    +0.000 A 
ATOM     12  F   UNL     1       4.771   3.962  19.789  0.00  0.00    +0.000 F 
ENDBRANCH   5   6
BRANCH   1  15
ATOM     13  C   UNL     1       1.195   8.824  19.939  0.00  0.00    +0.000 A 
ATOM     14  C   UNL     1       1.814   8.632  18.670  0.00  0.00    +0.000 A 
ATOM     15  C   UNL     1       2.566   7.483  18.792  0.00  0.00    +0.000 A 
ATOM     16  N   UNL     1       2.407   7.096  20.093  0.00  0.00    +0.000 N 
ATOM     17  N   UNL     1       1.558   7.858  20.793  0.00  0.00    +0.000 NA
ATOM     18  H   UNL     1       2.823   6.306  20.567  0.00  0.00    +0.000 HD
BRANCH  13  20
ATOM     19  C   UNL     1       1.075  11.268  20.537  0.00  0.00    +0.000 C 
ATOM     20  C   UNL     1       0.283   9.955  20.381  0.00  0.00    +0.000 C 
ATOM     21  C   UNL     1      -0.359   9.590  21.734  0.00  0.00    +0.000 C 
ATOM     22  C   UNL     1      -0.854  10.209  19.366  0.00  0.00    +0.000 C 
ENDBRANCH  13  20
ENDBRANCH   1  15
BRANCH   4  23
ATOM     23  S   UNL     1       5.418   3.970  16.129  0.00  0.00    +0.000 S 
ATOM     24  H   UNL     1       5.399   3.237  17.252  0.00  0.00    +0.000 HD
ENDBRANCH   4  23
TORSDOF 4
ENDMDL
MODEL 4
REMARK VINA RESULT:      -7.3      1.095      1.318
REMARK  Name = 
REMARK  7 active torsions:
REMARK  status: ('A' for Active; 'I' for Inactive)
REMARK    1  A    between atoms: C_1  and  C_2
REMARK    2  A    between atoms: C_2  and  C_3
REMARK    3  A    between atoms: C_2  and  C_4
REMARK    4  A    between atoms: C_2  and  C_5
REMARK    5  A    between atoms: C_7  and  C_8
REMARK    6  A    between atoms: C_11  and  S_12
REMARK    7  A    between atoms: N_13  and  C_14
REMARK                            x       y       z     vdW  Elec       q    Type
REMARK                         _______ _______ _______ _____ _____    ______ ____
ROOT
ATOM      1  C   UNL     1       3.209   6.899  17.867  0.00  0.00    +0.000 A 
ATOM      2  N   UNL     1       4.027   7.343  16.937  0.00  0.00    +0.000 NA
ATOM      3  N   UNL     1       4.829   6.308  16.538  0.00  0.00    +0.000 NA
ATOM      4  C   UNL     1       4.463   5.239  17.203  0.00  0.00    +0.000 A 
ATOM      5  N   UNL     1       3.397   5.524  18.046  0.00  0.00    +0.000 N 
ENDROOT
BRANCH   5   6
ATOM      6  C   UNL     1       2.682   4.652  18.916  0.00  0.00    +0.000 A 
ATOM      7  C   UNL     1       3.141   4.378  20.212  0.00  0.00    +0.000 A 
ATOM      8  C   UNL     1       2.391   3.560  21.065  0.00  0.00    +0.000 A 
ATOM      9  C   UNL     1       1.168   3.039  20.649  0.00  0.00    +0.000 A 
ATOM     10  C   UNL     1       0.707   3.303  19.363  0.00  0.00    +0.000 A 
ATOM     11  C   UNL     1       1.476   4.075  18.499  0.00  0.00    +0.000 A 
ATOM     12  F   UNL     1       1.037   4.219  17.242  0.00  0.00    +0.000 F 
ENDBRANCH   5   6
BRANCH   1  15
ATOM     13  C   UNL     1       1.192   8.911  20.149  0.00  0.00    +0.000 A 
ATOM     14  C   UNL     1       2.044   7.784  19.961  0.00  0.00    +0.000 A 
ATOM     15  C   UNL     1       2.385   7.795  18.625  0.00  0.00    +0.000 A 
ATOM     16  N   UNL     1       1.701   8.853  18.096  0.00  0.00    +0.000 N 
ATOM     17  N   UNL     1       1.010   9.564  18.994  0.00  0.00    +0.000 NA
ATOM     18  H   UNL     1       1.680   9.168  17.135  0.00  0.00    +0.000 HD
BRANCH  13  20
ATOM     19  C   UNL     1      -0.685   8.431  21.759  0.00  0.00    +0.000 C 
ATOM     20  C   UNL     1       0.494   9.363  21.420  0.00  0.00    +0.000 C 
ATOM     21  C   UNL     1      -0.035  10.797  21.226  0.00  0.00    +0.000 C 
ATOM     22  C   UNL     1       1.453   9.367  22.632  0.00  0.00    +0.000 C 
ENDBRANCH  13  20
ENDBRANCH   1  15
BRANCH   4  23
ATOM     23  S   UNL     1       5.149   3.680  16.895  0.00  0.00    +0.000 S 
ATOM     24  H   UNL     1       4.126   3.195  16.175  0.00  0.00    +0.000 HD
ENDBRANCH   4  23
TORSDOF 4
ENDMDL
MODEL 5
REMARK VINA RESULT:      -7.1      2.040      3.669
REMARK  Name = 
REMARK  7 active torsions:
REMARK  status: ('A' for Active; 'I' for Inactive)
REMARK    1  A    between atoms: C_1  and  C_2
REMARK    2  A    between atoms: C_2  and  C_3
REMARK    3  A    between atoms: C_2  and  C_4
REMARK    4  A    between atoms: C_2  and  C_5
REMARK    5  A    between atoms: C_7  and  C_8
REMARK    6  A    between atoms: C_11  and  S_12
REMARK    7  A    between atoms: N_13  and  C_14
REMARK                            x       y       z     vdW  Elec       q    Type
REMARK                         _______ _______ _______ _____ _____    ______ ____
ROOT
ATOM      1  C   UNL     1       2.793   5.493  19.878  0.00  0.00    +0.000 A 
ATOM      2  N   UNL     1       2.043   4.916  20.792  0.00  0.00    +0.000 NA
ATOM      3  N   UNL     1       2.473   3.626  20.950  0.00  0.00    +0.000 NA
ATOM      4  C   UNL     1       3.502   3.447  20.157  0.00  0.00    +0.000 A 
ATOM      5  N   UNL     1       3.800   4.613  19.466  0.00  0.00    +0.000 N 
ENDROOT
BRANCH   5   6
ATOM      6  C   UNL     1       4.848   4.863  18.534  0.00  0.00    +0.000 A 
ATOM      7  C   UNL     1       6.046   5.473  18.931  0.00  0.00    +0.000 A 
ATOM      8  C   UNL     1       7.080   5.658  18.006  0.00  0.00    +0.000 A 
ATOM      9  C   UNL     1       6.944   5.210  16.694  0.00  0.00    +0.000 A 
ATOM     10  C   UNL     1       5.757   4.607  16.291  0.00  0.00    +0.000 A 
ATOM     11  C   UNL     1       4.711   4.468  17.198  0.00  0.00    +0.000 A 
ATOM     12  F   UNL     1       3.555   3.972  16.737  0.00  0.00    +0.000 F 
ENDBRANCH   5   6
BRANCH   1  15
ATOM     13  C   UNL     1       1.735   8.853  18.919  0.00  0.00    +0.000 A 
ATOM     14  C   UNL     1       1.775   7.836  19.917  0.00  0.00    +0.000 A 
ATOM     15  C   UNL     1       2.460   6.783  19.347  0.00  0.00    +0.000 A 
ATOM     16  N   UNL     1       2.733   7.190  18.072  0.00  0.00    +0.000 N 
ATOM     17  N   UNL     1       2.347   8.442  17.800  0.00  0.00    +0.000 NA
ATOM     18  H   UNL     1       3.205   6.678  17.339  0.00  0.00    +0.000 HD
BRANCH  13  20
ATOM     19  C   UNL     1       0.830  10.632  20.456  0.00  0.00    +0.000 C 
ATOM     20  C   UNL     1       1.075  10.218  18.992  0.00  0.00    +0.000 C 
ATOM     21  C   UNL     1      -0.275  10.169  18.249  0.00  0.00    +0.000 C 
ATOM     22  C   UNL     1       1.943  11.314  18.333  0.00  0.00    +0.000 C 
ENDBRANCH  13  20
ENDBRANCH   1  15
BRANCH   4  23
ATOM     23  S   UNL     1       4.420   1.979  20.151  0.00  0.00    +0.000 S 
ATOM     24  H   UNL     1       3.712   1.346  21.100  0.00  0.00    +0.000 HD
ENDBRANCH   4  23
TORSDOF 4
ENDMDL
MODEL 6
REMARK VINA RESULT:      -7.1      1.951      2.519
REMARK  Name = 
REMARK  7 active torsions:
REMARK  status: ('A' for Active; 'I' for Inactive)
REMARK    1  A    between atoms: C_1  and  C_2
REMARK    2  A    between atoms: C_2  and  C_3
REMARK    3  A    between atoms: C_2  and  C_4
REMARK    4  A    between atoms: C_2  and  C_5
REMARK    5  A    between atoms: C_7  and  C_8
REMARK    6  A    between atoms: C_11  and  S_12
REMARK    7  A    between atoms: N_13  and  C_14
REMARK                            x       y       z     vdW  Elec       q    Type
REMARK                         _______ _______ _______ _____ _____    ______ ____
ROOT
ATOM      1  C   UNL     1       3.736   6.559  17.670  0.00  0.00    +0.000 A 
ATOM      2  N   UNL     1       4.322   7.460  16.912  0.00  0.00    +0.000 NA
ATOM      3  N   UNL     1       5.207   6.819  16.087  0.00  0.00    +0.000 NA
ATOM      4  C   UNL     1       5.121   5.534  16.329  0.00  0.00    +0.000 A 
ATOM      5  N   UNL     1       4.164   5.279  17.302  0.00  0.00    +0.000 N 
ENDROOT
BRANCH   5   6
ATOM      6  C   UNL     1       3.736   4.029  17.836  0.00  0.00    +0.000 A 
ATOM      7  C   UNL     1       2.622   3.357  17.313  0.00  0.00    +0.000 A 
ATOM      8  C   UNL     1       2.254   2.106  17.821  0.00  0.00    +0.000 A 
ATOM      9  C   UNL     1       3.008   1.501  18.824  0.00  0.00    +0.000 A 
ATOM     10  C   UNL     1       4.113   2.163  19.351  0.00  0.00    +0.000 A 
ATOM     11  C   UNL     1       4.448   3.428  18.880  0.00  0.00    +0.000 A 
ATOM     12  F   UNL     1       5.459   4.065  19.486  0.00  0.00    +0.000 F 
ENDBRANCH   5   6
BRANCH   1  15
ATOM     13  C   UNL     1       1.576   7.930  20.273  0.00  0.00    +0.000 A 
ATOM     14  C   UNL     1       2.216   8.112  19.013  0.00  0.00    +0.000 A 
ATOM     15  C   UNL     1       2.905   6.941  18.775  0.00  0.00    +0.000 A 
ATOM     16  N   UNL     1       2.694   6.176  19.886  0.00  0.00    +0.000 N 
ATOM     17  N   UNL     1       1.867   6.726  20.783  0.00  0.00    +0.000 NA
ATOM     18  H   UNL     1       3.058   5.255  20.091  0.00  0.00    +0.000 HD
BRANCH  13  20
ATOM     19  C   UNL     1       0.384  10.147  20.177  0.00  0.00    +0.000 C 
ATOM     20  C   UNL     1       0.711   8.914  21.042  0.00  0.00    +0.000 C 
ATOM     21  C   UNL     1       1.463   9.370  22.307  0.00  0.00    +0.000 C 
ATOM     22  C   UNL     1      -0.628   8.282  21.484  0.00  0.00    +0.000 C 
ENDBRANCH  13  20
ENDBRANCH   1  15
BRANCH   4  23
ATOM     23  S   UNL     1       5.990   4.358  15.401  0.00  0.00    +0.000 S 
ATOM     24  H   UNL     1       5.046   4.164  14.467  0.00  0.00    +0.000 HD
ENDBRANCH   4  23
TORSDOF 4
ENDMDL
MODEL 7
REMARK VINA RESULT:      -7.1      2.278      3.927
REMARK  Name = 
REMARK  7 active torsions:
REMARK  status: ('A' for Active; 'I' for Inactive)
REMARK    1  A    between atoms: C_1  and  C_2
REMARK    2  A    between atoms: C_2  and  C_3
REMARK    3  A    between atoms: C_2  and  C_4
REMARK    4  A    between atoms: C_2  and  C_5
REMARK    5  A    between atoms: C_7  and  C_8
REMARK    6  A    between atoms: C_11  and  S_12
REMARK    7  A    between atoms: N_13  and  C_14
REMARK                            x       y       z     vdW  Elec       q    Type
REMARK                         _______ _______ _______ _____ _____    ______ ____
ROOT
ATOM      1  C   UNL     1       2.783   5.602  19.801  0.00  0.00    +0.000 A 
ATOM      2  N   UNL     1       2.124   5.035  20.788  0.00  0.00    +0.000 NA
ATOM      3  N   UNL     1       2.536   3.733  20.890  0.00  0.00    +0.000 NA
ATOM      4  C   UNL     1       3.467   3.537  19.988  0.00  0.00    +0.000 A 
ATOM      5  N   UNL     1       3.716   4.702  19.275  0.00  0.00    +0.000 N 
ENDROOT
BRANCH   5   6
ATOM      6  C   UNL     1       4.661   4.935  18.235  0.00  0.00    +0.000 A 
ATOM      7  C   UNL     1       4.350   4.666  16.895  0.00  0.00    +0.000 A 
ATOM      8  C   UNL     1       5.277   4.953  15.887  0.00  0.00    +0.000 A 
ATOM      9  C   UNL     1       6.502   5.539  16.199  0.00  0.00    +0.000 A 
ATOM     10  C   UNL     1       6.820   5.806  17.527  0.00  0.00    +0.000 A 
ATOM     11  C   UNL     1       5.918   5.475  18.533  0.00  0.00    +0.000 A 
ATOM     12  F   UNL     1       6.310   5.660  19.800  0.00  0.00    +0.000 F 
ENDBRANCH   5   6
BRANCH   1  15
ATOM     13  C   UNL     1       1.669   8.978  18.971  0.00  0.00    +0.000 A 
ATOM     14  C   UNL     1       1.738   7.930  19.934  0.00  0.00    +0.000 A 
ATOM     15  C   UNL     1       2.425   6.904  19.319  0.00  0.00    +0.000 A 
ATOM     16  N   UNL     1       2.671   7.356  18.053  0.00  0.00    +0.000 N 
ATOM     17  N   UNL     1       2.266   8.611  17.829  0.00  0.00    +0.000 NA
ATOM     18  H   UNL     1       3.137   6.874  17.295  0.00  0.00    +0.000 HD
BRANCH  13  20
ATOM     19  C   UNL     1       0.789  10.704  20.580  0.00  0.00    +0.000 C 
ATOM     20  C   UNL     1       0.994  10.332  19.099  0.00  0.00    +0.000 C 
ATOM     21  C   UNL     1      -0.376  10.285  18.395  0.00  0.00    +0.000 C 
ATOM     22  C   UNL     1       1.829  11.456  18.444  0.00  0.00    +0.000 C 
ENDBRANCH  13  20
ENDBRANCH   1  15
BRANCH   4  23
ATOM     23  S   UNL     1       4.341   2.047  19.871  0.00  0.00    +0.000 S 
ATOM     24  H   UNL     1       5.382   2.415  20.635  0.00  0.00    +0.000 HD
ENDBRANCH   4  23
TORSDOF 4
ENDMDL
MODEL 8
REMARK VINA RESULT:      -7.0      1.501      2.145
REMARK  Name = 
REMARK  7 active torsions:
REMARK  status: ('A' for Active; 'I' for Inactive)
REMARK    1  A    between atoms: C_1  and  C_2
REMARK    2  A    between atoms: C_2  and  C_3
REMARK    3  A    between atoms: C_2  and  C_4
REMARK    4  A    between atoms: C_2  and  C_5
REMARK    5  A    between atoms: C_7  and  C_8
REMARK    6  A    between atoms: C_11  and  S_12
REMARK    7  A    between atoms: N_13  and  C_14
REMARK                            x       y       z     vdW  Elec       q    Type
REMARK                         _______ _______ _______ _____ _____    ______ ____
ROOT
ATOM      1  C   UNL     1       3.297   6.991  17.657  0.00  0.00    +0.000 A 
ATOM      2  N   UNL     1       4.193   7.484  16.830  0.00  0.00    +0.000 NA
ATOM      3  N   UNL     1       4.988   6.458  16.394  0.00  0.00    +0.000 NA
ATOM      4  C   UNL     1       4.541   5.350  16.933  0.00  0.00    +0.000 A 
ATOM      5  N   UNL     1       3.427   5.600  17.724  0.00  0.00    +0.000 N 
ENDROOT
BRANCH   5   6
ATOM      6  C   UNL     1       2.624   4.683  18.460  0.00  0.00    +0.000 A 
ATOM      7  C   UNL     1       1.528   4.038  17.869  0.00  0.00    +0.000 A 
ATOM      8  C   UNL     1       0.786   3.102  18.599  0.00  0.00    +0.000 A 
ATOM      9  C   UNL     1       1.148   2.776  19.904  0.00  0.00    +0.000 A 
ATOM     10  C   UNL     1       2.232   3.415  20.499  0.00  0.00    +0.000 A 
ATOM     11  C   UNL     1       2.938   4.381  19.790  0.00  0.00    +0.000 A 
ATOM     12  F   UNL     1       3.909   5.037  20.439  0.00  0.00    +0.000 F 
ENDBRANCH   5   6
BRANCH   1  15
ATOM     13  C   UNL     1       1.215   8.890  19.978  0.00  0.00    +0.000 A 
ATOM     14  C   UNL     1       2.081   7.779  19.762  0.00  0.00    +0.000 A 
ATOM     15  C   UNL     1       2.450   7.849  18.434  0.00  0.00    +0.000 A 
ATOM     16  N   UNL     1       1.767   8.922  17.936  0.00  0.00    +0.000 N 
ATOM     17  N   UNL     1       1.051   9.590  18.848  0.00  0.00    +0.000 NA
ATOM     18  H   UNL     1       1.762   9.276  16.989  0.00  0.00    +0.000 HD
BRANCH  13  20
ATOM     19  C   UNL     1      -0.153  10.677  21.110  0.00  0.00    +0.000 C 
ATOM     20  C   UNL     1       0.488   9.283  21.253  0.00  0.00    +0.000 C 
ATOM     21  C   UNL     1       1.490   9.305  22.423  0.00  0.00    +0.000 C 
ATOM     22  C   UNL     1      -0.637   8.283  21.606  0.00  0.00    +0.000 C 
ENDBRANCH  13  20
ENDBRANCH   1  15
BRANCH   4  23
ATOM     23  S   UNL     1       5.198   3.799  16.534  0.00  0.00    +0.000 S 
ATOM     24  H   UNL     1       6.229   4.246  15.802  0.00  0.00    +0.000 HD
ENDBRANCH   4  23
TORSDOF 4
ENDMDL
