MODEL 1
REMARK VINA RESULT:      -7.1      0.000      0.000
REMARK  Name = 
REMARK  6 active torsions:
REMARK  status: ('A' for Active; 'I' for Inactive)
REMARK    1  A    between atoms: C_1  and  C_2
REMARK    2  A    between atoms: C_2  and  C_3
REMARK    3  A    between atoms: C_3  and  C_4
REMARK    4  A    between atoms: C_4  and  N_5
REMARK    5  A    between atoms: C_8  and  N_9
REMARK    6  A    between atoms: C_10  and  C_12
REMARK                            x       y       z     vdW  Elec       q    Type
REMARK                         _______ _______ _______ _____ _____    ______ ____
ROOT
ATOM      1  N   UNL     1       5.622   4.118  13.558  0.00  0.00    +0.000 N 
ATOM      2  C   UNL     1       6.049   4.280  14.891  0.00  0.00    +0.000 A 
ATOM      3  C   UNL     1       5.104   4.162  15.893  0.00  0.00    +0.000 A 
ATOM      4  C   UNL     1       5.539   4.303  17.196  0.00  0.00    +0.000 A 
ATOM      5  N   UNL     1       6.800   4.622  17.490  0.00  0.00    +0.000 NA
ATOM      6  C   UNL     1       7.625   4.790  16.455  0.00  0.00    +0.000 A 
ATOM      7  N   UNL     1       7.316   4.619  15.162  0.00  0.00    +0.000 NA
ATOM      8  H   UNL     1       4.901   3.406  13.510  0.00  0.00    +0.000 HD
ENDROOT
BRANCH   4   9
ATOM      9  N   UNL     1       4.596   4.070  18.212  0.00  0.00    +0.000 N 
ATOM     10  C   UNL     1       3.876   2.905  18.383  0.00  0.00    +0.000 C 
ATOM     11  O   UNL     1       3.961   1.871  17.732  0.00  0.00    +0.000 OA
ATOM     12  H   UNL     1       4.468   4.810  18.884  0.00  0.00    +0.000 HD
BRANCH  10  13
ATOM     13  C   UNL     1       2.921   2.936  19.530  0.00  0.00    +0.000 A 
ATOM     14  C   UNL     1       3.306   2.560  20.823  0.00  0.00    +0.000 A 
ATOM     15  C   UNL     1       2.366   2.567  21.857  0.00  0.00    +0.000 A 
ATOM     16  C   UNL     1       1.051   2.957  21.602  0.00  0.00    +0.000 A 
ATOM     17  C   UNL     1       0.675   3.363  20.322  0.00  0.00    +0.000 A 
ATOM     18  C   UNL     1       1.610   3.361  19.287  0.00  0.00    +0.000 A 
ENDBRANCH  10  13
ENDBRANCH   4   9
BRANCH   1  19
ATOM     19  C   UNL     1       6.705   3.824  12.620  0.00  0.00    +0.000 C 
BRANCH  19  20
ATOM     20  C   UNL     1       6.167   2.972  11.466  0.00  0.00    +0.000 C 
BRANCH  20  22
ATOM     21  C   UNL     1       3.875   3.526  10.572  0.00  0.00    +0.000 C 
ATOM     22  C   UNL     1       4.663   2.714  11.588  0.00  0.00    +0.000 C 
ENDBRANCH  20  22
ENDBRANCH  19  20
ENDBRANCH   1  19
TORSDOF 5
ENDMDL
MODEL 2
REMARK VINA RESULT:      -7.0      4.347      7.687
REMARK  Name = 
REMARK  6 active torsions:
REMARK  status: ('A' for Active; 'I' for Inactive)
REMARK    1  A    between atoms: C_1  and  C_2
REMARK    2  A    between atoms: C_2  and  C_3
REMARK    3  A    between atoms: C_3  and  C_4
REMARK    4  A    between atoms: C_4  and  N_5
REMARK    5  A    between atoms: C_8  and  N_9
REMARK    6  A    between atoms: C_10  and  C_12
REMARK                            x       y       z     vdW  Elec       q    Type
REMARK                         _______ _______ _______ _____ _____    ______ ____
ROOT
ATOM      1  N   UNL     1       4.116   4.562  18.044  0.00  0.00    +0.000 N 
ATOM      2  C   UNL     1       5.233   5.009  17.311  0.00  0.00    +0.000 A 
ATOM      3  C   UNL     1       5.699   6.288  17.555  0.00  0.00    +0.000 A 
ATOM      4  C   UNL     1       6.806   6.707  16.846  0.00  0.00    +0.000 A 
ATOM      5  N   UNL     1       7.367   5.953  15.900  0.00  0.00    +0.000 NA
ATOM      6  C   UNL     1       6.805   4.763  15.681  0.00  0.00    +0.000 A 
ATOM      7  N   UNL     1       5.769   4.242  16.353  0.00  0.00    +0.000 NA
ATOM      8  H   UNL     1       4.152   4.930  18.988  0.00  0.00    +0.000 HD
ENDROOT
BRANCH   4   9
ATOM      9  N   UNL     1       7.341   7.963  17.181  0.00  0.00    +0.000 N 
ATOM     10  C   UNL     1       8.189   8.216  18.240  0.00  0.00    +0.000 C 
ATOM     11  O   UNL     1       8.660   7.406  19.029  0.00  0.00    +0.000 OA
ATOM     12  H   UNL     1       7.103   8.730  16.570  0.00  0.00    +0.000 HD
BRANCH  10  13
ATOM     13  C   UNL     1       8.585   9.647  18.382  0.00  0.00    +0.000 A 
ATOM     14  C   UNL     1       8.110  10.636  17.511  0.00  0.00    +0.000 A 
ATOM     15  C   UNL     1       8.541  11.958  17.660  0.00  0.00    +0.000 A 
ATOM     16  C   UNL     1       9.434  12.290  18.678  0.00  0.00    +0.000 A 
ATOM     17  C   UNL     1       9.882  11.312  19.567  0.00  0.00    +0.000 A 
ATOM     18  C   UNL     1       9.453   9.992  19.424  0.00  0.00    +0.000 A 
ENDBRANCH  10  13
ENDBRANCH   4   9
BRANCH   1  19
ATOM     19  C   UNL     1       3.959   3.108  18.058  0.00  0.00    +0.000 C 
BRANCH  19  20
ATOM     20  C   UNL     1       2.513   2.751  18.415  0.00  0.00    +0.000 C 
BRANCH  20  22
ATOM     21  C   UNL     1       0.850   3.721  20.044  0.00  0.00    +0.000 C 
ATOM     22  C   UNL     1       1.691   3.982  18.805  0.00  0.00    +0.000 C 
ENDBRANCH  20  22
ENDBRANCH  19  20
ENDBRANCH   1  19
TORSDOF 5
ENDMDL
MODEL 3
REMARK VINA RESULT:      -7.0      1.937      7.410
REMARK  Name = 
REMARK  6 active torsions:
REMARK  status: ('A' for Active; 'I' for Inactive)
REMARK    1  A    between atoms: C_1  and  C_2
REMARK    2  A    between atoms: C_2  and  C_3
REMARK    3  A    between atoms: C_3  and  C_4
REMARK    4  A    between atoms: C_4  and  N_5
REMARK    5  A    between atoms: C_8  and  N_9
REMARK    6  A    between atoms: C_10  and  C_12
REMARK                            x       y       z     vdW  Elec       q    Type
REMARK                         _______ _______ _______ _____ _____    ______ ____
ROOT
ATOM      1  N   UNL     1       3.753   2.780  20.304  0.00  0.00    +0.000 N 
ATOM      2  C   UNL     1       3.965   3.926  19.513  0.00  0.00    +0.000 A 
ATOM      3  C   UNL     1       4.531   3.754  18.263  0.00  0.00    +0.000 A 
ATOM      4  C   UNL     1       4.716   4.882  17.489  0.00  0.00    +0.000 A 
ATOM      5  N   UNL     1       4.441   6.105  17.945  0.00  0.00    +0.000 NA
ATOM      6  C   UNL     1       3.969   6.181  19.190  0.00  0.00    +0.000 A 
ATOM      7  N   UNL     1       3.700   5.146  19.998  0.00  0.00    +0.000 NA
ATOM      8  H   UNL     1       3.484   1.998  19.716  0.00  0.00    +0.000 HD
ENDROOT
BRANCH   4   9
ATOM      9  N   UNL     1       5.185   4.687  16.179  0.00  0.00    +0.000 N 
ATOM     10  C   UNL     1       6.501   4.783  15.778  0.00  0.00    +0.000 C 
ATOM     11  O   UNL     1       7.483   4.997  16.479  0.00  0.00    +0.000 OA
ATOM     12  H   UNL     1       4.496   4.425  15.490  0.00  0.00    +0.000 HD
BRANCH  10  13
ATOM     13  C   UNL     1       6.717   4.553  14.319  0.00  0.00    +0.000 A 
ATOM     14  C   UNL     1       7.648   5.296  13.583  0.00  0.00    +0.000 A 
ATOM     15  C   UNL     1       7.787   5.071  12.210  0.00  0.00    +0.000 A 
ATOM     16  C   UNL     1       7.005   4.104  11.579  0.00  0.00    +0.000 A 
ATOM     17  C   UNL     1       6.101   3.340  12.317  0.00  0.00    +0.000 A 
ATOM     18  C   UNL     1       5.961   3.558  13.688  0.00  0.00    +0.000 A 
ENDBRANCH  10  13
ENDBRANCH   4   9
BRANCH   1  19
ATOM     19  C   UNL     1       2.783   2.975  21.383  0.00  0.00    +0.000 C 
BRANCH  19  20
ATOM     20  C   UNL     1       1.459   2.303  21.010  0.00  0.00    +0.000 C 
BRANCH  20  22
ATOM     21  C   UNL     1       0.721   2.412  18.601  0.00  0.00    +0.000 C 
ATOM     22  C   UNL     1       0.681   3.097  19.957  0.00  0.00    +0.000 C 
ENDBRANCH  20  22
ENDBRANCH  19  20
ENDBRANCH   1  19
TORSDOF 5
ENDMDL
MODEL 4
REMARK VINA RESULT:      -7.0      3.129      3.395
REMARK  Name = 
REMARK  6 active torsions:
REMARK  status: ('A' for Active; 'I' for Inactive)
REMARK    1  A    between atoms: C_1  and  C_2
REMARK    2  A    between atoms: C_2  and  C_3
REMARK    3  A    between atoms: C_3  and  C_4
REMARK    4  A    between atoms: C_4  and  N_5
REMARK    5  A    between atoms: C_8  and  N_9
REMARK    6  A    between atoms: C_10  and  C_12
REMARK                            x       y       z     vdW  Elec       q    Type
REMARK                         _______ _______ _______ _____ _____    ______ ____
ROOT
ATOM      1  N   UNL     1       5.462   4.404  13.294  0.00  0.00    +0.000 N 
ATOM      2  C   UNL     1       5.803   4.702  14.629  0.00  0.00    +0.000 A 
ATOM      3  C   UNL     1       4.993   5.582  15.323  0.00  0.00    +0.000 A 
ATOM      4  C   UNL     1       5.326   5.851  16.636  0.00  0.00    +0.000 A 
ATOM      5  N   UNL     1       6.427   5.354  17.202  0.00  0.00    +0.000 NA
ATOM      6  C   UNL     1       7.189   4.575  16.432  0.00  0.00    +0.000 A 
ATOM      7  N   UNL     1       6.923   4.208  15.171  0.00  0.00    +0.000 NA
ATOM      8  H   UNL     1       4.454   4.370  13.194  0.00  0.00    +0.000 HD
ENDROOT
BRANCH   4   9
ATOM      9  N   UNL     1       4.436   6.655  17.368  0.00  0.00    +0.000 N 
ATOM     10  C   UNL     1       3.248   6.230  17.927  0.00  0.00    +0.000 C 
ATOM     11  O   UNL     1       2.790   5.094  17.934  0.00  0.00    +0.000 OA
ATOM     12  H   UNL     1       4.714   7.612  17.517  0.00  0.00    +0.000 HD
BRANCH  10  13
ATOM     13  C   UNL     1       2.482   7.300  18.630  0.00  0.00    +0.000 A 
ATOM     14  C   UNL     1       2.156   7.206  19.989  0.00  0.00    +0.000 A 
ATOM     15  C   UNL     1       1.403   8.215  20.594  0.00  0.00    +0.000 A 
ATOM     16  C   UNL     1       0.985   9.317  19.848  0.00  0.00    +0.000 A 
ATOM     17  C   UNL     1       1.337   9.429  18.502  0.00  0.00    +0.000 A 
ATOM     18  C   UNL     1       2.091   8.425  17.894  0.00  0.00    +0.000 A 
ENDBRANCH  10  13
ENDBRANCH   4   9
BRANCH   1  19
ATOM     19  C   UNL     1       6.077   3.178  12.785  0.00  0.00    +0.000 C 
BRANCH  19  20
ATOM     20  C   UNL     1       5.352   2.731  11.512  0.00  0.00    +0.000 C 
BRANCH  20  22
ATOM     21  C   UNL     1       3.582   3.834  10.095  0.00  0.00    +0.000 C 
ATOM     22  C   UNL     1       3.910   3.243  11.456  0.00  0.00    +0.000 C 
ENDBRANCH  20  22
ENDBRANCH  19  20
ENDBRANCH   1  19
TORSDOF 5
ENDMDL
MODEL 5
REMARK VINA RESULT:      -7.0      3.331      3.710
REMARK  Name = 
REMARK  6 active torsions:
REMARK  status: ('A' for Active; 'I' for Inactive)
REMARK    1  A    between atoms: C_1  and  C_2
REMARK    2  A    between atoms: C_2  and  C_3
REMARK    3  A    between atoms: C_3  and  C_4
REMARK    4  A    between atoms: C_4  and  N_5
REMARK    5  A    between atoms: C_8  and  N_9
REMARK    6  A    between atoms: C_10  and  C_12
REMARK                            x       y       z     vdW  Elec       q    Type
REMARK                         _______ _______ _______ _____ _____    ______ ____
ROOT
ATOM      1  N   UNL     1       5.857   4.713  13.694  0.00  0.00    +0.000 N 
ATOM      2  C   UNL     1       5.989   4.977  15.072  0.00  0.00    +0.000 A 
ATOM      3  C   UNL     1       5.112   5.879  15.645  0.00  0.00    +0.000 A 
ATOM      4  C   UNL     1       5.238   6.116  17.000  0.00  0.00    +0.000 A 
ATOM      5  N   UNL     1       6.214   5.567  17.724  0.00  0.00    +0.000 NA
ATOM      6  C   UNL     1       7.060   4.768  17.071  0.00  0.00    +0.000 A 
ATOM      7  N   UNL     1       6.987   4.431  15.777  0.00  0.00    +0.000 NA
ATOM      8  H   UNL     1       4.877   4.721  13.433  0.00  0.00    +0.000 HD
ENDROOT
BRANCH   4   9
ATOM      9  N   UNL     1       4.273   6.945  17.596  0.00  0.00    +0.000 N 
ATOM     10  C   UNL     1       3.210   6.513  18.362  0.00  0.00    +0.000 C 
ATOM     11  O   UNL     1       2.949   5.365  18.698  0.00  0.00    +0.000 OA
ATOM     12  H   UNL     1       4.397   7.938  17.472  0.00  0.00    +0.000 HD
BRANCH  10  13
ATOM     13  C   UNL     1       2.321   7.607  18.851  0.00  0.00    +0.000 A 
ATOM     14  C   UNL     1       1.949   8.680  18.031  0.00  0.00    +0.000 A 
ATOM     15  C   UNL     1       1.146   9.702  18.547  0.00  0.00    +0.000 A 
ATOM     16  C   UNL     1       0.711   9.647  19.871  0.00  0.00    +0.000 A 
ATOM     17  C   UNL     1       1.054   8.562  20.679  0.00  0.00    +0.000 A 
ATOM     18  C   UNL     1       1.852   7.539  20.168  0.00  0.00    +0.000 A 
ENDBRANCH  10  13
ENDBRANCH   4   9
BRANCH   1  19
ATOM     19  C   UNL     1       6.498   3.469  13.265  0.00  0.00    +0.000 C 
BRANCH  19  20
ATOM     20  C   UNL     1       5.764   2.909  12.043  0.00  0.00    +0.000 C 
BRANCH  20  22
ATOM     21  C   UNL     1       3.630   2.932  10.701  0.00  0.00    +0.000 C 
ATOM     22  C   UNL     1       4.440   3.632  11.779  0.00  0.00    +0.000 C 
ENDBRANCH  20  22
ENDBRANCH  19  20
ENDBRANCH   1  19
TORSDOF 5
ENDMDL
MODEL 6
REMARK VINA RESULT:      -6.9      4.420      7.556
REMARK  Name = 
REMARK  6 active torsions:
REMARK  status: ('A' for Active; 'I' for Inactive)
REMARK    1  A    between atoms: C_1  and  C_2
REMARK    2  A    between atoms: C_2  and  C_3
REMARK    3  A    between atoms: C_3  and  C_4
REMARK    4  A    between atoms: C_4  and  N_5
REMARK    5  A    between atoms: C_8  and  N_9
REMARK    6  A    between atoms: C_10  and  C_12
REMARK                            x       y       z     vdW  Elec       q    Type
REMARK                         _______ _______ _______ _____ _____    ______ ____
ROOT
ATOM      1  N   UNL     1       3.486   5.243  17.367  0.00  0.00    +0.000 N 
ATOM      2  C   UNL     1       4.811   5.456  16.938  0.00  0.00    +0.000 A 
ATOM      3  C   UNL     1       5.387   6.685  17.201  0.00  0.00    +0.000 A 
ATOM      4  C   UNL     1       6.693   6.875  16.794  0.00  0.00    +0.000 A 
ATOM      5  N   UNL     1       7.358   5.951  16.099  0.00  0.00    +0.000 NA
ATOM      6  C   UNL     1       6.696   4.826  15.826  0.00  0.00    +0.000 A 
ATOM      7  N   UNL     1       5.453   4.522  16.226  0.00  0.00    +0.000 NA
ATOM      8  H   UNL     1       3.330   5.710  18.254  0.00  0.00    +0.000 HD
ENDROOT
BRANCH   4   9
ATOM      9  N   UNL     1       7.308   8.083  17.165  0.00  0.00    +0.000 N 
ATOM     10  C   UNL     1       8.174   8.246  18.227  0.00  0.00    +0.000 C 
ATOM     11  O   UNL     1       8.596   7.383  18.987  0.00  0.00    +0.000 OA
ATOM     12  H   UNL     1       7.118   8.882  16.581  0.00  0.00    +0.000 HD
BRANCH  10  13
ATOM     13  C   UNL     1       8.662   9.644  18.413  0.00  0.00    +0.000 A 
ATOM     14  C   UNL     1       9.550   9.988  19.440  0.00  0.00    +0.000 A 
ATOM     15  C   UNL     1       9.948  11.318  19.598  0.00  0.00    +0.000 A 
ATOM     16  C   UNL     1       9.467  12.298  18.729  0.00  0.00    +0.000 A 
ATOM     17  C   UNL     1       8.608  11.952  17.685  0.00  0.00    +0.000 A 
ATOM     18  C   UNL     1       8.211  10.625  17.522  0.00  0.00    +0.000 A 
ENDBRANCH  10  13
ENDBRANCH   4   9
BRANCH   1  19
ATOM     19  C   UNL     1       3.109   3.832  17.449  0.00  0.00    +0.000 C 
BRANCH  19  20
ATOM     20  C   UNL     1       3.259   3.344  18.893  0.00  0.00    +0.000 C 
BRANCH  20  22
ATOM     21  C   UNL     1       0.910   2.458  18.663  0.00  0.00    +0.000 C 
ATOM     22  C   UNL     1       2.299   2.198  19.221  0.00  0.00    +0.000 C 
ENDBRANCH  20  22
ENDBRANCH  19  20
ENDBRANCH   1  19
TORSDOF 5
ENDMDL
MODEL 7
REMARK VINA RESULT:      -6.9      1.660      1.969
REMARK  Name = 
REMARK  6 active torsions:
REMARK  status: ('A' for Active; 'I' for Inactive)
REMARK    1  A    between atoms: C_1  and  C_2
REMARK    2  A    between atoms: C_2  and  C_3
REMARK    3  A    between atoms: C_3  and  C_4
REMARK    4  A    between atoms: C_4  and  N_5
REMARK    5  A    between atoms: C_8  and  N_9
REMARK    6  A    between atoms: C_10  and  C_12
REMARK                            x       y       z     vdW  Elec       q    Type
REMARK                         _______ _______ _______ _____ _____    ______ ____
ROOT
ATOM      1  N   UNL     1       6.094   3.235  12.762  0.00  0.00    +0.000 N 
ATOM      2  C   UNL     1       6.193   4.071  13.892  0.00  0.00    +0.000 A 
ATOM      3  C   UNL     1       5.204   3.980  14.854  0.00  0.00    +0.000 A 
ATOM      4  C   UNL     1       5.323   4.790  15.966  0.00  0.00    +0.000 A 
ATOM      5  N   UNL     1       6.301   5.689  16.084  0.00  0.00    +0.000 NA
ATOM      6  C   UNL     1       7.167   5.759  15.072  0.00  0.00    +0.000 A 
ATOM      7  N   UNL     1       7.172   4.980  13.981  0.00  0.00    +0.000 NA
ATOM      8  H   UNL     1       5.713   2.334  13.031  0.00  0.00    +0.000 HD
ENDROOT
BRANCH   4   9
ATOM      9  N   UNL     1       4.377   4.611  16.990  0.00  0.00    +0.000 N 
ATOM     10  C   UNL     1       4.657   4.183  18.272  0.00  0.00    +0.000 C 
ATOM     11  O   UNL     1       5.756   3.939  18.755  0.00  0.00    +0.000 OA
ATOM     12  H   UNL     1       3.423   4.848  16.767  0.00  0.00    +0.000 HD
BRANCH  10  13
ATOM     13  C   UNL     1       3.459   4.054  19.152  0.00  0.00    +0.000 A 
ATOM     14  C   UNL     1       2.908   5.156  19.817  0.00  0.00    +0.000 A 
ATOM     15  C   UNL     1       1.809   4.978  20.663  0.00  0.00    +0.000 A 
ATOM     16  C   UNL     1       1.259   3.708  20.835  0.00  0.00    +0.000 A 
ATOM     17  C   UNL     1       1.787   2.615  20.147  0.00  0.00    +0.000 A 
ATOM     18  C   UNL     1       2.882   2.787  19.300  0.00  0.00    +0.000 A 
ENDBRANCH  10  13
ENDBRANCH   4   9
BRANCH   1  19
ATOM     19  C   UNL     1       7.352   3.070  12.034  0.00  0.00    +0.000 C 
BRANCH  19  20
ATOM     20  C   UNL     1       7.215   1.927  11.025  0.00  0.00    +0.000 C 
BRANCH  20  22
ATOM     21  C   UNL     1       6.216  -0.364  11.363  0.00  0.00    +0.000 C 
ATOM     22  C   UNL     1       5.928   1.123  11.230  0.00  0.00    +0.000 C 
ENDBRANCH  20  22
ENDBRANCH  19  20
ENDBRANCH   1  19
TORSDOF 5
ENDMDL
MODEL 8
REMARK VINA RESULT:      -6.8      1.281      1.396
REMARK  Name = 
REMARK  6 active torsions:
REMARK  status: ('A' for Active; 'I' for Inactive)
REMARK    1  A    between atoms: C_1  and  C_2
REMARK    2  A    between atoms: C_2  and  C_3
REMARK    3  A    between atoms: C_3  and  C_4
REMARK    4  A    between atoms: C_4  and  N_5
REMARK    5  A    between atoms: C_8  and  N_9
REMARK    6  A    between atoms: C_10  and  C_12
REMARK                            x       y       z     vdW  Elec       q    Type
REMARK                         _______ _______ _______ _____ _____    ______ ____
ROOT
ATOM      1  N   UNL     1       5.842   3.839  13.389  0.00  0.00    +0.000 N 
ATOM      2  C   UNL     1       5.962   4.460  14.648  0.00  0.00    +0.000 A 
ATOM      3  C   UNL     1       4.984   4.206  15.591  0.00  0.00    +0.000 A 
ATOM      4  C   UNL     1       5.122   4.804  16.828  0.00  0.00    +0.000 A 
ATOM      5  N   UNL     1       6.110   5.661  17.092  0.00  0.00    +0.000 NA
ATOM      6  C   UNL     1       6.965   5.904  16.097  0.00  0.00    +0.000 A 
ATOM      7  N   UNL     1       6.951   5.331  14.885  0.00  0.00    +0.000 NA
ATOM      8  H   UNL     1       5.457   2.907  13.498  0.00  0.00    +0.000 HD
ENDROOT
BRANCH   4   9
ATOM      9  N   UNL     1       4.187   4.451  17.816  0.00  0.00    +0.000 N 
ATOM     10  C   UNL     1       4.483   3.833  19.013  0.00  0.00    +0.000 C 
ATOM     11  O   UNL     1       5.588   3.534  19.447  0.00  0.00    +0.000 OA
ATOM     12  H   UNL     1       3.227   4.705  17.637  0.00  0.00    +0.000 HD
BRANCH  10  13
ATOM     13  C   UNL     1       3.293   3.548  19.868  0.00  0.00    +0.000 A 
ATOM     14  C   UNL     1       3.351   2.652  20.943  0.00  0.00    +0.000 A 
ATOM     15  C   UNL     1       2.200   2.388  21.690  0.00  0.00    +0.000 A 
ATOM     16  C   UNL     1       1.000   3.022  21.370  0.00  0.00    +0.000 A 
ATOM     17  C   UNL     1       0.948   3.939  20.320  0.00  0.00    +0.000 A 
ATOM     18  C   UNL     1       2.094   4.209  19.573  0.00  0.00    +0.000 A 
ENDBRANCH  10  13
ENDBRANCH   4   9
BRANCH   1  19
ATOM     19  C   UNL     1       7.091   3.798  12.627  0.00  0.00    +0.000 C 
BRANCH  19  20
ATOM     20  C   UNL     1       6.824   3.214  11.237  0.00  0.00    +0.000 C 
BRANCH  20  22
ATOM     21  C   UNL     1       6.079   0.811  11.067  0.00  0.00    +0.000 C 
ATOM     22  C   UNL     1       7.270   1.753  11.126  0.00  0.00    +0.000 C 
ENDBRANCH  20  22
ENDBRANCH  19  20
ENDBRANCH   1  19
TORSDOF 5
ENDMDL
MODEL 9
REMARK VINA RESULT:      -6.8      1.080      1.244
REMARK  Name = 
REMARK  6 active torsions:
REMARK  status: ('A' for Active; 'I' for Inactive)
REMARK    1  A    between atoms: C_1  and  C_2
REMARK    2  A    between atoms: C_2  and  C_3
REMARK    3  A    between atoms: C_3  and  C_4
REMARK    4  A    between atoms: C_4  and  N_5
REMARK    5  A    between atoms: C_8  and  N_9
REMARK    6  A    between atoms: C_10  and  C_12
REMARK                            x       y       z     vdW  Elec       q    Type
REMARK                         _______ _______ _______ _____ _____    ______ ____
ROOT
ATOM      1  N   UNL     1       6.079   3.631  13.412  0.00  0.00    +0.000 N 
ATOM      2  C   UNL     1       6.268   4.261  14.659  0.00  0.00    +0.000 A 
ATOM      3  C   UNL     1       5.405   3.932  15.688  0.00  0.00    +0.000 A 
ATOM      4  C   UNL     1       5.612   4.540  16.910  0.00  0.00    +0.000 A 
ATOM      5  N   UNL     1       6.550   5.471  17.086  0.00  0.00    +0.000 NA
ATOM      6  C   UNL     1       7.287   5.779  16.017  0.00  0.00    +0.000 A 
ATOM      7  N   UNL     1       7.204   5.206  14.808  0.00  0.00    +0.000 NA
ATOM      8  H   UNL     1       5.778   2.672  13.551  0.00  0.00    +0.000 HD
ENDROOT
BRANCH   4   9
ATOM      9  N   UNL     1       4.803   4.116  17.978  0.00  0.00    +0.000 N 
ATOM     10  C   UNL     1       3.468   3.780  17.888  0.00  0.00    +0.000 C 
ATOM     11  O   UNL     1       2.774   3.740  16.879  0.00  0.00    +0.000 OA
ATOM     12  H   UNL     1       5.256   4.023  18.875  0.00  0.00    +0.000 HD
BRANCH  10  13
ATOM     13  C   UNL     1       2.843   3.389  19.185  0.00  0.00    +0.000 A 
ATOM     14  C   UNL     1       3.572   2.742  20.191  0.00  0.00    +0.000 A 
ATOM     15  C   UNL     1       2.933   2.359  21.374  0.00  0.00    +0.000 A 
ATOM     16  C   UNL     1       1.577   2.629  21.554  0.00  0.00    +0.000 A 
ATOM     17  C   UNL     1       0.858   3.302  20.566  0.00  0.00    +0.000 A 
ATOM     18  C   UNL     1       1.491   3.689  19.385  0.00  0.00    +0.000 A 
ENDBRANCH  10  13
ENDBRANCH   4   9
BRANCH   1  19
ATOM     19  C   UNL     1       7.250   3.687  12.537  0.00  0.00    +0.000 C 
BRANCH  19  20
ATOM     20  C   UNL     1       7.066   2.711  11.371  0.00  0.00    +0.000 C 
BRANCH  20  22
ATOM     21  C   UNL     1       6.092   0.393  11.176  0.00  0.00    +0.000 C 
ATOM     22  C   UNL     1       5.814   1.844  11.532  0.00  0.00    +0.000 C 
ENDBRANCH  20  22
ENDBRANCH  19  20
ENDBRANCH   1  19
TORSDOF 5
ENDMDL
