MODEL 1
REMARK VINA RESULT:      -7.8      0.000      0.000
REMARK  Name = 
REMARK  4 active torsions:
REMARK  status: ('A' for Active; 'I' for Inactive)
REMARK    1  A    between atoms: N_3  and  C_4
REMARK    2  A    between atoms: C_4  and  C_5
REMARK    3  A    between atoms: N_20  and  C_21
REMARK    4  A    between atoms: C_21  and  C_22
REMARK                            x       y       z     vdW  Elec       q    Type
REMARK                         _______ _______ _______ _____ _____    ______ ____
ROOT
ATOM      1  O   UNL     1       4.345   6.696  16.773  0.00  0.00    +0.000 OA
ATOM      2  C   UNL     1       3.892   5.765  17.417  0.00  0.00    +0.000 C 
ATOM      3  N   UNL     1       4.610   4.515  17.426  0.00  0.00    +0.000 N 
ATOM      4  C   UNL     1       4.013   3.349  17.903  0.00  0.00    +0.000 A 
ATOM      5  C   UNL     1       4.526   2.065  17.891  0.00  0.00    +0.000 A 
ATOM      6  C   UNL     1       3.496   1.185  18.348  0.00  0.00    +0.000 A 
ATOM      7  C   UNL     1       2.398   1.957  18.666  0.00  0.00    +0.000 A 
ATOM      8  N   UNL     1       2.765   3.246  18.433  0.00  0.00    +0.000 N 
ATOM      9  S   UNL     1       1.808   4.615  18.530  0.00  0.00    +0.000 S 
ATOM     10  O   UNL     1       1.303   4.585  19.890  0.00  0.00    +0.000 OA
ATOM     11  O   UNL     1       0.951   4.504  17.376  0.00  0.00    +0.000 OA
ATOM     12  N   UNL     1       2.832   5.909  18.311  0.00  0.00    +0.000 N 
ENDROOT
BRANCH   3  13
ATOM     13  C   UNL     1       6.033   4.568  17.000  0.00  0.00    +0.000 C 
BRANCH  13  14
ATOM     14  C   UNL     1       6.238   4.463  15.506  0.00  0.00    +0.000 A 
ATOM     15  C   UNL     1       5.412   3.694  14.669  0.00  0.00    +0.000 A 
ATOM     16  C   UNL     1       5.668   3.591  13.308  0.00  0.00    +0.000 A 
ATOM     17  C   UNL     1       6.748   4.267  12.742  0.00  0.00    +0.000 A 
ATOM     18  C   UNL     1       7.555   5.066  13.546  0.00  0.00    +0.000 A 
ATOM     19 CL   UNL     1       8.867   5.927  12.846  0.00  0.00    +0.000 Cl
ATOM     20  C   UNL     1       7.311   5.164  14.917  0.00  0.00    +0.000 A 
ENDBRANCH  13  14
ENDBRANCH   3  13
BRANCH  12  21
ATOM     21  C   UNL     1       2.950   6.877  19.417  0.00  0.00    +0.000 C 
BRANCH  21  22
ATOM     22  C   UNL     1       1.962   8.010  19.375  0.00  0.00    +0.000 A 
ATOM     23  C   UNL     1       1.262   8.389  20.531  0.00  0.00    +0.000 A 
ATOM     24  C   UNL     1       0.391   9.481  20.509  0.00  0.00    +0.000 A 
ATOM     25  C   UNL     1       0.215  10.208  19.334  0.00  0.00    +0.000 A 
ATOM     26  C   UNL     1       0.903   9.841  18.180  0.00  0.00    +0.000 A 
ATOM     27  C   UNL     1       1.770   8.747  18.198  0.00  0.00    +0.000 A 
ENDBRANCH  21  22
ENDBRANCH  12  21
TORSDOF 4
ENDMDL
MODEL 2
REMARK VINA RESULT:      -7.6      1.010      1.654
REMARK  Name = 
REMARK  4 active torsions:
REMARK  status: ('A' for Active; 'I' for Inactive)
REMARK    1  A    between atoms: N_3  and  C_4
REMARK    2  A    between atoms: C_4  and  C_5
REMARK    3  A    between atoms: N_20  and  C_21
REMARK    4  A    between atoms: C_21  and  C_22
REMARK                            x       y       z     vdW  Elec       q    Type
REMARK                         _______ _______ _______ _____ _____    ______ ____
ROOT
ATOM      1  O   UNL     1       4.509   6.661  16.778  0.00  0.00    +0.000 OA
ATOM      2  C   UNL     1       4.005   5.740  17.397  0.00  0.00    +0.000 C 
ATOM      3  N   UNL     1       4.693   4.473  17.437  0.00  0.00    +0.000 N 
ATOM      4  C   UNL     1       4.046   3.320  17.883  0.00  0.00    +0.000 A 
ATOM      5  C   UNL     1       4.530   2.025  17.893  0.00  0.00    +0.000 A 
ATOM      6  C   UNL     1       3.459   1.169  18.298  0.00  0.00    +0.000 A 
ATOM      7  C   UNL     1       2.365   1.966  18.564  0.00  0.00    +0.000 A 
ATOM      8  N   UNL     1       2.772   3.246  18.352  0.00  0.00    +0.000 N 
ATOM      9  S   UNL     1       1.843   4.637  18.406  0.00  0.00    +0.000 S 
ATOM     10  O   UNL     1       1.274   4.617  19.741  0.00  0.00    +0.000 OA
ATOM     11  O   UNL     1       1.041   4.547  17.213  0.00  0.00    +0.000 OA
ATOM     12  N   UNL     1       2.907   5.907  18.240  0.00  0.00    +0.000 N 
ENDROOT
BRANCH   3  13
ATOM     13  C   UNL     1       6.135   4.494  17.080  0.00  0.00    +0.000 C 
BRANCH  13  14
ATOM     14  C   UNL     1       6.406   4.514  15.593  0.00  0.00    +0.000 A 
ATOM     15  C   UNL     1       7.539   5.120  15.026  0.00  0.00    +0.000 A 
ATOM     16  C   UNL     1       7.722   5.153  13.650  0.00  0.00    +0.000 A 
ATOM     17  C   UNL     1       6.784   4.566  12.802  0.00  0.00    +0.000 A 
ATOM     18  C   UNL     1       5.674   3.926  13.344  0.00  0.00    +0.000 A 
ATOM     19 CL   UNL     1       4.533   3.172  12.303  0.00  0.00    +0.000 Cl
ATOM     20  C   UNL     1       5.479   3.900  14.726  0.00  0.00    +0.000 A 
ENDBRANCH  13  14
ENDBRANCH   3  13
BRANCH  12  21
ATOM     21  C   UNL     1       2.994   6.870  19.352  0.00  0.00    +0.000 C 
BRANCH  21  22
ATOM     22  C   UNL     1       2.040   8.030  19.263  0.00  0.00    +0.000 A 
ATOM     23  C   UNL     1       1.796   8.659  18.032  0.00  0.00    +0.000 A 
ATOM     24  C   UNL     1       0.865   9.695  17.935  0.00  0.00    +0.000 A 
ATOM     25  C   UNL     1       0.163  10.109  19.065  0.00  0.00    +0.000 A 
ATOM     26  C   UNL     1       0.397   9.492  20.293  0.00  0.00    +0.000 A 
ATOM     27  C   UNL     1       1.332   8.461  20.393  0.00  0.00    +0.000 A 
ENDBRANCH  21  22
ENDBRANCH  12  21
TORSDOF 4
ENDMDL
MODEL 3
REMARK VINA RESULT:      -7.3      2.239      2.788
REMARK  Name = 
REMARK  4 active torsions:
REMARK  status: ('A' for Active; 'I' for Inactive)
REMARK    1  A    between atoms: N_3  and  C_4
REMARK    2  A    between atoms: C_4  and  C_5
REMARK    3  A    between atoms: N_20  and  C_21
REMARK    4  A    between atoms: C_21  and  C_22
REMARK                            x       y       z     vdW  Elec       q    Type
REMARK                         _______ _______ _______ _____ _____    ______ ____
ROOT
ATOM      1  O   UNL     1       2.683   6.907  17.405  0.00  0.00    +0.000 OA
ATOM      2  C   UNL     1       2.732   5.880  18.059  0.00  0.00    +0.000 C 
ATOM      3  N   UNL     1       3.639   4.839  17.644  0.00  0.00    +0.000 N 
ATOM      4  C   UNL     1       3.543   3.552  18.174  0.00  0.00    +0.000 A 
ATOM      5  C   UNL     1       4.266   2.429  17.815  0.00  0.00    +0.000 A 
ATOM      6  C   UNL     1       3.716   1.317  18.525  0.00  0.00    +0.000 A 
ATOM      7  C   UNL     1       2.701   1.796  19.328  0.00  0.00    +0.000 A 
ATOM      8  N   UNL     1       2.664   3.140  19.125  0.00  0.00    +0.000 N 
ATOM      9  S   UNL     1       1.561   4.236  19.743  0.00  0.00    +0.000 S 
ATOM     10  O   UNL     1       1.662   4.053  21.178  0.00  0.00    +0.000 OA
ATOM     11  O   UNL     1       0.359   3.951  19.001  0.00  0.00    +0.000 OA
ATOM     12  N   UNL     1       2.115   5.743  19.302  0.00  0.00    +0.000 N 
ENDROOT
BRANCH   3  13
ATOM     13  C   UNL     1       4.726   5.242  16.715  0.00  0.00    +0.000 C 
BRANCH  13  14
ATOM     14  C   UNL     1       5.969   5.760  17.401  0.00  0.00    +0.000 A 
ATOM     15  C   UNL     1       6.777   4.966  18.231  0.00  0.00    +0.000 A 
ATOM     16  C   UNL     1       7.884   5.499  18.878  0.00  0.00    +0.000 A 
ATOM     17  C   UNL     1       8.225   6.839  18.699  0.00  0.00    +0.000 A 
ATOM     18  C   UNL     1       7.461   7.634  17.850  0.00  0.00    +0.000 A 
ATOM     19 CL   UNL     1       7.898   9.277  17.601  0.00  0.00    +0.000 Cl
ATOM     20  C   UNL     1       6.340   7.107  17.207  0.00  0.00    +0.000 A 
ENDBRANCH  13  14
ENDBRANCH   3  13
BRANCH  12  21
ATOM     21  C   UNL     1       2.459   6.684  20.383  0.00  0.00    +0.000 C 
BRANCH  21  22
ATOM     22  C   UNL     1       1.486   7.816  20.572  0.00  0.00    +0.000 A 
ATOM     23  C   UNL     1       0.608   7.826  21.667  0.00  0.00    +0.000 A 
ATOM     24  C   UNL     1      -0.253   8.905  21.877  0.00  0.00    +0.000 A 
ATOM     25  C   UNL     1      -0.240   9.988  21.001  0.00  0.00    +0.000 A 
ATOM     26  C   UNL     1       0.627   9.989  19.911  0.00  0.00    +0.000 A 
ATOM     27  C   UNL     1       1.484   8.909  19.695  0.00  0.00    +0.000 A 
ENDBRANCH  21  22
ENDBRANCH  12  21
TORSDOF 4
ENDMDL
MODEL 4
REMARK VINA RESULT:      -7.2      3.440      6.607
REMARK  Name = 
REMARK  4 active torsions:
REMARK  status: ('A' for Active; 'I' for Inactive)
REMARK    1  A    between atoms: N_3  and  C_4
REMARK    2  A    between atoms: C_4  and  C_5
REMARK    3  A    between atoms: N_20  and  C_21
REMARK    4  A    between atoms: C_21  and  C_22
REMARK                            x       y       z     vdW  Elec       q    Type
REMARK                         _______ _______ _______ _____ _____    ______ ____
ROOT
ATOM      1  O   UNL     1       3.672   4.724  16.956  0.00  0.00    +0.000 OA
ATOM      2  C   UNL     1       4.649   5.253  17.457  0.00  0.00    +0.000 C 
ATOM      3  N   UNL     1       4.842   6.670  17.270  0.00  0.00    +0.000 N 
ATOM      4  C   UNL     1       6.062   7.273  17.574  0.00  0.00    +0.000 A 
ATOM      5  C   UNL     1       6.436   8.588  17.363  0.00  0.00    +0.000 A 
ATOM      6  C   UNL     1       7.822   8.700  17.694  0.00  0.00    +0.000 A 
ATOM      7  C   UNL     1       8.247   7.464  18.137  0.00  0.00    +0.000 A 
ATOM      8  N   UNL     1       7.155   6.655  18.096  0.00  0.00    +0.000 N 
ATOM      9  S   UNL     1       7.088   5.013  18.408  0.00  0.00    +0.000 S 
ATOM     10  O   UNL     1       7.618   4.897  19.754  0.00  0.00    +0.000 OA
ATOM     11  O   UNL     1       7.735   4.429  17.261  0.00  0.00    +0.000 OA
ATOM     12  N   UNL     1       5.474   4.604  18.375  0.00  0.00    +0.000 N 
ENDROOT
BRANCH   3  13
ATOM     13  C   UNL     1       3.650   7.447  16.841  0.00  0.00    +0.000 C 
BRANCH  13  14
ATOM     14  C   UNL     1       2.799   7.957  17.981  0.00  0.00    +0.000 A 
ATOM     15  C   UNL     1       2.645   7.266  19.194  0.00  0.00    +0.000 A 
ATOM     16  C   UNL     1       1.814   7.751  20.195  0.00  0.00    +0.000 A 
ATOM     17  C   UNL     1       1.126   8.951  20.018  0.00  0.00    +0.000 A 
ATOM     18  C   UNL     1       1.295   9.672  18.840  0.00  0.00    +0.000 A 
ATOM     19 CL   UNL     1       0.475  11.167  18.632  0.00  0.00    +0.000 Cl
ATOM     20  C   UNL     1       2.119   9.183  17.825  0.00  0.00    +0.000 A 
ENDBRANCH  13  14
ENDBRANCH   3  13
BRANCH  12  21
ATOM     21  C   UNL     1       4.885   4.060  19.612  0.00  0.00    +0.000 C 
BRANCH  21  22
ATOM     22  C   UNL     1       3.525   3.440  19.447  0.00  0.00    +0.000 A 
ATOM     23  C   UNL     1       2.393   4.039  20.024  0.00  0.00    +0.000 A 
ATOM     24  C   UNL     1       1.122   3.499  19.820  0.00  0.00    +0.000 A 
ATOM     25  C   UNL     1       0.966   2.359  19.035  0.00  0.00    +0.000 A 
ATOM     26  C   UNL     1       2.082   1.756  18.458  0.00  0.00    +0.000 A 
ATOM     27  C   UNL     1       3.354   2.290  18.665  0.00  0.00    +0.000 A 
ENDBRANCH  21  22
ENDBRANCH  12  21
TORSDOF 4
ENDMDL
MODEL 5
REMARK VINA RESULT:      -7.2      1.892      2.902
REMARK  Name = 
REMARK  4 active torsions:
REMARK  status: ('A' for Active; 'I' for Inactive)
REMARK    1  A    between atoms: N_3  and  C_4
REMARK    2  A    between atoms: C_4  and  C_5
REMARK    3  A    between atoms: N_20  and  C_21
REMARK    4  A    between atoms: C_21  and  C_22
REMARK                            x       y       z     vdW  Elec       q    Type
REMARK                         _______ _______ _______ _____ _____    ______ ____
ROOT
ATOM      1  O   UNL     1       3.975   6.977  16.619  0.00  0.00    +0.000 OA
ATOM      2  C   UNL     1       3.650   5.995  17.264  0.00  0.00    +0.000 C 
ATOM      3  N   UNL     1       4.446   4.798  17.149  0.00  0.00    +0.000 N 
ATOM      4  C   UNL     1       3.977   3.577  17.633  0.00  0.00    +0.000 A 
ATOM      5  C   UNL     1       4.569   2.332  17.516  0.00  0.00    +0.000 A 
ATOM      6  C   UNL     1       3.650   1.368  18.034  0.00  0.00    +0.000 A 
ATOM      7  C   UNL     1       2.541   2.051  18.490  0.00  0.00    +0.000 A 
ATOM      8  N   UNL     1       2.798   3.369  18.277  0.00  0.00    +0.000 N 
ATOM      9  S   UNL     1       1.768   4.664  18.526  0.00  0.00    +0.000 S 
ATOM     10  O   UNL     1       1.406   4.551  19.927  0.00  0.00    +0.000 OA
ATOM     11  O   UNL     1       0.809   4.536  17.458  0.00  0.00    +0.000 OA
ATOM     12  N   UNL     1       2.679   6.033  18.263  0.00  0.00    +0.000 N 
ENDROOT
BRANCH   3  13
ATOM     13  C   UNL     1       5.812   4.965  16.588  0.00  0.00    +0.000 C 
BRANCH  13  14
ATOM     14  C   UNL     1       6.776   5.679  17.506  0.00  0.00    +0.000 A 
ATOM     15  C   UNL     1       7.375   5.067  18.619  0.00  0.00    +0.000 A 
ATOM     16  C   UNL     1       8.220   5.778  19.461  0.00  0.00    +0.000 A 
ATOM     17  C   UNL     1       8.503   7.118  19.204  0.00  0.00    +0.000 A 
ATOM     18  C   UNL     1       7.952   7.734  18.084  0.00  0.00    +0.000 A 
ATOM     19 CL   UNL     1       8.326   9.377  17.746  0.00  0.00    +0.000 Cl
ATOM     20  C   UNL     1       7.093   7.028  17.241  0.00  0.00    +0.000 A 
ENDBRANCH  13  14
ENDBRANCH   3  13
BRANCH  12  21
ATOM     21  C   UNL     1       2.844   6.966  19.392  0.00  0.00    +0.000 C 
BRANCH  21  22
ATOM     22  C   UNL     1       1.871   8.113  19.415  0.00  0.00    +0.000 A 
ATOM     23  C   UNL     1       1.602   8.843  18.246  0.00  0.00    +0.000 A 
ATOM     24  C   UNL     1       0.653   9.867  18.251  0.00  0.00    +0.000 A 
ATOM     25  C   UNL     1      -0.041  10.169  19.420  0.00  0.00    +0.000 A 
ATOM     26  C   UNL     1       0.217   9.451  20.586  0.00  0.00    +0.000 A 
ATOM     27  C   UNL     1       1.169   8.431  20.586  0.00  0.00    +0.000 A 
ENDBRANCH  21  22
ENDBRANCH  12  21
TORSDOF 4
ENDMDL
MODEL 6
REMARK VINA RESULT:      -7.0      5.458      9.851
REMARK  Name = 
REMARK  4 active torsions:
REMARK  status: ('A' for Active; 'I' for Inactive)
REMARK    1  A    between atoms: N_3  and  C_4
REMARK    2  A    between atoms: C_4  and  C_5
REMARK    3  A    between atoms: N_20  and  C_21
REMARK    4  A    between atoms: C_21  and  C_22
REMARK                            x       y       z     vdW  Elec       q    Type
REMARK                         _______ _______ _______ _____ _____    ______ ____
ROOT
ATOM      1  O   UNL     1      -0.487   8.569  21.280  0.00  0.00    +0.000 OA
ATOM      2  C   UNL     1       0.310   9.171  20.582  0.00  0.00    +0.000 C 
ATOM      3  N   UNL     1       0.501  10.582  20.808  0.00  0.00    +0.000 N 
ATOM      4  C   UNL     1       1.176  11.373  19.877  0.00  0.00    +0.000 A 
ATOM      5  C   UNL     1       1.357  12.743  19.899  0.00  0.00    +0.000 A 
ATOM      6  C   UNL     1       1.978  13.115  18.666  0.00  0.00    +0.000 A 
ATOM      7  C   UNL     1       2.196  11.960  17.944  0.00  0.00    +0.000 A 
ATOM      8  N   UNL     1       1.749  10.939  18.723  0.00  0.00    +0.000 N 
ATOM      9  S   UNL     1       1.651   9.317  18.325  0.00  0.00    +0.000 S 
ATOM     10  O   UNL     1       3.011   8.970  17.959  0.00  0.00    +0.000 OA
ATOM     11  O   UNL     1       0.553   9.270  17.392  0.00  0.00    +0.000 OA
ATOM     12  N   UNL     1       1.199   8.528  19.720  0.00  0.00    +0.000 N 
ENDROOT
BRANCH   3  13
ATOM     13  C   UNL     1       0.033  11.110  22.116  0.00  0.00    +0.000 C 
BRANCH  13  14
ATOM     14  C   UNL     1      -1.357  11.702  22.085  0.00  0.00    +0.000 A 
ATOM     15  C   UNL     1      -1.955  12.201  20.916  0.00  0.00    +0.000 A 
ATOM     16  C   UNL     1      -3.217  12.778  20.946  0.00  0.00    +0.000 A 
ATOM     17  C   UNL     1      -3.926  12.857  22.143  0.00  0.00    +0.000 A 
ATOM     18  C   UNL     1      -3.369  12.333  23.306  0.00  0.00    +0.000 A 
ATOM     19 CL   UNL     1      -4.254  12.399  24.778  0.00  0.00    +0.000 Cl
ATOM     20  C   UNL     1      -2.096  11.763  23.285  0.00  0.00    +0.000 A 
ENDBRANCH  13  14
ENDBRANCH   3  13
BRANCH  12  21
ATOM     21  C   UNL     1       2.130   7.525  20.266  0.00  0.00    +0.000 C 
BRANCH  21  22
ATOM     22  C   UNL     1       1.906   6.120  19.778  0.00  0.00    +0.000 A 
ATOM     23  C   UNL     1       1.317   5.159  20.615  0.00  0.00    +0.000 A 
ATOM     24  C   UNL     1       1.051   3.872  20.144  0.00  0.00    +0.000 A 
ATOM     25  C   UNL     1       1.365   3.532  18.830  0.00  0.00    +0.000 A 
ATOM     26  C   UNL     1       1.950   4.477  17.989  0.00  0.00    +0.000 A 
ATOM     27  C   UNL     1       2.223   5.762  18.460  0.00  0.00    +0.000 A 
ENDBRANCH  21  22
ENDBRANCH  12  21
TORSDOF 4
ENDMDL
MODEL 7
REMARK VINA RESULT:      -7.0      2.328      3.080
REMARK  Name = 
REMARK  4 active torsions:
REMARK  status: ('A' for Active; 'I' for Inactive)
REMARK    1  A    between atoms: N_3  and  C_4
REMARK    2  A    between atoms: C_4  and  C_5
REMARK    3  A    between atoms: N_20  and  C_21
REMARK    4  A    between atoms: C_21  and  C_22
REMARK                            x       y       z     vdW  Elec       q    Type
REMARK                         _______ _______ _______ _____ _____    ______ ____
ROOT
ATOM      1  O   UNL     1       2.931   6.841  17.254  0.00  0.00    +0.000 OA
ATOM      2  C   UNL     1       2.930   5.834  17.940  0.00  0.00    +0.000 C 
ATOM      3  N   UNL     1       3.814   4.752  17.584  0.00  0.00    +0.000 N 
ATOM      4  C   UNL     1       3.663   3.487  18.150  0.00  0.00    +0.000 A 
ATOM      5  C   UNL     1       4.359   2.331  17.847  0.00  0.00    +0.000 A 
ATOM      6  C   UNL     1       3.754   1.260  18.575  0.00  0.00    +0.000 A 
ATOM      7  C   UNL     1       2.733   1.795  19.333  0.00  0.00    +0.000 A 
ATOM      8  N   UNL     1       2.745   3.132  19.088  0.00  0.00    +0.000 N 
ATOM      9  S   UNL     1       1.660   4.282  19.639  0.00  0.00    +0.000 S 
ATOM     10  O   UNL     1       1.716   4.141  21.082  0.00  0.00    +0.000 OA
ATOM     11  O   UNL     1       0.471   4.011  18.873  0.00  0.00    +0.000 OA
ATOM     12  N   UNL     1       2.274   5.756  19.168  0.00  0.00    +0.000 N 
ENDROOT
BRANCH   3  13
ATOM     13  C   UNL     1       4.939   5.092  16.674  0.00  0.00    +0.000 C 
BRANCH  13  14
ATOM     14  C   UNL     1       6.059   5.863  17.333  0.00  0.00    +0.000 A 
ATOM     15  C   UNL     1       6.485   7.128  16.893  0.00  0.00    +0.000 A 
ATOM     16  C   UNL     1       7.550   7.778  17.502  0.00  0.00    +0.000 A 
ATOM     17  C   UNL     1       8.210   7.190  18.580  0.00  0.00    +0.000 A 
ATOM     18  C   UNL     1       7.779   5.956  19.057  0.00  0.00    +0.000 A 
ATOM     19 CL   UNL     1       8.569   5.243  20.407  0.00  0.00    +0.000 Cl
ATOM     20  C   UNL     1       6.717   5.291  18.442  0.00  0.00    +0.000 A 
ENDBRANCH  13  14
ENDBRANCH   3  13
BRANCH  12  21
ATOM     21  C   UNL     1       2.618   6.720  20.229  0.00  0.00    +0.000 C 
BRANCH  21  22
ATOM     22  C   UNL     1       1.632   7.842  20.410  0.00  0.00    +0.000 A 
ATOM     23  C   UNL     1       1.527   8.859  19.449  0.00  0.00    +0.000 A 
ATOM     24  C   UNL     1       0.571   9.868  19.584  0.00  0.00    +0.000 A 
ATOM     25  C   UNL     1      -0.293   9.868  20.676  0.00  0.00    +0.000 A 
ATOM     26  C   UNL     1      -0.198   8.863  21.637  0.00  0.00    +0.000 A 
ATOM     27  C   UNL     1       0.761   7.857  21.508  0.00  0.00    +0.000 A 
ENDBRANCH  21  22
ENDBRANCH  12  21
TORSDOF 4
ENDMDL
MODEL 8
REMARK VINA RESULT:      -7.0      1.138      1.183
REMARK  Name = 
REMARK  4 active torsions:
REMARK  status: ('A' for Active; 'I' for Inactive)
REMARK    1  A    between atoms: N_3  and  C_4
REMARK    2  A    between atoms: C_4  and  C_5
REMARK    3  A    between atoms: N_20  and  C_21
REMARK    4  A    between atoms: C_21  and  C_22
REMARK                            x       y       z     vdW  Elec       q    Type
REMARK                         _______ _______ _______ _____ _____    ______ ____
ROOT
ATOM      1  O   UNL     1       3.735   7.166  17.076  0.00  0.00    +0.000 OA
ATOM      2  C   UNL     1       3.583   6.366  17.983  0.00  0.00    +0.000 C 
ATOM      3  N   UNL     1       4.586   5.351  18.186  0.00  0.00    +0.000 N 
ATOM      4  C   UNL     1       4.339   4.254  19.011  0.00  0.00    +0.000 A 
ATOM      5  C   UNL     1       5.151   3.156  19.232  0.00  0.00    +0.000 A 
ATOM      6  C   UNL     1       4.413   2.229  20.032  0.00  0.00    +0.000 A 
ATOM      7  C   UNL     1       3.190   2.801  20.313  0.00  0.00    +0.000 A 
ATOM      8  N   UNL     1       3.205   4.028  19.727  0.00  0.00    +0.000 N 
ATOM      9  S   UNL     1       1.951   5.132  19.633  0.00  0.00    +0.000 S 
ATOM     10  O   UNL     1       1.588   5.358  21.019  0.00  0.00    +0.000 OA
ATOM     11  O   UNL     1       1.053   4.534  18.677  0.00  0.00    +0.000 OA
ATOM     12  N   UNL     1       2.601   6.510  18.963  0.00  0.00    +0.000 N 
ENDROOT
BRANCH   3  13
ATOM     13  C   UNL     1       5.910   5.595  17.555  0.00  0.00    +0.000 C 
BRANCH  13  14
ATOM     14  C   UNL     1       6.038   5.053  16.151  0.00  0.00    +0.000 A 
ATOM     15  C   UNL     1       5.187   4.064  15.628  0.00  0.00    +0.000 A 
ATOM     16  C   UNL     1       5.373   3.564  14.346  0.00  0.00    +0.000 A 
ATOM     17  C   UNL     1       6.404   4.050  13.544  0.00  0.00    +0.000 A 
ATOM     18  C   UNL     1       7.234   5.057  14.027  0.00  0.00    +0.000 A 
ATOM     19 CL   UNL     1       8.485   5.681  13.029  0.00  0.00    +0.000 Cl
ATOM     20  C   UNL     1       7.060   5.555  15.319  0.00  0.00    +0.000 A 
ENDBRANCH  13  14
ENDBRANCH   3  13
BRANCH  12  21
ATOM     21  C   UNL     1       2.570   7.741  19.774  0.00  0.00    +0.000 C 
BRANCH  21  22
ATOM     22  C   UNL     1       1.396   8.644  19.513  0.00  0.00    +0.000 A 
ATOM     23  C   UNL     1       0.588   9.088  20.571  0.00  0.00    +0.000 A 
ATOM     24  C   UNL     1      -0.464   9.975  20.338  0.00  0.00    +0.000 A 
ATOM     25  C   UNL     1      -0.717  10.433  19.047  0.00  0.00    +0.000 A 
ATOM     26  C   UNL     1       0.078   9.999  17.988  0.00  0.00    +0.000 A 
ATOM     27  C   UNL     1       1.127   9.107  18.218  0.00  0.00    +0.000 A 
ENDBRANCH  21  22
ENDBRANCH  12  21
TORSDOF 4
ENDMDL
MODEL 9
REMARK VINA RESULT:      -6.9      4.719      8.955
REMARK  Name = 
REMARK  4 active torsions:
REMARK  status: ('A' for Active; 'I' for Inactive)
REMARK    1  A    between atoms: N_3  and  C_4
REMARK    2  A    between atoms: C_4  and  C_5
REMARK    3  A    between atoms: N_20  and  C_21
REMARK    4  A    between atoms: C_21  and  C_22
REMARK                            x       y       z     vdW  Elec       q    Type
REMARK                         _______ _______ _______ _____ _____    ______ ____
ROOT
ATOM      1  O   UNL     1       1.526  11.165  18.442  0.00  0.00    +0.000 OA
ATOM      2  C   UNL     1       0.938  10.752  19.427  0.00  0.00    +0.000 C 
ATOM      3  N   UNL     1      -0.184  11.505  19.930  0.00  0.00    +0.000 N 
ATOM      4  C   UNL     1      -0.714  11.243  21.193  0.00  0.00    +0.000 A 
ATOM      5  C   UNL     1      -1.715  11.931  21.854  0.00  0.00    +0.000 A 
ATOM      6  C   UNL     1      -1.812  11.389  23.173  0.00  0.00    +0.000 A 
ATOM      7  C   UNL     1      -0.898  10.360  23.270  0.00  0.00    +0.000 A 
ATOM      8  N   UNL     1      -0.299  10.274  22.052  0.00  0.00    +0.000 N 
ATOM      9  S   UNL     1       0.974   9.284  21.607  0.00  0.00    +0.000 S 
ATOM     10  O   UNL     1       0.492   7.949  21.908  0.00  0.00    +0.000 OA
ATOM     11  O   UNL     1       2.105   9.876  22.275  0.00  0.00    +0.000 OA
ATOM     12  N   UNL     1       1.160   9.485  19.964  0.00  0.00    +0.000 N 
ENDROOT
BRANCH   3  13
ATOM     13  C   UNL     1      -0.793  12.486  18.995  0.00  0.00    +0.000 C 
BRANCH  13  14
ATOM     14  C   UNL     1      -2.030  11.983  18.287  0.00  0.00    +0.000 A 
ATOM     15  C   UNL     1      -3.317  12.054  18.844  0.00  0.00    +0.000 A 
ATOM     16  C   UNL     1      -4.418  11.536  18.175  0.00  0.00    +0.000 A 
ATOM     17  C   UNL     1      -4.265  10.947  16.921  0.00  0.00    +0.000 A 
ATOM     18  C   UNL     1      -3.005  10.902  16.333  0.00  0.00    +0.000 A 
ATOM     19 CL   UNL     1      -2.818  10.206  14.772  0.00  0.00    +0.000 Cl
ATOM     20  C   UNL     1      -1.893  11.410  17.006  0.00  0.00    +0.000 A 
ENDBRANCH  13  14
ENDBRANCH   3  13
BRANCH  12  21
ATOM     21  C   UNL     1       0.975   8.298  19.109  0.00  0.00    +0.000 C 
BRANCH  21  22
ATOM     22  C   UNL     1       2.232   7.526  18.815  0.00  0.00    +0.000 A 
ATOM     23  C   UNL     1       2.584   6.414  19.595  0.00  0.00    +0.000 A 
ATOM     24  C   UNL     1       3.718   5.659  19.286  0.00  0.00    +0.000 A 
ATOM     25  C   UNL     1       4.507   6.004  18.191  0.00  0.00    +0.000 A 
ATOM     26  C   UNL     1       4.168   7.107  17.410  0.00  0.00    +0.000 A 
ATOM     27  C   UNL     1       3.038   7.866  17.721  0.00  0.00    +0.000 A 
ENDBRANCH  21  22
ENDBRANCH  12  21
TORSDOF 4
ENDMDL
