MODEL 1
REMARK VINA RESULT:      -8.1      0.000      0.000
REMARK  Name = 
REMARK  11 active torsions:
REMARK  status: ('A' for Active; 'I' for Inactive)
REMARK    1  A    between atoms: C_1  and  C_2
REMARK    2  A    between atoms: C_2  and  C_3
REMARK    3  A    between atoms: C_5  and  N_6
REMARK    4  A    between atoms: C_7  and  C_9
REMARK    5  A    between atoms: C_9  and  C_10
REMARK    6  A    between atoms: C_10  and  C_11
REMARK    7  A    between atoms: C_14  and  C_15
REMARK    8  A    between atoms: C_15  and  C_16
REMARK    9  A    between atoms: C_16  and  C_17
REMARK   10  A    between atoms: C_17  and  C_18
REMARK   11  A    between atoms: C_18  and  C_19
REMARK                            x       y       z     vdW  Elec       q    Type
REMARK                         _______ _______ _______ _____ _____    ______ ____
ROOT
ATOM      1  C   UNL     1       7.559   6.554  17.686  0.00  0.00    +0.000 A 
ATOM      2  N   UNL     1       6.984   7.413  16.874  0.00  0.00    +0.000 NA
ATOM      3  N   UNL     1       7.416   8.662  17.260  0.00  0.00    +0.000 NA
ATOM      4  C   UNL     1       8.227   8.477  18.279  0.00  0.00    +0.000 A 
ATOM      5  O   UNL     1       8.371   7.156  18.614  0.00  0.00    +0.000 OA
ENDROOT
BRANCH   1   6
ATOM      6  C   UNL     1       7.451   5.079  17.711  0.00  0.00    +0.000 C 
BRANCH   6   7
ATOM      7  C   UNL     1       7.258   4.510  16.309  0.00  0.00    +0.000 C 
BRANCH   7   9
ATOM      8  N   UNL     1       5.192   3.668  17.239  0.00  0.00    +0.000 N 
ATOM      9  C   UNL     1       5.817   4.115  16.090  0.00  0.00    +0.000 C 
ATOM     10  O   UNL     1       5.259   4.197  15.002  0.00  0.00    +0.000 OA
ATOM     11  H   UNL     1       5.730   3.609  18.092  0.00  0.00    +0.000 HD
BRANCH   8  16
ATOM     12  C   UNL     1       1.792   5.498  19.741  0.00  0.00    +0.000 C 
ATOM     13  C   UNL     1       2.943   4.579  19.304  0.00  0.00    +0.000 C 
ATOM     14  C   UNL     1       4.256   5.227  19.771  0.00  0.00    +0.000 C 
ATOM     15  C   UNL     1       2.863   4.393  17.780  0.00  0.00    +0.000 C 
ATOM     16  C   UNL     1       3.783   3.287  17.254  0.00  0.00    +0.000 C 
ATOM     17  C   UNL     1       3.546   2.009  18.064  0.00  0.00    +0.000 C 
ATOM     18  C   UNL     1       3.605   2.270  19.562  0.00  0.00    +0.000 C 
ATOM     19  O   UNL     1       2.728   3.323  19.959  0.00  0.00    +0.000 OA
ENDBRANCH   8  16
ENDBRANCH   7   9
ENDBRANCH   6   7
ENDBRANCH   1   6
BRANCH   4  20
ATOM     20  C   UNL     1       8.957   9.488  19.080  0.00  0.00    +0.000 C 
BRANCH  20  21
ATOM     21  C   UNL     1       9.379  10.722  18.281  0.00  0.00    +0.000 C 
BRANCH  21  22
ATOM     22  C   UNL     1      10.610  11.422  18.865  0.00  0.00    +0.000 C 
BRANCH  22  23
ATOM     23  C   UNL     1      11.443  12.090  17.769  0.00  0.00    +0.000 C 
BRANCH  23  24
ATOM     24  C   UNL     1      11.535  13.581  17.981  0.00  0.00    +0.000 A 
ATOM     25  C   UNL     1      11.769  14.104  19.259  0.00  0.00    +0.000 A 
ATOM     26  C   UNL     1      11.814  15.484  19.460  0.00  0.00    +0.000 A 
ATOM     27  C   UNL     1      11.624  16.353  18.387  0.00  0.00    +0.000 A 
ATOM     28  C   UNL     1      11.394  15.843  17.110  0.00  0.00    +0.000 A 
ATOM     29  C   UNL     1      11.347  14.463  16.908  0.00  0.00    +0.000 A 
ENDBRANCH  23  24
ENDBRANCH  22  23
ENDBRANCH  21  22
ENDBRANCH  20  21
ENDBRANCH   4  20
TORSDOF 9
ENDMDL
MODEL 2
REMARK VINA RESULT:      -8.0      3.031     10.667
REMARK  Name = 
REMARK  11 active torsions:
REMARK  status: ('A' for Active; 'I' for Inactive)
REMARK    1  A    between atoms: C_1  and  C_2
REMARK    2  A    between atoms: C_2  and  C_3
REMARK    3  A    between atoms: C_5  and  N_6
REMARK    4  A    between atoms: C_7  and  C_9
REMARK    5  A    between atoms: C_9  and  C_10
REMARK    6  A    between atoms: C_10  and  C_11
REMARK    7  A    between atoms: C_14  and  C_15
REMARK    8  A    between atoms: C_15  and  C_16
REMARK    9  A    between atoms: C_16  and  C_17
REMARK   10  A    between atoms: C_17  and  C_18
REMARK   11  A    between atoms: C_18  and  C_19
REMARK                            x       y       z     vdW  Elec       q    Type
REMARK                         _______ _______ _______ _____ _____    ______ ____
ROOT
ATOM      1  C   UNL     1       7.736   7.896  17.762  0.00  0.00    +0.000 A 
ATOM      2  N   UNL     1       8.150   6.949  18.575  0.00  0.00    +0.000 NA
ATOM      3  N   UNL     1       7.520   5.791  18.177  0.00  0.00    +0.000 NA
ATOM      4  C   UNL     1       6.767   6.112  17.146  0.00  0.00    +0.000 A 
ATOM      5  O   UNL     1       6.850   7.440  16.819  0.00  0.00    +0.000 OA
ENDROOT
BRANCH   1   6
ATOM      6  C   UNL     1       8.106   9.327  17.734  0.00  0.00    +0.000 C 
BRANCH   6   7
ATOM      7  C   UNL     1       9.003   9.695  18.911  0.00  0.00    +0.000 C 
BRANCH   7   9
ATOM      8  N   UNL     1       9.358  11.952  19.701  0.00  0.00    +0.000 N 
ATOM      9  C   UNL     1       9.637  11.049  18.693  0.00  0.00    +0.000 C 
ATOM     10  O   UNL     1      10.337  11.311  17.722  0.00  0.00    +0.000 OA
ATOM     11  H   UNL     1       8.752  11.664  20.457  0.00  0.00    +0.000 HD
BRANCH   8  16
ATOM     12  C   UNL     1       9.259  15.040  23.111  0.00  0.00    +0.000 C 
ATOM     13  C   UNL     1       8.873  14.258  21.846  0.00  0.00    +0.000 C 
ATOM     14  C   UNL     1       8.013  13.062  22.285  0.00  0.00    +0.000 C 
ATOM     15  C   UNL     1      10.163  13.846  21.118  0.00  0.00    +0.000 C 
ATOM     16  C   UNL     1       9.917  13.300  19.707  0.00  0.00    +0.000 C 
ATOM     17  C   UNL     1       9.036  14.287  18.934  0.00  0.00    +0.000 C 
ATOM     18  C   UNL     1       7.796  14.678  19.725  0.00  0.00    +0.000 C 
ATOM     19  O   UNL     1       8.120  15.161  21.027  0.00  0.00    +0.000 OA
ENDBRANCH   8  16
ENDBRANCH   7   9
ENDBRANCH   6   7
ENDBRANCH   1   6
BRANCH   4  20
ATOM     20  C   UNL     1       5.870   5.246  16.347  0.00  0.00    +0.000 C 
BRANCH  20  21
ATOM     21  C   UNL     1       4.593   4.834  17.081  0.00  0.00    +0.000 C 
BRANCH  21  22
ATOM     22  C   UNL     1       4.014   5.956  17.950  0.00  0.00    +0.000 C 
BRANCH  22  23
ATOM     23  C   UNL     1       2.488   5.866  18.030  0.00  0.00    +0.000 C 
BRANCH  23  24
ATOM     24  C   UNL     1       2.051   4.837  19.043  0.00  0.00    +0.000 A 
ATOM     25  C   UNL     1       2.438   4.950  20.384  0.00  0.00    +0.000 A 
ATOM     26  C   UNL     1       2.067   3.975  21.311  0.00  0.00    +0.000 A 
ATOM     27  C   UNL     1       1.306   2.880  20.907  0.00  0.00    +0.000 A 
ATOM     28  C   UNL     1       0.913   2.760  19.575  0.00  0.00    +0.000 A 
ATOM     29  C   UNL     1       1.285   3.732  18.646  0.00  0.00    +0.000 A 
ENDBRANCH  23  24
ENDBRANCH  22  23
ENDBRANCH  21  22
ENDBRANCH  20  21
ENDBRANCH   4  20
TORSDOF 9
ENDMDL
MODEL 3
REMARK VINA RESULT:      -7.8      2.101      3.201
REMARK  Name = 
REMARK  11 active torsions:
REMARK  status: ('A' for Active; 'I' for Inactive)
REMARK    1  A    between atoms: C_1  and  C_2
REMARK    2  A    between atoms: C_2  and  C_3
REMARK    3  A    between atoms: C_5  and  N_6
REMARK    4  A    between atoms: C_7  and  C_9
REMARK    5  A    between atoms: C_9  and  C_10
REMARK    6  A    between atoms: C_10  and  C_11
REMARK    7  A    between atoms: C_14  and  C_15
REMARK    8  A    between atoms: C_15  and  C_16
REMARK    9  A    between atoms: C_16  and  C_17
REMARK   10  A    between atoms: C_17  and  C_18
REMARK   11  A    between atoms: C_18  and  C_19
REMARK                            x       y       z     vdW  Elec       q    Type
REMARK                         _______ _______ _______ _____ _____    ______ ____
ROOT
ATOM      1  C   UNL     1       5.481   6.794  16.725  0.00  0.00    +0.000 A 
ATOM      2  N   UNL     1       6.373   6.285  15.904  0.00  0.00    +0.000 NA
ATOM      3  N   UNL     1       7.607   6.621  16.414  0.00  0.00    +0.000 NA
ATOM      4  C   UNL     1       7.382   7.310  17.512  0.00  0.00    +0.000 A 
ATOM      5  O   UNL     1       6.047   7.464  17.780  0.00  0.00    +0.000 OA
ENDROOT
BRANCH   1   6
ATOM      6  C   UNL     1       4.005   6.722  16.659  0.00  0.00    +0.000 C 
BRANCH   6   7
ATOM      7  C   UNL     1       3.355   7.592  17.729  0.00  0.00    +0.000 C 
BRANCH   7   9
ATOM      8  N   UNL     1       2.489   5.423  18.353  0.00  0.00    +0.000 N 
ATOM      9  C   UNL     1       2.652   6.735  18.756  0.00  0.00    +0.000 C 
ATOM     10  O   UNL     1       2.277   7.163  19.840  0.00  0.00    +0.000 OA
ATOM     11  H   UNL     1       2.806   5.155  17.431  0.00  0.00    +0.000 HD
BRANCH   8  16
ATOM     12  C   UNL     1       4.579   2.041  20.669  0.00  0.00    +0.000 C 
ATOM     13  C   UNL     1       3.841   2.801  19.556  0.00  0.00    +0.000 C 
ATOM     14  C   UNL     1       4.903   3.477  18.674  0.00  0.00    +0.000 C 
ATOM     15  C   UNL     1       2.868   3.795  20.210  0.00  0.00    +0.000 C 
ATOM     16  C   UNL     1       1.880   4.419  19.219  0.00  0.00    +0.000 C 
ATOM     17  C   UNL     1       1.205   3.304  18.414  0.00  0.00    +0.000 C 
ATOM     18  C   UNL     1       2.222   2.338  17.824  0.00  0.00    +0.000 C 
ATOM     19  O   UNL     1       3.107   1.818  18.815  0.00  0.00    +0.000 OA
ENDBRANCH   8  16
ENDBRANCH   7   9
ENDBRANCH   6   7
ENDBRANCH   1   6
BRANCH   4  20
ATOM     20  C   UNL     1       8.360   7.923  18.441  0.00  0.00    +0.000 C 
BRANCH  20  21
ATOM     21  C   UNL     1       8.588   9.416  18.200  0.00  0.00    +0.000 C 
BRANCH  21  22
ATOM     22  C   UNL     1       9.210  10.130  19.405  0.00  0.00    +0.000 C 
BRANCH  22  23
ATOM     23  C   UNL     1      10.202  11.208  18.962  0.00  0.00    +0.000 C 
BRANCH  23  24
ATOM     24  C   UNL     1      10.213  12.371  19.922  0.00  0.00    +0.000 A 
ATOM     25  C   UNL     1       9.471  12.321  21.109  0.00  0.00    +0.000 A 
ATOM     26  C   UNL     1       9.450  13.414  21.976  0.00  0.00    +0.000 A 
ATOM     27  C   UNL     1      10.170  14.567  21.665  0.00  0.00    +0.000 A 
ATOM     28  C   UNL     1      10.914  14.625  20.488  0.00  0.00    +0.000 A 
ATOM     29  C   UNL     1      10.934  13.534  19.619  0.00  0.00    +0.000 A 
ENDBRANCH  23  24
ENDBRANCH  22  23
ENDBRANCH  21  22
ENDBRANCH  20  21
ENDBRANCH   4  20
TORSDOF 9
ENDMDL
MODEL 4
REMARK VINA RESULT:      -7.8      2.902     10.645
REMARK  Name = 
REMARK  11 active torsions:
REMARK  status: ('A' for Active; 'I' for Inactive)
REMARK    1  A    between atoms: C_1  and  C_2
REMARK    2  A    between atoms: C_2  and  C_3
REMARK    3  A    between atoms: C_5  and  N_6
REMARK    4  A    between atoms: C_7  and  C_9
REMARK    5  A    between atoms: C_9  and  C_10
REMARK    6  A    between atoms: C_10  and  C_11
REMARK    7  A    between atoms: C_14  and  C_15
REMARK    8  A    between atoms: C_15  and  C_16
REMARK    9  A    between atoms: C_16  and  C_17
REMARK   10  A    between atoms: C_17  and  C_18
REMARK   11  A    between atoms: C_18  and  C_19
REMARK                            x       y       z     vdW  Elec       q    Type
REMARK                         _______ _______ _______ _____ _____    ______ ____
ROOT
ATOM      1  C   UNL     1       7.845   7.833  17.808  0.00  0.00    +0.000 A 
ATOM      2  N   UNL     1       8.177   6.951  18.725  0.00  0.00    +0.000 NA
ATOM      3  N   UNL     1       7.707   5.735  18.284  0.00  0.00    +0.000 NA
ATOM      4  C   UNL     1       7.122   5.959  17.127  0.00  0.00    +0.000 A 
ATOM      5  O   UNL     1       7.168   7.276  16.752  0.00  0.00    +0.000 OA
ENDROOT
BRANCH   1   6
ATOM      6  C   UNL     1       8.114   9.286  17.772  0.00  0.00    +0.000 C 
BRANCH   6   7
ATOM      7  C   UNL     1       9.018   9.716  18.923  0.00  0.00    +0.000 C 
BRANCH   7   9
ATOM      8  N   UNL     1       9.314  12.027  19.563  0.00  0.00    +0.000 N 
ATOM      9  C   UNL     1       9.645  11.059  18.633  0.00  0.00    +0.000 C 
ATOM     10  O   UNL     1      10.380  11.262  17.675  0.00  0.00    +0.000 OA
ATOM     11  H   UNL     1       8.681  11.785  20.312  0.00  0.00    +0.000 HD
BRANCH   8  16
ATOM     12  C   UNL     1       9.522  15.165  22.922  0.00  0.00    +0.000 C 
ATOM     13  C   UNL     1       9.021  14.361  21.713  0.00  0.00    +0.000 C 
ATOM     14  C   UNL     1       8.221  13.164  22.252  0.00  0.00    +0.000 C 
ATOM     15  C   UNL     1      10.236  13.950  20.865  0.00  0.00    +0.000 C 
ATOM     16  C   UNL     1       9.856  13.381  19.494  0.00  0.00    +0.000 C 
ATOM     17  C   UNL     1       8.893  14.347  18.799  0.00  0.00    +0.000 C 
ATOM     18  C   UNL     1       7.733  14.739  19.704  0.00  0.00    +0.000 C 
ATOM     19  O   UNL     1       8.180  15.244  20.960  0.00  0.00    +0.000 OA
ENDBRANCH   8  16
ENDBRANCH   7   9
ENDBRANCH   6   7
ENDBRANCH   1   6
BRANCH   4  20
ATOM     20  C   UNL     1       6.439   4.997  16.230  0.00  0.00    +0.000 C 
BRANCH  20  21
ATOM     21  C   UNL     1       4.914   5.112  16.250  0.00  0.00    +0.000 C 
BRANCH  21  22
ATOM     22  C   UNL     1       4.222   3.830  16.724  0.00  0.00    +0.000 C 
BRANCH  22  23
ATOM     23  C   UNL     1       4.498   3.564  18.206  0.00  0.00    +0.000 C 
BRANCH  23  24
ATOM     24  C   UNL     1       3.250   3.735  19.036  0.00  0.00    +0.000 A 
ATOM     25  C   UNL     1       2.268   2.736  19.058  0.00  0.00    +0.000 A 
ATOM     26  C   UNL     1       1.096   2.914  19.794  0.00  0.00    +0.000 A 
ATOM     27  C   UNL     1       0.894   4.090  20.514  0.00  0.00    +0.000 A 
ATOM     28  C   UNL     1       1.867   5.088  20.501  0.00  0.00    +0.000 A 
ATOM     29  C   UNL     1       3.039   4.914  19.764  0.00  0.00    +0.000 A 
ENDBRANCH  23  24
ENDBRANCH  22  23
ENDBRANCH  21  22
ENDBRANCH  20  21
ENDBRANCH   4  20
TORSDOF 9
ENDMDL
MODEL 5
REMARK VINA RESULT:      -7.7      2.818     11.092
REMARK  Name = 
REMARK  11 active torsions:
REMARK  status: ('A' for Active; 'I' for Inactive)
REMARK    1  A    between atoms: C_1  and  C_2
REMARK    2  A    between atoms: C_2  and  C_3
REMARK    3  A    between atoms: C_5  and  N_6
REMARK    4  A    between atoms: C_7  and  C_9
REMARK    5  A    between atoms: C_9  and  C_10
REMARK    6  A    between atoms: C_10  and  C_11
REMARK    7  A    between atoms: C_14  and  C_15
REMARK    8  A    between atoms: C_15  and  C_16
REMARK    9  A    between atoms: C_16  and  C_17
REMARK   10  A    between atoms: C_17  and  C_18
REMARK   11  A    between atoms: C_18  and  C_19
REMARK                            x       y       z     vdW  Elec       q    Type
REMARK                         _______ _______ _______ _____ _____    ______ ____
ROOT
ATOM      1  C   UNL     1       8.285   8.419  18.247  0.00  0.00    +0.000 A 
ATOM      2  N   UNL     1       7.632   8.450  17.106  0.00  0.00    +0.000 NA
ATOM      3  N   UNL     1       7.231   7.158  16.852  0.00  0.00    +0.000 NA
ATOM      4  C   UNL     1       7.665   6.429  17.858  0.00  0.00    +0.000 A 
ATOM      5  O   UNL     1       8.349   7.162  18.792  0.00  0.00    +0.000 OA
ENDROOT
BRANCH   1   6
ATOM      6  C   UNL     1       8.919   9.531  18.989  0.00  0.00    +0.000 C 
BRANCH   6   7
ATOM      7  C   UNL     1       9.015  10.790  18.134  0.00  0.00    +0.000 C 
BRANCH   7   9
ATOM      8  N   UNL     1       9.377  13.076  18.828  0.00  0.00    +0.000 N 
ATOM      9  C   UNL     1       9.922  11.807  18.785  0.00  0.00    +0.000 C 
ATOM     10  O   UNL     1      11.025  11.526  19.239  0.00  0.00    +0.000 OA
ATOM     11  H   UNL     1       8.470  13.229  18.410  0.00  0.00    +0.000 HD
BRANCH   8  16
ATOM     12  C   UNL     1       7.904  17.407  19.322  0.00  0.00    +0.000 C 
ATOM     13  C   UNL     1       8.595  16.164  18.742  0.00  0.00    +0.000 C 
ATOM     14  C   UNL     1       7.566  15.426  17.870  0.00  0.00    +0.000 C 
ATOM     15  C   UNL     1       9.127  15.315  19.908  0.00  0.00    +0.000 C 
ATOM     16  C   UNL     1      10.070  14.193  19.463  0.00  0.00    +0.000 C 
ATOM     17  C   UNL     1      11.156  14.780  18.556  0.00  0.00    +0.000 C 
ATOM     18  C   UNL     1      10.564  15.635  17.445  0.00  0.00    +0.000 C 
ATOM     19  O   UNL     1       9.690  16.643  17.950  0.00  0.00    +0.000 OA
ENDBRANCH   8  16
ENDBRANCH   7   9
ENDBRANCH   6   7
ENDBRANCH   1   6
BRANCH   4  20
ATOM     20  C   UNL     1       7.519   4.971  18.078  0.00  0.00    +0.000 C 
BRANCH  20  21
ATOM     21  C   UNL     1       6.069   4.512  18.237  0.00  0.00    +0.000 C 
BRANCH  21  22
ATOM     22  C   UNL     1       5.277   5.364  19.235  0.00  0.00    +0.000 C 
BRANCH  22  23
ATOM     23  C   UNL     1       3.911   5.758  18.669  0.00  0.00    +0.000 C 
BRANCH  23  24
ATOM     24  C   UNL     1       2.836   4.795  19.106  0.00  0.00    +0.000 A 
ATOM     25  C   UNL     1       2.261   3.907  18.188  0.00  0.00    +0.000 A 
ATOM     26  C   UNL     1       1.238   3.045  18.586  0.00  0.00    +0.000 A 
ATOM     27  C   UNL     1       0.781   3.062  19.902  0.00  0.00    +0.000 A 
ATOM     28  C   UNL     1       1.350   3.939  20.824  0.00  0.00    +0.000 A 
ATOM     29  C   UNL     1       2.371   4.804  20.428  0.00  0.00    +0.000 A 
ENDBRANCH  23  24
ENDBRANCH  22  23
ENDBRANCH  21  22
ENDBRANCH  20  21
ENDBRANCH   4  20
TORSDOF 9
ENDMDL
MODEL 6
REMARK VINA RESULT:      -7.6      4.432      9.027
REMARK  Name = 
REMARK  11 active torsions:
REMARK  status: ('A' for Active; 'I' for Inactive)
REMARK    1  A    between atoms: C_1  and  C_2
REMARK    2  A    between atoms: C_2  and  C_3
REMARK    3  A    between atoms: C_5  and  N_6
REMARK    4  A    between atoms: C_7  and  C_9
REMARK    5  A    between atoms: C_9  and  C_10
REMARK    6  A    between atoms: C_10  and  C_11
REMARK    7  A    between atoms: C_14  and  C_15
REMARK    8  A    between atoms: C_15  and  C_16
REMARK    9  A    between atoms: C_16  and  C_17
REMARK   10  A    between atoms: C_17  and  C_18
REMARK   11  A    between atoms: C_18  and  C_19
REMARK                            x       y       z     vdW  Elec       q    Type
REMARK                         _______ _______ _______ _____ _____    ______ ____
ROOT
ATOM      1  C   UNL     1       2.209   5.705  19.925  0.00  0.00    +0.000 A 
ATOM      2  N   UNL     1       2.585   6.562  19.001  0.00  0.00    +0.000 NA
ATOM      3  N   UNL     1       2.154   7.800  19.420  0.00  0.00    +0.000 NA
ATOM      4  C   UNL     1       1.547   7.613  20.573  0.00  0.00    +0.000 A 
ATOM      5  O   UNL     1       1.540   6.300  20.965  0.00  0.00    +0.000 OA
ENDROOT
BRANCH   1   6
ATOM      6  C   UNL     1       2.424   4.243  19.983  0.00  0.00    +0.000 C 
BRANCH   6   7
ATOM      7  C   UNL     1       3.034   3.716  18.688  0.00  0.00    +0.000 C 
BRANCH   7   9
ATOM      8  N   UNL     1       5.193   4.135  17.686  0.00  0.00    +0.000 N 
ATOM      9  C   UNL     1       4.539   3.645  18.800  0.00  0.00    +0.000 C 
ATOM     10  O   UNL     1       5.116   3.205  19.787  0.00  0.00    +0.000 OA
ATOM     11  H   UNL     1       4.642   4.459  16.903  0.00  0.00    +0.000 HD
BRANCH   8  16
ATOM     12  C   UNL     1       7.858   7.885  17.778  0.00  0.00    +0.000 C 
ATOM     13  C   UNL     1       7.009   6.718  17.253  0.00  0.00    +0.000 C 
ATOM     14  C   UNL     1       5.548   7.194  17.200  0.00  0.00    +0.000 C 
ATOM     15  C   UNL     1       7.222   5.508  18.178  0.00  0.00    +0.000 C 
ATOM     16  C   UNL     1       6.649   4.204  17.614  0.00  0.00    +0.000 C 
ATOM     17  C   UNL     1       7.159   4.008  16.182  0.00  0.00    +0.000 C 
ATOM     18  C   UNL     1       6.948   5.253  15.332  0.00  0.00    +0.000 C 
ATOM     19  O   UNL     1       7.501   6.419  15.940  0.00  0.00    +0.000 OA
ENDBRANCH   8  16
ENDBRANCH   7   9
ENDBRANCH   6   7
ENDBRANCH   1   6
BRANCH   4  20
ATOM     20  C   UNL     1       0.888   8.611  21.448  0.00  0.00    +0.000 C 
BRANCH  20  21
ATOM     21  C   UNL     1       0.851  10.021  20.857  0.00  0.00    +0.000 C 
BRANCH  21  22
ATOM     22  C   UNL     1      -0.533  10.672  20.947  0.00  0.00    +0.000 C 
BRANCH  22  23
ATOM     23  C   UNL     1      -0.732  11.711  19.841  0.00  0.00    +0.000 C 
BRANCH  23  24
ATOM     24  C   UNL     1      -1.711  11.226  18.801  0.00  0.00    +0.000 A 
ATOM     25  C   UNL     1      -1.323  10.278  17.846  0.00  0.00    +0.000 A 
ATOM     26  C   UNL     1      -2.219   9.861  16.860  0.00  0.00    +0.000 A 
ATOM     27  C   UNL     1      -3.508  10.388  16.819  0.00  0.00    +0.000 A 
ATOM     28  C   UNL     1      -3.905  11.330  17.767  0.00  0.00    +0.000 A 
ATOM     29  C   UNL     1      -3.011  11.750  18.752  0.00  0.00    +0.000 A 
ENDBRANCH  23  24
ENDBRANCH  22  23
ENDBRANCH  21  22
ENDBRANCH  20  21
ENDBRANCH   4  20
TORSDOF 9
ENDMDL
MODEL 7
REMARK VINA RESULT:      -7.6      2.477     10.943
REMARK  Name = 
REMARK  11 active torsions:
REMARK  status: ('A' for Active; 'I' for Inactive)
REMARK    1  A    between atoms: C_1  and  C_2
REMARK    2  A    between atoms: C_2  and  C_3
REMARK    3  A    between atoms: C_5  and  N_6
REMARK    4  A    between atoms: C_7  and  C_9
REMARK    5  A    between atoms: C_9  and  C_10
REMARK    6  A    between atoms: C_10  and  C_11
REMARK    7  A    between atoms: C_14  and  C_15
REMARK    8  A    between atoms: C_15  and  C_16
REMARK    9  A    between atoms: C_16  and  C_17
REMARK   10  A    between atoms: C_17  and  C_18
REMARK   11  A    between atoms: C_18  and  C_19
REMARK                            x       y       z     vdW  Elec       q    Type
REMARK                         _______ _______ _______ _____ _____    ______ ____
ROOT
ATOM      1  C   UNL     1       7.447   7.105  17.496  0.00  0.00    +0.000 A 
ATOM      2  N   UNL     1       7.663   6.543  16.327  0.00  0.00    +0.000 NA
ATOM      3  N   UNL     1       6.503   5.881  15.993  0.00  0.00    +0.000 NA
ATOM      4  C   UNL     1       5.658   6.089  16.981  0.00  0.00    +0.000 A 
ATOM      5  O   UNL     1       6.187   6.863  17.981  0.00  0.00    +0.000 OA
ENDROOT
BRANCH   1   6
ATOM      6  C   UNL     1       8.355   7.944  18.308  0.00  0.00    +0.000 C 
BRANCH   6   7
ATOM      7  C   UNL     1       8.213   9.421  17.959  0.00  0.00    +0.000 C 
BRANCH   7   9
ATOM      8  N   UNL     1       9.927  11.124  18.025  0.00  0.00    +0.000 N 
ATOM      9  C   UNL     1       9.165  10.256  18.783  0.00  0.00    +0.000 C 
ATOM     10  O   UNL     1       9.241  10.175  20.003  0.00  0.00    +0.000 OA
ATOM     11  H   UNL     1       9.821  11.112  17.020  0.00  0.00    +0.000 HD
BRANCH   8  16
ATOM     12  C   UNL     1       9.171  15.468  19.339  0.00  0.00    +0.000 C 
ATOM     13  C   UNL     1       9.566  14.257  18.480  0.00  0.00    +0.000 C 
ATOM     14  C   UNL     1       8.299  13.769  17.758  0.00  0.00    +0.000 C 
ATOM     15  C   UNL     1      10.192  13.194  19.398  0.00  0.00    +0.000 C 
ATOM     16  C   UNL     1      10.873  12.055  18.633  0.00  0.00    +0.000 C 
ATOM     17  C   UNL     1      11.834  12.649  17.599  0.00  0.00    +0.000 C 
ATOM     18  C   UNL     1      11.160  13.716  16.748  0.00  0.00    +0.000 C 
ATOM     19  O   UNL     1      10.543  14.726  17.543  0.00  0.00    +0.000 OA
ENDBRANCH   8  16
ENDBRANCH   7   9
ENDBRANCH   6   7
ENDBRANCH   1   6
BRANCH   4  20
ATOM     20  C   UNL     1       4.271   5.592  17.137  0.00  0.00    +0.000 C 
BRANCH  20  21
ATOM     21  C   UNL     1       4.002   4.924  18.486  0.00  0.00    +0.000 C 
BRANCH  21  22
ATOM     22  C   UNL     1       5.141   4.002  18.935  0.00  0.00    +0.000 C 
BRANCH  22  23
ATOM     23  C   UNL     1       4.605   2.656  19.429  0.00  0.00    +0.000 C 
BRANCH  23  24
ATOM     24  C   UNL     1       3.113   2.706  19.647  0.00  0.00    +0.000 A 
ATOM     25  C   UNL     1       2.232   2.355  18.616  0.00  0.00    +0.000 A 
ATOM     26  C   UNL     1       0.853   2.440  18.806  0.00  0.00    +0.000 A 
ATOM     27  C   UNL     1       0.341   2.877  20.026  0.00  0.00    +0.000 A 
ATOM     28  C   UNL     1       1.209   3.226  21.060  0.00  0.00    +0.000 A 
ATOM     29  C   UNL     1       2.589   3.143  20.871  0.00  0.00    +0.000 A 
ENDBRANCH  23  24
ENDBRANCH  22  23
ENDBRANCH  21  22
ENDBRANCH  20  21
ENDBRANCH   4  20
TORSDOF 9
ENDMDL
MODEL 8
REMARK VINA RESULT:      -7.6      1.028      1.076
REMARK  Name = 
REMARK  11 active torsions:
REMARK  status: ('A' for Active; 'I' for Inactive)
REMARK    1  A    between atoms: C_1  and  C_2
REMARK    2  A    between atoms: C_2  and  C_3
REMARK    3  A    between atoms: C_5  and  N_6
REMARK    4  A    between atoms: C_7  and  C_9
REMARK    5  A    between atoms: C_9  and  C_10
REMARK    6  A    between atoms: C_10  and  C_11
REMARK    7  A    between atoms: C_14  and  C_15
REMARK    8  A    between atoms: C_15  and  C_16
REMARK    9  A    between atoms: C_16  and  C_17
REMARK   10  A    between atoms: C_17  and  C_18
REMARK   11  A    between atoms: C_18  and  C_19
REMARK                            x       y       z     vdW  Elec       q    Type
REMARK                         _______ _______ _______ _____ _____    ______ ____
ROOT
ATOM      1  C   UNL     1       7.101   7.240  17.503  0.00  0.00    +0.000 A 
ATOM      2  N   UNL     1       7.863   6.802  18.482  0.00  0.00    +0.000 NA
ATOM      3  N   UNL     1       8.641   7.868  18.875  0.00  0.00    +0.000 NA
ATOM      4  C   UNL     1       8.299   8.882  18.110  0.00  0.00    +0.000 A 
ATOM      5  O   UNL     1       7.320   8.561  17.206  0.00  0.00    +0.000 OA
ENDROOT
BRANCH   1   6
ATOM      6  C   UNL     1       6.073   6.514  16.727  0.00  0.00    +0.000 C 
BRANCH   6   7
ATOM      7  C   UNL     1       6.548   5.117  16.340  0.00  0.00    +0.000 C 
BRANCH   7   9
ATOM      8  N   UNL     1       4.958   3.742  17.532  0.00  0.00    +0.000 N 
ATOM      9  C   UNL     1       5.383   4.157  16.284  0.00  0.00    +0.000 C 
ATOM     10  O   UNL     1       4.865   3.793  15.235  0.00  0.00    +0.000 OA
ATOM     11  H   UNL     1       5.455   4.070  18.349  0.00  0.00    +0.000 HD
BRANCH   8  16
ATOM     12  C   UNL     1       1.130   4.492  19.974  0.00  0.00    +0.000 C 
ATOM     13  C   UNL     1       2.547   4.033  19.595  0.00  0.00    +0.000 C 
ATOM     14  C   UNL     1       3.502   5.205  19.869  0.00  0.00    +0.000 C 
ATOM     15  C   UNL     1       2.535   3.586  18.124  0.00  0.00    +0.000 C 
ATOM     16  C   UNL     1       3.812   2.853  17.702  0.00  0.00    +0.000 C 
ATOM     17  C   UNL     1       4.103   1.732  18.705  0.00  0.00    +0.000 C 
ATOM     18  C   UNL     1       4.066   2.236  20.141  0.00  0.00    +0.000 C 
ATOM     19  O   UNL     1       2.849   2.915  20.440  0.00  0.00    +0.000 OA
ENDBRANCH   8  16
ENDBRANCH   7   9
ENDBRANCH   6   7
ENDBRANCH   1   6
BRANCH   4  20
ATOM     20  C   UNL     1       8.836  10.263  18.103  0.00  0.00    +0.000 C 
BRANCH  20  21
ATOM     21  C   UNL     1       9.308  10.748  19.474  0.00  0.00    +0.000 C 
BRANCH  21  22
ATOM     22  C   UNL     1      10.790  11.137  19.494  0.00  0.00    +0.000 C 
BRANCH  22  23
ATOM     23  C   UNL     1      11.258  11.617  18.119  0.00  0.00    +0.000 C 
BRANCH  23  24
ATOM     24  C   UNL     1      11.475  13.110  18.103  0.00  0.00    +0.000 A 
ATOM     25  C   UNL     1      12.028  13.760  19.214  0.00  0.00    +0.000 A 
ATOM     26  C   UNL     1      12.190  15.146  19.213  0.00  0.00    +0.000 A 
ATOM     27  C   UNL     1      11.801  15.895  18.103  0.00  0.00    +0.000 A 
ATOM     28  C   UNL     1      11.254  15.257  16.992  0.00  0.00    +0.000 A 
ATOM     29  C   UNL     1      11.089  13.872  16.991  0.00  0.00    +0.000 A 
ENDBRANCH  23  24
ENDBRANCH  22  23
ENDBRANCH  21  22
ENDBRANCH  20  21
ENDBRANCH   4  20
TORSDOF 9
ENDMDL
MODEL 9
REMARK VINA RESULT:      -7.5      5.629      8.556
REMARK  Name = 
REMARK  11 active torsions:
REMARK  status: ('A' for Active; 'I' for Inactive)
REMARK    1  A    between atoms: C_1  and  C_2
REMARK    2  A    between atoms: C_2  and  C_3
REMARK    3  A    between atoms: C_5  and  N_6
REMARK    4  A    between atoms: C_7  and  C_9
REMARK    5  A    between atoms: C_9  and  C_10
REMARK    6  A    between atoms: C_10  and  C_11
REMARK    7  A    between atoms: C_14  and  C_15
REMARK    8  A    between atoms: C_15  and  C_16
REMARK    9  A    between atoms: C_16  and  C_17
REMARK   10  A    between atoms: C_17  and  C_18
REMARK   11  A    between atoms: C_18  and  C_19
REMARK                            x       y       z     vdW  Elec       q    Type
REMARK                         _______ _______ _______ _____ _____    ______ ____
ROOT
ATOM      1  C   UNL     1       2.410   3.396  20.741  0.00  0.00    +0.000 A 
ATOM      2  N   UNL     1       1.176   3.294  20.296  0.00  0.00    +0.000 NA
ATOM      3  N   UNL     1       0.660   4.570  20.285  0.00  0.00    +0.000 NA
ATOM      4  C   UNL     1       1.615   5.363  20.723  0.00  0.00    +0.000 A 
ATOM      5  O   UNL     1       2.766   4.688  21.036  0.00  0.00    +0.000 OA
ENDROOT
BRANCH   1   6
ATOM      6  C   UNL     1       3.419   2.334  20.941  0.00  0.00    +0.000 C 
BRANCH   6   7
ATOM      7  C   UNL     1       4.580   2.475  19.963  0.00  0.00    +0.000 C 
BRANCH   7   9
ATOM      8  N   UNL     1       4.466   4.249  18.325  0.00  0.00    +0.000 N 
ATOM      9  C   UNL     1       4.086   2.953  18.618  0.00  0.00    +0.000 C 
ATOM     10  O   UNL     1       3.424   2.253  17.861  0.00  0.00    +0.000 OA
ATOM     11  H   UNL     1       4.993   4.768  19.014  0.00  0.00    +0.000 HD
BRANCH   8  16
ATOM     12  C   UNL     1       7.176   4.798  14.647  0.00  0.00    +0.000 C 
ATOM     13  C   UNL     1       6.455   5.073  15.975  0.00  0.00    +0.000 C 
ATOM     14  C   UNL     1       7.324   4.492  17.103  0.00  0.00    +0.000 C 
ATOM     15  C   UNL     1       5.052   4.448  15.904  0.00  0.00    +0.000 C 
ATOM     16  C   UNL     1       4.135   4.882  17.052  0.00  0.00    +0.000 C 
ATOM     17  C   UNL     1       4.147   6.410  17.155  0.00  0.00    +0.000 C 
ATOM     18  C   UNL     1       5.565   6.963  17.187  0.00  0.00    +0.000 C 
ATOM     19  O   UNL     1       6.348   6.497  16.091  0.00  0.00    +0.000 OA
ENDBRANCH   8  16
ENDBRANCH   7   9
ENDBRANCH   6   7
ENDBRANCH   1   6
BRANCH   4  20
ATOM     20  C   UNL     1       1.586   6.831  20.921  0.00  0.00    +0.000 C 
BRANCH  20  21
ATOM     21  C   UNL     1       1.980   7.629  19.678  0.00  0.00    +0.000 C 
BRANCH  21  22
ATOM     22  C   UNL     1       1.401   9.048  19.669  0.00  0.00    +0.000 C 
BRANCH  22  23
ATOM     23  C   UNL     1       1.042   9.493  18.249  0.00  0.00    +0.000 C 
BRANCH  23  24
ATOM     24  C   UNL     1      -0.285  10.209  18.217  0.00  0.00    +0.000 A 
ATOM     25  C   UNL     1      -0.500  11.343  19.010  0.00  0.00    +0.000 A 
ATOM     26  C   UNL     1      -1.742  11.980  19.010  0.00  0.00    +0.000 A 
ATOM     27  C   UNL     1      -2.779  11.489  18.219  0.00  0.00    +0.000 A 
ATOM     28  C   UNL     1      -2.575  10.363  17.424  0.00  0.00    +0.000 A 
ATOM     29  C   UNL     1      -1.334   9.723  17.424  0.00  0.00    +0.000 A 
ENDBRANCH  23  24
ENDBRANCH  22  23
ENDBRANCH  21  22
ENDBRANCH  20  21
ENDBRANCH   4  20
TORSDOF 9
ENDMDL
