MODEL 1
REMARK VINA RESULT:      -7.6      0.000      0.000
REMARK  Name = 
REMARK  8 active torsions:
REMARK  status: ('A' for Active; 'I' for Inactive)
REMARK    1  A    between atoms: C_1  and  O_2
REMARK    2  A    between atoms: O_2  and  C_3
REMARK    3  A    between atoms: C_6  and  C_7
REMARK    4  A    between atoms: C_8  and  C_9
REMARK    5  A    between atoms: C_9  and  N_10
REMARK    6  A    between atoms: N_10  and  C_11
REMARK    7  A    between atoms: N_10  and  C_12
REMARK    8  A    between atoms: C_12  and  C_13
REMARK                            x       y       z     vdW  Elec       q    Type
REMARK                         _______ _______ _______ _____ _____    ______ ____
ROOT
ATOM      1  N   UNL     1       5.390   4.924  15.645  0.00  0.00    +0.000 NA
ATOM      2  C   UNL     1       6.002   4.733  14.323  0.00  0.00    +0.000 C 
ENDROOT
BRANCH   1   3
ATOM      3  C   UNL     1       6.171   5.865  16.473  0.00  0.00    +0.000 C 
BRANCH   3   5
ATOM      4  C   UNL     1       4.059   7.129  17.018  0.00  0.00    +0.000 C 
ATOM      5  C   UNL     1       5.259   6.646  17.380  0.00  0.00    +0.000 C 
BRANCH   4   9
ATOM      6  C   UNL     1       1.143   8.729  19.731  0.00  0.00    +0.000 A 
ATOM      7  C   UNL     1       1.433   9.378  18.527  0.00  0.00    +0.000 A 
ATOM      8  C   UNL     1       2.402   8.869  17.651  0.00  0.00    +0.000 A 
ATOM      9  C   UNL     1       3.108   7.706  17.977  0.00  0.00    +0.000 A 
ATOM     10  C   UNL     1       2.802   7.050  19.175  0.00  0.00    +0.000 A 
ATOM     11  C   UNL     1       1.839   7.562  20.041  0.00  0.00    +0.000 A 
ATOM     12  F   UNL     1       1.599   6.873  21.167  0.00  0.00    +0.000 F 
BRANCH   6  14
ATOM     13  C   UNL     1       0.134  10.753  20.459  0.00  0.00    +0.000 C 
ATOM     14  O   UNL     1       0.170   9.334  20.483  0.00  0.00    +0.000 OA
ENDBRANCH   6  14
ENDBRANCH   4   9
ENDBRANCH   3   5
ENDBRANCH   1   3
BRANCH   1  15
ATOM     15  C   UNL     1       5.265   3.605  16.297  0.00  0.00    +0.000 C 
BRANCH  15  16
ATOM     16  C   UNL     1       4.116   3.513  17.280  0.00  0.00    +0.000 A 
ATOM     17  C   UNL     1       2.806   3.811  16.878  0.00  0.00    +0.000 A 
ATOM     18  C   UNL     1       1.762   3.800  17.808  0.00  0.00    +0.000 A 
ATOM     19  C   UNL     1       2.010   3.469  19.145  0.00  0.00    +0.000 A 
ATOM     20  C   UNL     1       3.300   3.080  19.522  0.00  0.00    +0.000 A 
ATOM     21  C   UNL     1       4.349   3.122  18.602  0.00  0.00    +0.000 A 
ATOM     22  O   UNL     1       3.627   2.676  20.790  0.00  0.00    +0.000 OA
ATOM     23  C   UNL     1       2.496   2.298  21.581  0.00  0.00    +0.000 C 
ATOM     24  C   UNL     1       1.436   3.385  21.571  0.00  0.00    +0.000 C 
ATOM     25  C   UNL     1       0.898   3.533  20.153  0.00  0.00    +0.000 C 
ENDBRANCH  15  16
ENDBRANCH   1  15
TORSDOF 6
ENDMDL
MODEL 2
REMARK VINA RESULT:      -7.2      2.160      4.228
REMARK  Name = 
REMARK  8 active torsions:
REMARK  status: ('A' for Active; 'I' for Inactive)
REMARK    1  A    between atoms: C_1  and  O_2
REMARK    2  A    between atoms: O_2  and  C_3
REMARK    3  A    between atoms: C_6  and  C_7
REMARK    4  A    between atoms: C_8  and  C_9
REMARK    5  A    between atoms: C_9  and  N_10
REMARK    6  A    between atoms: N_10  and  C_11
REMARK    7  A    between atoms: N_10  and  C_12
REMARK    8  A    between atoms: C_12  and  C_13
REMARK                            x       y       z     vdW  Elec       q    Type
REMARK                         _______ _______ _______ _____ _____    ______ ____
ROOT
ATOM      1  N   UNL     1       1.702   2.062  19.644  0.00  0.00    +0.000 NA
ATOM      2  C   UNL     1       0.637   2.608  18.792  0.00  0.00    +0.000 C 
ENDROOT
BRANCH   1   3
ATOM      3  C   UNL     1       2.061   2.995  20.731  0.00  0.00    +0.000 C 
BRANCH   3   5
ATOM      4  C   UNL     1       2.286   5.505  20.671  0.00  0.00    +0.000 C 
ATOM      5  C   UNL     1       1.591   4.387  20.404  0.00  0.00    +0.000 C 
BRANCH   4   9
ATOM      6  C   UNL     1       1.313   9.436  19.248  0.00  0.00    +0.000 A 
ATOM      7  C   UNL     1       0.964   9.036  20.541  0.00  0.00    +0.000 A 
ATOM      8  C   UNL     1       1.260   7.745  20.999  0.00  0.00    +0.000 A 
ATOM      9  C   UNL     1       1.900   6.827  20.159  0.00  0.00    +0.000 A 
ATOM     10  C   UNL     1       2.263   7.236  18.871  0.00  0.00    +0.000 A 
ATOM     11  C   UNL     1       1.965   8.521  18.422  0.00  0.00    +0.000 A 
ATOM     12  F   UNL     1       2.351   8.839  17.178  0.00  0.00    +0.000 F 
BRANCH   6  14
ATOM     13  C   UNL     1       0.200  11.430  19.901  0.00  0.00    +0.000 C 
ATOM     14  O   UNL     1       0.970  10.726  18.938  0.00  0.00    +0.000 OA
ENDBRANCH   6  14
ENDBRANCH   4   9
ENDBRANCH   3   5
ENDBRANCH   1   3
BRANCH   1  15
ATOM     15  C   UNL     1       2.868   1.749  18.794  0.00  0.00    +0.000 C 
BRANCH  15  16
ATOM     16  C   UNL     1       3.667   2.967  18.376  0.00  0.00    +0.000 A 
ATOM     17  C   UNL     1       3.247   3.763  17.300  0.00  0.00    +0.000 A 
ATOM     18  C   UNL     1       4.029   4.839  16.872  0.00  0.00    +0.000 A 
ATOM     19  C   UNL     1       5.227   5.148  17.526  0.00  0.00    +0.000 A 
ATOM     20  C   UNL     1       5.594   4.411  18.658  0.00  0.00    +0.000 A 
ATOM     21  C   UNL     1       4.832   3.316  19.067  0.00  0.00    +0.000 A 
ATOM     22  O   UNL     1       6.713   4.678  19.403  0.00  0.00    +0.000 OA
ATOM     23  C   UNL     1       7.247   5.988  19.187  0.00  0.00    +0.000 C 
ATOM     24  C   UNL     1       7.456   6.254  17.707  0.00  0.00    +0.000 C 
ATOM     25  C   UNL     1       6.100   6.259  17.013  0.00  0.00    +0.000 C 
ENDBRANCH  15  16
ENDBRANCH   1  15
TORSDOF 6
ENDMDL
MODEL 3
REMARK VINA RESULT:      -7.1      2.701      6.717
REMARK  Name = 
REMARK  8 active torsions:
REMARK  status: ('A' for Active; 'I' for Inactive)
REMARK    1  A    between atoms: C_1  and  O_2
REMARK    2  A    between atoms: O_2  and  C_3
REMARK    3  A    between atoms: C_6  and  C_7
REMARK    4  A    between atoms: C_8  and  C_9
REMARK    5  A    between atoms: C_9  and  N_10
REMARK    6  A    between atoms: N_10  and  C_11
REMARK    7  A    between atoms: N_10  and  C_12
REMARK    8  A    between atoms: C_12  and  C_13
REMARK                            x       y       z     vdW  Elec       q    Type
REMARK                         _______ _______ _______ _____ _____    ______ ____
ROOT
ATOM      1  N   UNL     1       2.130   3.999  20.094  0.00  0.00    +0.000 NA
ATOM      2  C   UNL     1       2.057   3.524  21.482  0.00  0.00    +0.000 C 
ENDROOT
BRANCH   1   3
ATOM      3  C   UNL     1       2.456   2.902  19.161  0.00  0.00    +0.000 C 
BRANCH   3   5
ATOM      4  C   UNL     1       3.714   3.552  17.075  0.00  0.00    +0.000 C 
ATOM      5  C   UNL     1       3.699   3.229  18.379  0.00  0.00    +0.000 C 
BRANCH   4   9
ATOM      6  C   UNL     1       7.105   5.183  15.012  0.00  0.00    +0.000 A 
ATOM      7  C   UNL     1       6.230   4.303  14.367  0.00  0.00    +0.000 A 
ATOM      8  C   UNL     1       5.136   3.751  15.047  0.00  0.00    +0.000 A 
ATOM      9  C   UNL     1       4.909   4.063  16.392  0.00  0.00    +0.000 A 
ATOM     10  C   UNL     1       5.777   4.957  17.028  0.00  0.00    +0.000 A 
ATOM     11  C   UNL     1       6.863   5.502  16.347  0.00  0.00    +0.000 A 
ATOM     12  F   UNL     1       7.646   6.355  17.024  0.00  0.00    +0.000 F 
BRANCH   6  14
ATOM     13  C   UNL     1       8.095   5.280  12.854  0.00  0.00    +0.000 C 
ATOM     14  O   UNL     1       8.124   5.651  14.224  0.00  0.00    +0.000 OA
ENDBRANCH   6  14
ENDBRANCH   4   9
ENDBRANCH   3   5
ENDBRANCH   1   3
BRANCH   1  15
ATOM     15  C   UNL     1       3.130   5.084  20.022  0.00  0.00    +0.000 C 
BRANCH  15  16
ATOM     16  C   UNL     1       2.556   6.421  19.602  0.00  0.00    +0.000 A 
ATOM     17  C   UNL     1       2.715   6.887  18.288  0.00  0.00    +0.000 A 
ATOM     18  C   UNL     1       2.250   8.154  17.928  0.00  0.00    +0.000 A 
ATOM     19  C   UNL     1       1.602   8.964  18.868  0.00  0.00    +0.000 A 
ATOM     20  C   UNL     1       1.361   8.458  20.150  0.00  0.00    +0.000 A 
ATOM     21  C   UNL     1       1.853   7.206  20.521  0.00  0.00    +0.000 A 
ATOM     22  O   UNL     1       0.678   9.148  21.118  0.00  0.00    +0.000 OA
ATOM     23  C   UNL     1      -0.108  10.228  20.606  0.00  0.00    +0.000 C 
ATOM     24  C   UNL     1       0.727  11.138  19.722  0.00  0.00    +0.000 C 
ATOM     25  C   UNL     1       1.173  10.354  18.494  0.00  0.00    +0.000 C 
ENDBRANCH  15  16
ENDBRANCH   1  15
TORSDOF 6
ENDMDL
MODEL 4
REMARK VINA RESULT:      -7.1      4.950      5.741
REMARK  Name = 
REMARK  8 active torsions:
REMARK  status: ('A' for Active; 'I' for Inactive)
REMARK    1  A    between atoms: C_1  and  O_2
REMARK    2  A    between atoms: O_2  and  C_3
REMARK    3  A    between atoms: C_6  and  C_7
REMARK    4  A    between atoms: C_8  and  C_9
REMARK    5  A    between atoms: C_9  and  N_10
REMARK    6  A    between atoms: N_10  and  C_11
REMARK    7  A    between atoms: N_10  and  C_12
REMARK    8  A    between atoms: C_12  and  C_13
REMARK                            x       y       z     vdW  Elec       q    Type
REMARK                         _______ _______ _______ _____ _____    ______ ____
ROOT
ATOM      1  N   UNL     1       6.792   6.257  16.086  0.00  0.00    +0.000 NA
ATOM      2  C   UNL     1       7.017   4.878  15.631  0.00  0.00    +0.000 C 
ENDROOT
BRANCH   1   3
ATOM      3  C   UNL     1       7.317   6.472  17.449  0.00  0.00    +0.000 C 
BRANCH   3   5
ATOM      4  C   UNL     1       8.455   8.396  18.614  0.00  0.00    +0.000 C 
ATOM      5  C   UNL     1       7.620   7.929  17.671  0.00  0.00    +0.000 C 
BRANCH   4   9
ATOM      6  C   UNL     1       9.560  12.535  18.874  0.00  0.00    +0.000 A 
ATOM      7  C   UNL     1       8.814  12.060  17.791  0.00  0.00    +0.000 A 
ATOM      8  C   UNL     1       8.472  10.704  17.694  0.00  0.00    +0.000 A 
ATOM      9  C   UNL     1       8.888   9.798  18.675  0.00  0.00    +0.000 A 
ATOM     10  C   UNL     1       9.621  10.281  19.766  0.00  0.00    +0.000 A 
ATOM     11  C   UNL     1       9.957  11.629  19.857  0.00  0.00    +0.000 A 
ATOM     12  F   UNL     1      10.656  12.015  20.934  0.00  0.00    +0.000 F 
BRANCH   6  14
ATOM     13  C   UNL     1      10.677  14.346  17.816  0.00  0.00    +0.000 C 
ATOM     14  O   UNL     1       9.814  13.881  18.843  0.00  0.00    +0.000 OA
ENDBRANCH   6  14
ENDBRANCH   4   9
ENDBRANCH   3   5
ENDBRANCH   1   3
BRANCH   1  15
ATOM     15  C   UNL     1       5.345   6.543  16.013  0.00  0.00    +0.000 C 
BRANCH  15  16
ATOM     16  C   UNL     1       4.497   5.642  16.888  0.00  0.00    +0.000 A 
ATOM     17  C   UNL     1       4.337   4.285  16.574  0.00  0.00    +0.000 A 
ATOM     18  C   UNL     1       3.491   3.478  17.340  0.00  0.00    +0.000 A 
ATOM     19  C   UNL     1       2.813   4.011  18.442  0.00  0.00    +0.000 A 
ATOM     20  C   UNL     1       3.049   5.340  18.809  0.00  0.00    +0.000 A 
ATOM     21  C   UNL     1       3.867   6.156  18.026  0.00  0.00    +0.000 A 
ATOM     22  O   UNL     1       2.484   5.932  19.908  0.00  0.00    +0.000 OA
ATOM     23  C   UNL     1       1.970   4.998  20.862  0.00  0.00    +0.000 C 
ATOM     24  C   UNL     1       1.042   3.996  20.198  0.00  0.00    +0.000 C 
ATOM     25  C   UNL     1       1.848   3.157  19.215  0.00  0.00    +0.000 C 
ENDBRANCH  15  16
ENDBRANCH   1  15
TORSDOF 6
ENDMDL
MODEL 5
REMARK VINA RESULT:      -7.0      5.221      5.934
REMARK  Name = 
REMARK  8 active torsions:
REMARK  status: ('A' for Active; 'I' for Inactive)
REMARK    1  A    between atoms: C_1  and  O_2
REMARK    2  A    between atoms: O_2  and  C_3
REMARK    3  A    between atoms: C_6  and  C_7
REMARK    4  A    between atoms: C_8  and  C_9
REMARK    5  A    between atoms: C_9  and  N_10
REMARK    6  A    between atoms: N_10  and  C_11
REMARK    7  A    between atoms: N_10  and  C_12
REMARK    8  A    between atoms: C_12  and  C_13
REMARK                            x       y       z     vdW  Elec       q    Type
REMARK                         _______ _______ _______ _____ _____    ______ ____
ROOT
ATOM      1  N   UNL     1       6.289   6.552  17.581  0.00  0.00    +0.000 NA
ATOM      2  C   UNL     1       5.200   6.967  16.686  0.00  0.00    +0.000 C 
ENDROOT
BRANCH   1   3
ATOM      3  C   UNL     1       7.585   7.120  17.158  0.00  0.00    +0.000 C 
BRANCH   3   5
ATOM      4  C   UNL     1       8.752   8.852  18.572  0.00  0.00    +0.000 C 
ATOM      5  C   UNL     1       7.765   8.500  17.731  0.00  0.00    +0.000 C 
BRANCH   4   9
ATOM      6  C   UNL     1       9.720  12.889  19.659  0.00  0.00    +0.000 A 
ATOM      7  C   UNL     1       9.689  11.876  20.622  0.00  0.00    +0.000 A 
ATOM      8  C   UNL     1       9.350  10.562  20.273  0.00  0.00    +0.000 A 
ATOM      9  C   UNL     1       9.022  10.244  18.950  0.00  0.00    +0.000 A 
ATOM     10  C   UNL     1       9.070  11.258  17.986  0.00  0.00    +0.000 A 
ATOM     11  C   UNL     1       9.408  12.562  18.340  0.00  0.00    +0.000 A 
ATOM     12  F   UNL     1       9.438  13.475  17.358  0.00  0.00    +0.000 F 
BRANCH   6  14
ATOM     13  C   UNL     1      11.399  14.557  19.869  0.00  0.00    +0.000 C 
ATOM     14  O   UNL     1      10.075  14.122  20.141  0.00  0.00    +0.000 OA
ENDBRANCH   6  14
ENDBRANCH   4   9
ENDBRANCH   3   5
ENDBRANCH   1   3
BRANCH   1  15
ATOM     15  C   UNL     1       6.331   5.076  17.614  0.00  0.00    +0.000 C 
BRANCH  15  16
ATOM     16  C   UNL     1       5.009   4.433  17.977  0.00  0.00    +0.000 A 
ATOM     17  C   UNL     1       4.292   3.686  17.030  0.00  0.00    +0.000 A 
ATOM     18  C   UNL     1       3.037   3.161  17.349  0.00  0.00    +0.000 A 
ATOM     19  C   UNL     1       2.492   3.355  18.623  0.00  0.00    +0.000 A 
ATOM     20  C   UNL     1       3.251   4.017  19.594  0.00  0.00    +0.000 A 
ATOM     21  C   UNL     1       4.490   4.571  19.268  0.00  0.00    +0.000 A 
ATOM     22  O   UNL     1       2.832   4.198  20.887  0.00  0.00    +0.000 OA
ATOM     23  C   UNL     1       1.766   3.325  21.272  0.00  0.00    +0.000 C 
ATOM     24  C   UNL     1       0.623   3.387  20.274  0.00  0.00    +0.000 C 
ATOM     25  C   UNL     1       1.111   2.852  18.934  0.00  0.00    +0.000 C 
ENDBRANCH  15  16
ENDBRANCH   1  15
TORSDOF 6
ENDMDL
MODEL 6
REMARK VINA RESULT:      -7.0      1.076      1.399
REMARK  Name = 
REMARK  8 active torsions:
REMARK  status: ('A' for Active; 'I' for Inactive)
REMARK    1  A    between atoms: C_1  and  O_2
REMARK    2  A    between atoms: O_2  and  C_3
REMARK    3  A    between atoms: C_6  and  C_7
REMARK    4  A    between atoms: C_8  and  C_9
REMARK    5  A    between atoms: C_9  and  N_10
REMARK    6  A    between atoms: N_10  and  C_11
REMARK    7  A    between atoms: N_10  and  C_12
REMARK    8  A    between atoms: C_12  and  C_13
REMARK                            x       y       z     vdW  Elec       q    Type
REMARK                         _______ _______ _______ _____ _____    ______ ____
ROOT
ATOM      1  N   UNL     1       6.641   5.915  16.894  0.00  0.00    +0.000 NA
ATOM      2  C   UNL     1       6.879   6.652  18.142  0.00  0.00    +0.000 C 
ENDROOT
BRANCH   1   3
ATOM      3  C   UNL     1       5.468   6.442  16.168  0.00  0.00    +0.000 C 
BRANCH   3   5
ATOM      4  C   UNL     1       3.294   7.259  17.150  0.00  0.00    +0.000 C 
ATOM      5  C   UNL     1       4.635   7.307  17.074  0.00  0.00    +0.000 C 
BRANCH   4   9
ATOM      6  C   UNL     1       0.896   9.240  20.106  0.00  0.00    +0.000 A 
ATOM      7  C   UNL     1       1.069   9.796  18.835  0.00  0.00    +0.000 A 
ATOM      8  C   UNL     1       1.871   9.162  17.876  0.00  0.00    +0.000 A 
ATOM      9  C   UNL     1       2.526   7.964  18.183  0.00  0.00    +0.000 A 
ATOM     10  C   UNL     1       2.337   7.403  19.451  0.00  0.00    +0.000 A 
ATOM     11  C   UNL     1       1.539   8.039  20.399  0.00  0.00    +0.000 A 
ATOM     12  F   UNL     1       1.403   7.435  21.590  0.00  0.00    +0.000 F 
BRANCH   6  14
ATOM     13  C   UNL     1      -0.120  11.329  20.605  0.00  0.00    +0.000 C 
ATOM     14  O   UNL     1       0.081   9.963  20.937  0.00  0.00    +0.000 OA
ENDBRANCH   6  14
ENDBRANCH   4   9
ENDBRANCH   3   5
ENDBRANCH   1   3
BRANCH   1  15
ATOM     15  C   UNL     1       6.477   4.484  17.219  0.00  0.00    +0.000 C 
BRANCH  15  16
ATOM     16  C   UNL     1       5.089   4.121  17.708  0.00  0.00    +0.000 A 
ATOM     17  C   UNL     1       4.139   3.582  16.828  0.00  0.00    +0.000 A 
ATOM     18  C   UNL     1       2.838   3.323  17.267  0.00  0.00    +0.000 A 
ATOM     19  C   UNL     1       2.476   3.577  18.595  0.00  0.00    +0.000 A 
ATOM     20  C   UNL     1       3.451   4.024  19.493  0.00  0.00    +0.000 A 
ATOM     21  C   UNL     1       4.742   4.315  19.049  0.00  0.00    +0.000 A 
ATOM     22  O   UNL     1       3.211   4.238  20.825  0.00  0.00    +0.000 OA
ATOM     23  C   UNL     1       2.025   3.596  21.304  0.00  0.00    +0.000 C 
ATOM     24  C   UNL     1       0.829   3.939  20.433  0.00  0.00    +0.000 C 
ATOM     25  C   UNL     1       1.056   3.366  19.040  0.00  0.00    +0.000 C 
ENDBRANCH  15  16
ENDBRANCH   1  15
TORSDOF 6
ENDMDL
MODEL 7
REMARK VINA RESULT:      -6.9      1.493      2.052
REMARK  Name = 
REMARK  8 active torsions:
REMARK  status: ('A' for Active; 'I' for Inactive)
REMARK    1  A    between atoms: C_1  and  O_2
REMARK    2  A    between atoms: O_2  and  C_3
REMARK    3  A    between atoms: C_6  and  C_7
REMARK    4  A    between atoms: C_8  and  C_9
REMARK    5  A    between atoms: C_9  and  N_10
REMARK    6  A    between atoms: N_10  and  C_11
REMARK    7  A    between atoms: N_10  and  C_12
REMARK    8  A    between atoms: C_12  and  C_13
REMARK                            x       y       z     vdW  Elec       q    Type
REMARK                         _______ _______ _______ _____ _____    ______ ____
ROOT
ATOM      1  N   UNL     1       6.672   5.971  16.895  0.00  0.00    +0.000 NA
ATOM      2  C   UNL     1       6.984   6.926  17.967  0.00  0.00    +0.000 C 
ENDROOT
BRANCH   1   3
ATOM      3  C   UNL     1       5.404   6.309  16.218  0.00  0.00    +0.000 C 
BRANCH   3   5
ATOM      4  C   UNL     1       3.197   7.060  17.178  0.00  0.00    +0.000 C 
ATOM      5  C   UNL     1       4.536   7.147  17.118  0.00  0.00    +0.000 C 
BRANCH   4   9
ATOM      6  C   UNL     1       1.014   9.123  20.243  0.00  0.00    +0.000 A 
ATOM      7  C   UNL     1       1.600   7.879  20.496  0.00  0.00    +0.000 A 
ATOM      8  C   UNL     1       2.293   7.194  19.489  0.00  0.00    +0.000 A 
ATOM      9  C   UNL     1       2.397   7.739  18.205  0.00  0.00    +0.000 A 
ATOM     10  C   UNL     1       1.823   8.992  17.961  0.00  0.00    +0.000 A 
ATOM     11  C   UNL     1       1.135   9.668  18.966  0.00  0.00    +0.000 A 
ATOM     12  F   UNL     1       0.618  10.866  18.655  0.00  0.00    +0.000 F 
BRANCH   6  14
ATOM     13  C   UNL     1       0.974   9.479  22.592  0.00  0.00    +0.000 C 
ATOM     14  O   UNL     1       0.376   9.681  21.320  0.00  0.00    +0.000 OA
ENDBRANCH   6  14
ENDBRANCH   4   9
ENDBRANCH   3   5
ENDBRANCH   1   3
BRANCH   1  15
ATOM     15  C   UNL     1       6.629   4.614  17.477  0.00  0.00    +0.000 C 
BRANCH  15  16
ATOM     16  C   UNL     1       5.236   4.153  17.854  0.00  0.00    +0.000 A 
ATOM     17  C   UNL     1       4.397   3.557  16.902  0.00  0.00    +0.000 A 
ATOM     18  C   UNL     1       3.087   3.205  17.238  0.00  0.00    +0.000 A 
ATOM     19  C   UNL     1       2.606   3.423  18.534  0.00  0.00    +0.000 A 
ATOM     20  C   UNL     1       3.475   3.929  19.506  0.00  0.00    +0.000 A 
ATOM     21  C   UNL     1       4.773   4.311  19.165  0.00  0.00    +0.000 A 
ATOM     22  O   UNL     1       3.117   4.115  20.816  0.00  0.00    +0.000 OA
ATOM     23  C   UNL     1       1.945   3.389  21.199  0.00  0.00    +0.000 C 
ATOM     24  C   UNL     1       0.800   3.656  20.239  0.00  0.00    +0.000 C 
ATOM     25  C   UNL     1       1.173   3.112  18.866  0.00  0.00    +0.000 C 
ENDBRANCH  15  16
ENDBRANCH   1  15
TORSDOF 6
ENDMDL
MODEL 8
REMARK VINA RESULT:      -6.9      1.068      1.433
REMARK  Name = 
REMARK  8 active torsions:
REMARK  status: ('A' for Active; 'I' for Inactive)
REMARK    1  A    between atoms: C_1  and  O_2
REMARK    2  A    between atoms: O_2  and  C_3
REMARK    3  A    between atoms: C_6  and  C_7
REMARK    4  A    between atoms: C_8  and  C_9
REMARK    5  A    between atoms: C_9  and  N_10
REMARK    6  A    between atoms: N_10  and  C_11
REMARK    7  A    between atoms: N_10  and  C_12
REMARK    8  A    between atoms: C_12  and  C_13
REMARK                            x       y       z     vdW  Elec       q    Type
REMARK                         _______ _______ _______ _____ _____    ______ ____
ROOT
ATOM      1  N   UNL     1       5.277   5.241  15.807  0.00  0.00    +0.000 NA
ATOM      2  C   UNL     1       6.011   5.280  14.535  0.00  0.00    +0.000 C 
ENDROOT
BRANCH   1   3
ATOM      3  C   UNL     1       5.957   6.033  16.851  0.00  0.00    +0.000 C 
BRANCH   3   5
ATOM      4  C   UNL     1       3.644   6.832  17.455  0.00  0.00    +0.000 C 
ATOM      5  C   UNL     1       4.980   6.951  17.534  0.00  0.00    +0.000 C 
BRANCH   4   9
ATOM      6  C   UNL     1       1.093   9.180  19.985  0.00  0.00    +0.000 A 
ATOM      7  C   UNL     1       1.555   7.927  20.399  0.00  0.00    +0.000 A 
ATOM      8  C   UNL     1       2.369   7.149  19.564  0.00  0.00    +0.000 A 
ATOM      9  C   UNL     1       2.721   7.610  18.291  0.00  0.00    +0.000 A 
ATOM     10  C   UNL     1       2.270   8.872  17.887  0.00  0.00    +0.000 A 
ATOM     11  C   UNL     1       1.461   9.640  18.721  0.00  0.00    +0.000 A 
ATOM     12  F   UNL     1       1.074  10.840  18.265  0.00  0.00    +0.000 F 
BRANCH   6  14
ATOM     13  C   UNL     1      -0.496  10.892  20.420  0.00  0.00    +0.000 C 
ATOM     14  O   UNL     1       0.314   9.832  20.905  0.00  0.00    +0.000 OA
ENDBRANCH   6  14
ENDBRANCH   4   9
ENDBRANCH   3   5
ENDBRANCH   1   3
BRANCH   1  15
ATOM     15  C   UNL     1       5.122   3.830  16.215  0.00  0.00    +0.000 C 
BRANCH  15  16
ATOM     16  C   UNL     1       4.020   3.602  17.229  0.00  0.00    +0.000 A 
ATOM     17  C   UNL     1       2.672   3.681  16.851  0.00  0.00    +0.000 A 
ATOM     18  C   UNL     1       1.662   3.546  17.807  0.00  0.00    +0.000 A 
ATOM     19  C   UNL     1       1.984   3.310  19.148  0.00  0.00    +0.000 A 
ATOM     20  C   UNL     1       3.325   3.137  19.505  0.00  0.00    +0.000 A 
ATOM     21  C   UNL     1       4.337   3.304  18.558  0.00  0.00    +0.000 A 
ATOM     22  O   UNL     1       3.735   2.838  20.778  0.00  0.00    +0.000 OA
ATOM     23  C   UNL     1       2.692   2.323  21.611  0.00  0.00    +0.000 C 
ATOM     24  C   UNL     1       1.478   3.234  21.589  0.00  0.00    +0.000 C 
ATOM     25  C   UNL     1       0.895   3.242  20.181  0.00  0.00    +0.000 C 
ENDBRANCH  15  16
ENDBRANCH   1  15
TORSDOF 6
ENDMDL
MODEL 9
REMARK VINA RESULT:      -6.8      4.777      5.649
REMARK  Name = 
REMARK  8 active torsions:
REMARK  status: ('A' for Active; 'I' for Inactive)
REMARK    1  A    between atoms: C_1  and  O_2
REMARK    2  A    between atoms: O_2  and  C_3
REMARK    3  A    between atoms: C_6  and  C_7
REMARK    4  A    between atoms: C_8  and  C_9
REMARK    5  A    between atoms: C_9  and  N_10
REMARK    6  A    between atoms: N_10  and  C_11
REMARK    7  A    between atoms: N_10  and  C_12
REMARK    8  A    between atoms: C_12  and  C_13
REMARK                            x       y       z     vdW  Elec       q    Type
REMARK                         _______ _______ _______ _____ _____    ______ ____
ROOT
ATOM      1  N   UNL     1       6.714   6.146  15.737  0.00  0.00    +0.000 NA
ATOM      2  C   UNL     1       7.264   4.906  15.174  0.00  0.00    +0.000 C 
ENDROOT
BRANCH   1   3
ATOM      3  C   UNL     1       7.073   6.302  17.161  0.00  0.00    +0.000 C 
BRANCH   3   5
ATOM      4  C   UNL     1       8.266   8.198  18.317  0.00  0.00    +0.000 C 
ATOM      5  C   UNL     1       7.310   7.753  17.486  0.00  0.00    +0.000 C 
BRANCH   4   9
ATOM      6  C   UNL     1       9.399  12.328  18.610  0.00  0.00    +0.000 A 
ATOM      7  C   UNL     1       9.971  11.368  19.450  0.00  0.00    +0.000 A 
ATOM      8  C   UNL     1       9.585  10.022  19.371  0.00  0.00    +0.000 A 
ATOM      9  C   UNL     1       8.605   9.620  18.456  0.00  0.00    +0.000 A 
ATOM     10  C   UNL     1       8.047  10.582  17.606  0.00  0.00    +0.000 A 
ATOM     11  C   UNL     1       8.435  11.917  17.690  0.00  0.00    +0.000 A 
ATOM     12  F   UNL     1       7.859  12.777  16.837  0.00  0.00    +0.000 F 
BRANCH   6  14
ATOM     13  C   UNL     1      11.094  13.728  19.510  0.00  0.00    +0.000 C 
ATOM     14  O   UNL     1       9.876  13.599  18.791  0.00  0.00    +0.000 OA
ENDBRANCH   6  14
ENDBRANCH   4   9
ENDBRANCH   3   5
ENDBRANCH   1   3
BRANCH   1  15
ATOM     15  C   UNL     1       5.249   6.137  15.547  0.00  0.00    +0.000 C 
BRANCH  15  16
ATOM     16  C   UNL     1       4.496   5.389  16.628  0.00  0.00    +0.000 A 
ATOM     17  C   UNL     1       4.465   3.987  16.641  0.00  0.00    +0.000 A 
ATOM     18  C   UNL     1       3.704   3.307  17.595  0.00  0.00    +0.000 A 
ATOM     19  C   UNL     1       2.983   4.016  18.562  0.00  0.00    +0.000 A 
ATOM     20  C   UNL     1       3.093   5.410  18.606  0.00  0.00    +0.000 A 
ATOM     21  C   UNL     1       3.825   6.093  17.634  0.00  0.00    +0.000 A 
ATOM     22  O   UNL     1       2.479   6.186  19.554  0.00  0.00    +0.000 OA
ATOM     23  C   UNL     1       2.061   5.456  20.711  0.00  0.00    +0.000 C 
ATOM     24  C   UNL     1       1.230   4.246  20.322  0.00  0.00    +0.000 C 
ATOM     25  C   UNL     1       2.108   3.280  19.537  0.00  0.00    +0.000 C 
ENDBRANCH  15  16
ENDBRANCH   1  15
TORSDOF 6
ENDMDL
