MODEL 1
REMARK VINA RESULT:      -7.4      0.000      0.000
REMARK  Name = 
REMARK  4 active torsions:
REMARK  status: ('A' for Active; 'I' for Inactive)
REMARK    1  A    between atoms: C_1  and  C_2
REMARK    2  A    between atoms: C_2  and  N_3
REMARK    3  A    between atoms: C_4  and  C_6
REMARK    4  A    between atoms: C_6  and  N_7
REMARK                            x       y       z     vdW  Elec       q    Type
REMARK                         _______ _______ _______ _____ _____    ______ ____
ROOT
ATOM      1  N   UNL     1       5.738   4.935  16.542  0.00  0.00    +0.000 NA
ATOM      2  C   UNL     1       5.848   6.401  16.619  0.00  0.00    +0.000 C 
ATOM      3  C   UNL     1       4.477   7.006  16.944  0.00  0.00    +0.000 C 
ATOM      4  C   UNL     1       3.803   6.343  18.123  0.00  0.00    +0.000 A 
ATOM      5  C   UNL     1       2.697   6.920  18.774  0.00  0.00    +0.000 A 
ATOM      6 BR   UNL     1       1.974   8.598  18.251  0.00  0.00    +0.000 Br
ATOM      7  C   UNL     1       2.073   6.263  19.842  0.00  0.00    +0.000 A 
ATOM      8  C   UNL     1       2.541   5.021  20.264  0.00  0.00    +0.000 A 
ATOM      9  C   UNL     1       3.623   4.439  19.615  0.00  0.00    +0.000 A 
ATOM     10  F   UNL     1       4.061   3.244  20.038  0.00  0.00    +0.000 F 
ATOM     11  C   UNL     1       4.255   5.070  18.539  0.00  0.00    +0.000 A 
ATOM     12  C   UNL     1       5.443   4.394  17.882  0.00  0.00    +0.000 C 
ENDROOT
BRANCH   1  13
ATOM     13  C   UNL     1       6.959   4.334  15.964  0.00  0.00    +0.000 C 
BRANCH  13  15
ATOM     14  N   UNL     1       6.279   3.441  13.776  0.00  0.00    +0.000 N 
ATOM     15  C   UNL     1       6.930   4.464  14.432  0.00  0.00    +0.000 C 
ATOM     16  O   UNL     1       7.442   5.419  13.834  0.00  0.00    +0.000 OA
ATOM     17  H   UNL     1       5.769   2.757  14.329  0.00  0.00    +0.000 HD
BRANCH  14  19
ATOM     18  C   UNL     1       4.716   3.346  11.875  0.00  0.00    +0.000 C 
ATOM     19  C   UNL     1       6.157   3.451  12.338  0.00  0.00    +0.000 C 
ENDBRANCH  14  19
ENDBRANCH  13  15
ENDBRANCH   1  13
TORSDOF 3
ENDMDL
MODEL 2
REMARK VINA RESULT:      -7.2      1.399      1.407
REMARK  Name = 
REMARK  4 active torsions:
REMARK  status: ('A' for Active; 'I' for Inactive)
REMARK    1  A    between atoms: C_1  and  C_2
REMARK    2  A    between atoms: C_2  and  N_3
REMARK    3  A    between atoms: C_4  and  C_6
REMARK    4  A    between atoms: C_6  and  N_7
REMARK                            x       y       z     vdW  Elec       q    Type
REMARK                         _______ _______ _______ _____ _____    ______ ____
ROOT
ATOM      1  N   UNL     1       5.816   4.858  16.214  0.00  0.00    +0.000 NA
ATOM      2  C   UNL     1       6.047   5.865  17.262  0.00  0.00    +0.000 C 
ATOM      3  C   UNL     1       4.713   6.499  17.674  0.00  0.00    +0.000 C 
ATOM      4  C   UNL     1       3.643   5.477  17.980  0.00  0.00    +0.000 A 
ATOM      5  C   UNL     1       2.455   5.817  18.654  0.00  0.00    +0.000 A 
ATOM      6 BR   UNL     1       2.106   7.582  19.267  0.00  0.00    +0.000 Br
ATOM      7  C   UNL     1       1.466   4.854  18.890  0.00  0.00    +0.000 A 
ATOM      8  C   UNL     1       1.649   3.545  18.450  0.00  0.00    +0.000 A 
ATOM      9  C   UNL     1       2.813   3.207  17.770  0.00  0.00    +0.000 A 
ATOM     10  F   UNL     1       2.973   1.941  17.357  0.00  0.00    +0.000 F 
ATOM     11  C   UNL     1       3.810   4.154  17.511  0.00  0.00    +0.000 A 
ATOM     12  C   UNL     1       5.066   3.722  16.781  0.00  0.00    +0.000 C 
ENDROOT
BRANCH   1  13
ATOM     13  C   UNL     1       7.087   4.424  15.596  0.00  0.00    +0.000 C 
BRANCH  13  15
ATOM     14  N   UNL     1       6.270   3.437  13.498  0.00  0.00    +0.000 N 
ATOM     15  C   UNL     1       6.970   4.480  14.065  0.00  0.00    +0.000 C 
ATOM     16  O   UNL     1       7.457   5.398  13.392  0.00  0.00    +0.000 OA
ATOM     17  H   UNL     1       5.785   2.788  14.113  0.00  0.00    +0.000 HD
BRANCH  14  19
ATOM     18  C   UNL     1       4.600   3.233  11.698  0.00  0.00    +0.000 C 
ATOM     19  C   UNL     1       6.063   3.380  12.071  0.00  0.00    +0.000 C 
ENDBRANCH  14  19
ENDBRANCH  13  15
ENDBRANCH   1  13
TORSDOF 3
ENDMDL
MODEL 3
REMARK VINA RESULT:      -7.0      1.528      1.776
REMARK  Name = 
REMARK  4 active torsions:
REMARK  status: ('A' for Active; 'I' for Inactive)
REMARK    1  A    between atoms: C_1  and  C_2
REMARK    2  A    between atoms: C_2  and  N_3
REMARK    3  A    between atoms: C_4  and  C_6
REMARK    4  A    between atoms: C_6  and  N_7
REMARK                            x       y       z     vdW  Elec       q    Type
REMARK                         _______ _______ _______ _____ _____    ______ ____
ROOT
ATOM      1  N   UNL     1       4.873   4.286  17.073  0.00  0.00    +0.000 NA
ATOM      2  C   UNL     1       5.286   5.375  17.972  0.00  0.00    +0.000 C 
ATOM      3  C   UNL     1       4.047   6.058  18.560  0.00  0.00    +0.000 C 
ATOM      4  C   UNL     1       3.052   5.080  19.141  0.00  0.00    +0.000 A 
ATOM      5  C   UNL     1       2.004   5.491  19.985  0.00  0.00    +0.000 A 
ATOM      6 BR   UNL     1       1.767   7.306  20.497  0.00  0.00    +0.000 Br
ATOM      7  C   UNL     1       1.078   4.564  20.478  0.00  0.00    +0.000 A 
ATOM      8  C   UNL     1       1.182   3.220  20.127  0.00  0.00    +0.000 A 
ATOM      9  C   UNL     1       2.206   2.811  19.280  0.00  0.00    +0.000 A 
ATOM     10  F   UNL     1       2.292   1.512  18.956  0.00  0.00    +0.000 F 
ATOM     11  C   UNL     1       3.136   3.720  18.766  0.00  0.00    +0.000 A 
ATOM     12  C   UNL     1       4.241   3.211  17.861  0.00  0.00    +0.000 C 
ENDROOT
BRANCH   1  13
ATOM     13  C   UNL     1       6.014   3.785  16.276  0.00  0.00    +0.000 C 
BRANCH  13  15
ATOM     14  N   UNL     1       6.269   3.357  13.868  0.00  0.00    +0.000 N 
ATOM     15  C   UNL     1       5.894   4.276  14.825  0.00  0.00    +0.000 C 
ATOM     16  O   UNL     1       5.481   5.407  14.536  0.00  0.00    +0.000 OA
ATOM     17  H   UNL     1       6.473   2.406  14.164  0.00  0.00    +0.000 HD
BRANCH  14  19
ATOM     18  C   UNL     1       4.895   3.183  11.831  0.00  0.00    +0.000 C 
ATOM     19  C   UNL     1       6.181   3.681  12.465  0.00  0.00    +0.000 C 
ENDBRANCH  14  19
ENDBRANCH  13  15
ENDBRANCH   1  13
TORSDOF 3
ENDMDL
MODEL 4
REMARK VINA RESULT:      -6.6      1.781      2.167
REMARK  Name = 
REMARK  4 active torsions:
REMARK  status: ('A' for Active; 'I' for Inactive)
REMARK    1  A    between atoms: C_1  and  C_2
REMARK    2  A    between atoms: C_2  and  N_3
REMARK    3  A    between atoms: C_4  and  C_6
REMARK    4  A    between atoms: C_6  and  N_7
REMARK                            x       y       z     vdW  Elec       q    Type
REMARK                         _______ _______ _______ _____ _____    ______ ____
ROOT
ATOM      1  N   UNL     1       5.676   4.605  14.671  0.00  0.00    +0.000 NA
ATOM      2  C   UNL     1       6.028   5.881  15.314  0.00  0.00    +0.000 C 
ATOM      3  C   UNL     1       4.810   6.440  16.056  0.00  0.00    +0.000 C 
ATOM      4  C   UNL     1       4.147   5.423  16.955  0.00  0.00    +0.000 A 
ATOM      5  C   UNL     1       3.212   5.790  17.941  0.00  0.00    +0.000 A 
ATOM      6 BR   UNL     1       2.726   7.601  18.252  0.00  0.00    +0.000 Br
ATOM      7  C   UNL     1       2.589   4.819  18.734  0.00  0.00    +0.000 A 
ATOM      8  C   UNL     1       2.885   3.471  18.546  0.00  0.00    +0.000 A 
ATOM      9  C   UNL     1       3.796   3.100  17.563  0.00  0.00    +0.000 A 
ATOM     10  F   UNL     1       4.071   1.798  17.399  0.00  0.00    +0.000 F 
ATOM     11  C   UNL     1       4.422   4.051  16.751  0.00  0.00    +0.000 A 
ATOM     12  C   UNL     1       5.420   3.587  15.707  0.00  0.00    +0.000 C 
ENDROOT
BRANCH   1  13
ATOM     13  C   UNL     1       6.726   4.172  13.724  0.00  0.00    +0.000 C 
BRANCH  13  15
ATOM     14  N   UNL     1       4.765   3.678  12.326  0.00  0.00    +0.000 N 
ATOM     15  C   UNL     1       6.092   3.389  12.563  0.00  0.00    +0.000 C 
ATOM     16  O   UNL     1       6.728   2.570  11.887  0.00  0.00    +0.000 OA
ATOM     17  H   UNL     1       4.339   4.451  12.830  0.00  0.00    +0.000 HD
BRANCH  14  19
ATOM     18  C   UNL     1       3.384   4.022  10.315  0.00  0.00    +0.000 C 
ATOM     19  C   UNL     1       4.055   3.031  11.248  0.00  0.00    +0.000 C 
ENDBRANCH  14  19
ENDBRANCH  13  15
ENDBRANCH   1  13
TORSDOF 3
ENDMDL
MODEL 5
REMARK VINA RESULT:      -6.6      3.215      4.644
REMARK  Name = 
REMARK  4 active torsions:
REMARK  status: ('A' for Active; 'I' for Inactive)
REMARK    1  A    between atoms: C_1  and  C_2
REMARK    2  A    between atoms: C_2  and  N_3
REMARK    3  A    between atoms: C_4  and  C_6
REMARK    4  A    between atoms: C_6  and  N_7
REMARK                            x       y       z     vdW  Elec       q    Type
REMARK                         _______ _______ _______ _____ _____    ______ ____
ROOT
ATOM      1  N   UNL     1       5.274   5.729  17.467  0.00  0.00    +0.000 NA
ATOM      2  C   UNL     1       4.635   4.723  16.604  0.00  0.00    +0.000 C 
ATOM      3  C   UNL     1       3.888   3.700  17.467  0.00  0.00    +0.000 C 
ATOM      4  C   UNL     1       2.984   4.342  18.494  0.00  0.00    +0.000 A 
ATOM      5  C   UNL     1       1.994   3.613  19.180  0.00  0.00    +0.000 A 
ATOM      6 BR   UNL     1       1.685   1.766  18.851  0.00  0.00    +0.000 Br
ATOM      7  C   UNL     1       1.197   4.229  20.152  0.00  0.00    +0.000 A 
ATOM      8  C   UNL     1       1.383   5.575  20.455  0.00  0.00    +0.000 A 
ATOM      9  C   UNL     1       2.370   6.297  19.793  0.00  0.00    +0.000 A 
ATOM     10  F   UNL     1       2.533   7.593  20.096  0.00  0.00    +0.000 F 
ATOM     11  C   UNL     1       3.187   5.700  18.827  0.00  0.00    +0.000 A 
ATOM     12  C   UNL     1       4.234   6.543  18.125  0.00  0.00    +0.000 C 
ENDROOT
BRANCH   1  13
ATOM     13  C   UNL     1       6.225   6.566  16.704  0.00  0.00    +0.000 C 
BRANCH  13  15
ATOM     14  N   UNL     1       7.598   8.443  17.501  0.00  0.00    +0.000 N 
ATOM     15  C   UNL     1       7.319   7.100  17.641  0.00  0.00    +0.000 C 
ATOM     16  O   UNL     1       7.898   6.382  18.467  0.00  0.00    +0.000 OA
ATOM     17  H   UNL     1       6.999   9.003  16.899  0.00  0.00    +0.000 HD
BRANCH  14  19
ATOM     18  C   UNL     1       8.751  10.555  18.029  0.00  0.00    +0.000 C 
ATOM     19  C   UNL     1       8.588   9.079  18.338  0.00  0.00    +0.000 C 
ENDBRANCH  14  19
ENDBRANCH  13  15
ENDBRANCH   1  13
TORSDOF 3
ENDMDL
MODEL 6
REMARK VINA RESULT:      -6.5      4.425      6.525
REMARK  Name = 
REMARK  4 active torsions:
REMARK  status: ('A' for Active; 'I' for Inactive)
REMARK    1  A    between atoms: C_1  and  C_2
REMARK    2  A    between atoms: C_2  and  N_3
REMARK    3  A    between atoms: C_4  and  C_6
REMARK    4  A    between atoms: C_6  and  N_7
REMARK                            x       y       z     vdW  Elec       q    Type
REMARK                         _______ _______ _______ _____ _____    ______ ____
ROOT
ATOM      1  N   UNL     1       2.174   7.703  18.414  0.00  0.00    +0.000 NA
ATOM      2  C   UNL     1       2.210   7.493  19.870  0.00  0.00    +0.000 C 
ATOM      3  C   UNL     1       1.806   6.050  20.194  0.00  0.00    +0.000 C 
ATOM      4  C   UNL     1       2.554   5.027  19.372  0.00  0.00    +0.000 A 
ATOM      5  C   UNL     1       2.563   3.660  19.705  0.00  0.00    +0.000 A 
ATOM      6 BR   UNL     1       1.663   2.984  21.236  0.00  0.00    +0.000 Br
ATOM      7  C   UNL     1       3.238   2.732  18.902  0.00  0.00    +0.000 A 
ATOM      8  C   UNL     1       3.903   3.158  17.754  0.00  0.00    +0.000 A 
ATOM      9  C   UNL     1       3.884   4.505  17.411  0.00  0.00    +0.000 A 
ATOM     10  F   UNL     1       4.532   4.896  16.304  0.00  0.00    +0.000 F 
ATOM     11  C   UNL     1       3.207   5.448  18.191  0.00  0.00    +0.000 A 
ATOM     12  C   UNL     1       3.238   6.906  17.776  0.00  0.00    +0.000 C 
ENDROOT
BRANCH   1  13
ATOM     13  C   UNL     1       2.285   9.139  18.076  0.00  0.00    +0.000 C 
BRANCH  13  15
ATOM     14  N   UNL     1      -0.066   9.716  17.647  0.00  0.00    +0.000 N 
ATOM     15  C   UNL     1       1.005   9.876  18.501  0.00  0.00    +0.000 C 
ATOM     16  O   UNL     1       0.937  10.552  19.535  0.00  0.00    +0.000 OA
ATOM     17  H   UNL     1       0.014   9.046  16.888  0.00  0.00    +0.000 HD
BRANCH  14  19
ATOM     18  C   UNL     1      -2.419   9.942  16.952  0.00  0.00    +0.000 C 
ATOM     19  C   UNL     1      -1.337  10.335  17.941  0.00  0.00    +0.000 C 
ENDBRANCH  14  19
ENDBRANCH  13  15
ENDBRANCH   1  13
TORSDOF 3
ENDMDL
MODEL 7
REMARK VINA RESULT:      -6.5      2.370      2.906
REMARK  Name = 
REMARK  4 active torsions:
REMARK  status: ('A' for Active; 'I' for Inactive)
REMARK    1  A    between atoms: C_1  and  C_2
REMARK    2  A    between atoms: C_2  and  N_3
REMARK    3  A    between atoms: C_4  and  C_6
REMARK    4  A    between atoms: C_6  and  N_7
REMARK                            x       y       z     vdW  Elec       q    Type
REMARK                         _______ _______ _______ _____ _____    ______ ____
ROOT
ATOM      1  N   UNL     1       5.090   5.479  17.495  0.00  0.00    +0.000 NA
ATOM      2  C   UNL     1       4.371   4.496  16.670  0.00  0.00    +0.000 C 
ATOM      3  C   UNL     1       3.591   3.534  17.573  0.00  0.00    +0.000 C 
ATOM      4  C   UNL     1       2.754   4.245  18.612  0.00  0.00    +0.000 A 
ATOM      5  C   UNL     1       1.744   3.588  19.338  0.00  0.00    +0.000 A 
ATOM      6 BR   UNL     1       1.320   1.757  19.055  0.00  0.00    +0.000 Br
ATOM      7  C   UNL     1       1.011   4.267  20.318  0.00  0.00    +0.000 A 
ATOM      8  C   UNL     1       1.283   5.606  20.590  0.00  0.00    +0.000 A 
ATOM      9  C   UNL     1       2.290   6.257  19.887  0.00  0.00    +0.000 A 
ATOM     10  F   UNL     1       2.536   7.546  20.160  0.00  0.00    +0.000 F 
ATOM     11  C   UNL     1       3.044   5.596  18.911  0.00  0.00    +0.000 A 
ATOM     12  C   UNL     1       4.118   6.363  18.165  0.00  0.00    +0.000 C 
ENDROOT
BRANCH   1  13
ATOM     13  C   UNL     1       6.066   6.245  16.691  0.00  0.00    +0.000 C 
BRANCH  13  15
ATOM     14  N   UNL     1       6.495   5.296  14.463  0.00  0.00    +0.000 N 
ATOM     15  C   UNL     1       6.866   5.289  15.791  0.00  0.00    +0.000 C 
ATOM     16  O   UNL     1       7.781   4.576  16.223  0.00  0.00    +0.000 OA
ATOM     17  H   UNL     1       5.827   5.996  14.150  0.00  0.00    +0.000 HD
BRANCH  14  19
ATOM     18  C   UNL     1       6.230   3.624  12.674  0.00  0.00    +0.000 C 
ATOM     19  C   UNL     1       7.182   4.463  13.505  0.00  0.00    +0.000 C 
ENDBRANCH  14  19
ENDBRANCH  13  15
ENDBRANCH   1  13
TORSDOF 3
ENDMDL
MODEL 8
REMARK VINA RESULT:      -6.4      3.782      6.807
REMARK  Name = 
REMARK  4 active torsions:
REMARK  status: ('A' for Active; 'I' for Inactive)
REMARK    1  A    between atoms: C_1  and  C_2
REMARK    2  A    between atoms: C_2  and  N_3
REMARK    3  A    between atoms: C_4  and  C_6
REMARK    4  A    between atoms: C_6  and  N_7
REMARK                            x       y       z     vdW  Elec       q    Type
REMARK                         _______ _______ _______ _____ _____    ______ ____
ROOT
ATOM      1  N   UNL     1       3.101   5.760  19.046  0.00  0.00    +0.000 NA
ATOM      2  C   UNL     1       2.713   4.676  18.130  0.00  0.00    +0.000 C 
ATOM      3  C   UNL     1       3.630   4.683  16.902  0.00  0.00    +0.000 C 
ATOM      4  C   UNL     1       5.097   4.735  17.260  0.00  0.00    +0.000 A 
ATOM      5  C   UNL     1       6.107   4.452  16.322  0.00  0.00    +0.000 A 
ATOM      6 BR   UNL     1       5.715   3.947  14.532  0.00  0.00    +0.000 Br
ATOM      7  C   UNL     1       7.458   4.543  16.676  0.00  0.00    +0.000 A 
ATOM      8  C   UNL     1       7.816   4.926  17.967  0.00  0.00    +0.000 A 
ATOM      9  C   UNL     1       6.823   5.223  18.893  0.00  0.00    +0.000 A 
ATOM     10  F   UNL     1       7.186   5.587  20.132  0.00  0.00    +0.000 F 
ATOM     11  C   UNL     1       5.466   5.150  18.560  0.00  0.00    +0.000 A 
ATOM     12  C   UNL     1       4.429   5.468  19.618  0.00  0.00    +0.000 C 
ENDROOT
BRANCH   1  13
ATOM     13  C   UNL     1       2.083   5.966  20.099  0.00  0.00    +0.000 C 
BRANCH  13  15
ATOM     14  N   UNL     1       1.497   7.849  21.567  0.00  0.00    +0.000 N 
ATOM     15  C   UNL     1       1.816   7.469  20.280  0.00  0.00    +0.000 C 
ATOM     16  O   UNL     1       1.891   8.277  19.346  0.00  0.00    +0.000 OA
ATOM     17  H   UNL     1       1.579   7.161  22.311  0.00  0.00    +0.000 HD
BRANCH  14  19
ATOM     18  C   UNL     1       0.080   9.416  22.834  0.00  0.00    +0.000 C 
ATOM     19  C   UNL     1       1.247   9.235  21.881  0.00  0.00    +0.000 C 
ENDBRANCH  14  19
ENDBRANCH  13  15
ENDBRANCH   1  13
TORSDOF 3
ENDMDL
MODEL 9
REMARK VINA RESULT:      -6.4      2.762      3.931
REMARK  Name = 
REMARK  4 active torsions:
REMARK  status: ('A' for Active; 'I' for Inactive)
REMARK    1  A    between atoms: C_1  and  C_2
REMARK    2  A    between atoms: C_2  and  N_3
REMARK    3  A    between atoms: C_4  and  C_6
REMARK    4  A    between atoms: C_6  and  N_7
REMARK                            x       y       z     vdW  Elec       q    Type
REMARK                         _______ _______ _______ _____ _____    ______ ____
ROOT
ATOM      1  N   UNL     1       4.862   4.279  17.234  0.00  0.00    +0.000 NA
ATOM      2  C   UNL     1       4.041   3.068  17.394  0.00  0.00    +0.000 C 
ATOM      3  C   UNL     1       3.530   2.977  18.837  0.00  0.00    +0.000 C 
ATOM      4  C   UNL     1       2.894   4.260  19.320  0.00  0.00    +0.000 A 
ATOM      5  C   UNL     1       2.103   4.311  20.483  0.00  0.00    +0.000 A 
ATOM      6 BR   UNL     1       1.736   2.767  21.529  0.00  0.00    +0.000 Br
ATOM      7  C   UNL     1       1.558   5.523  20.923  0.00  0.00    +0.000 A 
ATOM      8  C   UNL     1       1.803   6.697  20.214  0.00  0.00    +0.000 A 
ATOM      9  C   UNL     1       2.597   6.655  19.074  0.00  0.00    +0.000 A 
ATOM     10  F   UNL     1       2.819   7.794  18.402  0.00  0.00    +0.000 F 
ATOM     11  C   UNL     1       3.162   5.458  18.621  0.00  0.00    +0.000 A 
ATOM     12  C   UNL     1       4.005   5.473  17.360  0.00  0.00    +0.000 C 
ENDROOT
BRANCH   1  13
ATOM     13  C   UNL     1       5.596   4.264  15.950  0.00  0.00    +0.000 C 
BRANCH  13  15
ATOM     14  N   UNL     1       6.636   6.210  17.035  0.00  0.00    +0.000 N 
ATOM     15  C   UNL     1       6.682   5.351  15.957  0.00  0.00    +0.000 C 
ATOM     16  O   UNL     1       7.540   5.443  15.069  0.00  0.00    +0.000 OA
ATOM     17  H   UNL     1       5.991   6.003  17.793  0.00  0.00    +0.000 HD
BRANCH  14  19
ATOM     18  C   UNL     1       8.203   7.325  18.574  0.00  0.00    +0.000 C 
ATOM     19  C   UNL     1       7.613   7.262  17.177  0.00  0.00    +0.000 C 
ENDBRANCH  14  19
ENDBRANCH  13  15
ENDBRANCH   1  13
TORSDOF 3
ENDMDL
