MODEL 1
REMARK VINA RESULT:      -8.4      0.000      0.000
REMARK  Name = 
REMARK  5 active torsions:
REMARK  status: ('A' for Active; 'I' for Inactive)
REMARK    1  A    between atoms: C_1  and  C_2
REMARK    2  A    between atoms: C_11  and  C_12
REMARK    3  A    between atoms: C_16  and  C_17
REMARK    4  A    between atoms: C_17  and  C_18
REMARK    5  A    between atoms: C_17  and  O_19
REMARK                            x       y       z     vdW  Elec       q    Type
REMARK                         _______ _______ _______ _____ _____    ______ ____
ROOT
ATOM      1  C   UNL     1       4.822   3.900  16.805  0.00  0.00    +0.000 C 
ATOM      2  C   UNL     1       3.940   3.148  17.725  0.00  0.00    +0.000 A 
ATOM      3  N   UNL     1       3.929   1.826  17.787  0.00  0.00    +0.000 NA
ATOM      4  N   UNL     1       3.070   1.439  18.773  0.00  0.00    +0.000 NA
ATOM      5  C   UNL     1       2.567   2.525  19.303  0.00  0.00    +0.000 A 
ATOM      6  N   UNL     1       3.073   3.653  18.679  0.00  0.00    +0.000 N 
ATOM      7  C   UNL     1       2.687   4.960  19.073  0.00  0.00    +0.000 A 
ATOM      8  C   UNL     1       2.937   6.106  18.328  0.00  0.00    +0.000 A 
ATOM      9  F   UNL     1       3.535   6.076  17.134  0.00  0.00    +0.000 F 
ATOM     10  C   UNL     1       2.511   7.360  18.769  0.00  0.00    +0.000 A 
ATOM     11  C   UNL     1       1.800   7.516  19.966  0.00  0.00    +0.000 A 
ATOM     12  C   UNL     1       1.551   6.354  20.718  0.00  0.00    +0.000 A 
ATOM     13  C   UNL     1       1.976   5.087  20.288  0.00  0.00    +0.000 A 
ATOM     14  C   UNL     1       1.737   3.887  21.181  0.00  0.00    +0.000 C 
ATOM     15  C   UNL     1       1.533   2.620  20.360  0.00  0.00    +0.000 C 
ENDROOT
BRANCH  11  16
ATOM     16  C   UNL     1       1.317   8.838  20.410  0.00  0.00    +0.000 A 
ATOM     17  C   UNL     1       1.009   9.112  21.745  0.00  0.00    +0.000 A 
ATOM     18  N   UNL     1       0.570  10.302  22.216  0.00  0.00    +0.000 NA
ATOM     19  C   UNL     1       0.445  11.299  21.315  0.00  0.00    +0.000 A 
ATOM     20  C   UNL     1       0.746  11.174  19.961  0.00  0.00    +0.000 A 
ATOM     21  C   UNL     1       1.154   9.909  19.521  0.00  0.00    +0.000 A 
BRANCH  20  22
ATOM     22  C   UNL     1       0.614  12.362  19.038  0.00  0.00    +0.000 C 
ATOM     23  C   UNL     1       1.942  12.750  18.390  0.00  0.00    +0.000 C 
BRANCH  22  24
ATOM     24  O   UNL     1      -0.326  12.102  17.992  0.00  0.00    +0.000 OA
ATOM     25  H   UNL     1      -1.195  11.975  18.409  0.00  0.00    +0.000 HD
ENDBRANCH  22  24
ENDBRANCH  20  22
ENDBRANCH  11  16
TORSDOF 3
ENDMDL
MODEL 2
REMARK VINA RESULT:      -8.3      4.160      7.995
REMARK  Name = 
REMARK  5 active torsions:
REMARK  status: ('A' for Active; 'I' for Inactive)
REMARK    1  A    between atoms: C_1  and  C_2
REMARK    2  A    between atoms: C_11  and  C_12
REMARK    3  A    between atoms: C_16  and  C_17
REMARK    4  A    between atoms: C_17  and  C_18
REMARK    5  A    between atoms: C_17  and  O_19
REMARK                            x       y       z     vdW  Elec       q    Type
REMARK                         _______ _______ _______ _____ _____    ______ ____
ROOT
ATOM      1  C   UNL     1       2.182   7.363  19.785  0.00  0.00    +0.000 C 
ATOM      2  C   UNL     1       2.345   5.934  20.133  0.00  0.00    +0.000 A 
ATOM      3  N   UNL     1       1.804   5.393  21.213  0.00  0.00    +0.000 NA
ATOM      4  N   UNL     1       2.072   4.056  21.217  0.00  0.00    +0.000 NA
ATOM      5  C   UNL     1       2.772   3.794  20.143  0.00  0.00    +0.000 A 
ATOM      6  N   UNL     1       2.989   4.947  19.407  0.00  0.00    +0.000 N 
ATOM      7  C   UNL     1       3.720   4.929  18.191  0.00  0.00    +0.000 A 
ATOM      8  C   UNL     1       4.203   6.066  17.554  0.00  0.00    +0.000 A 
ATOM      9  F   UNL     1       4.057   7.295  18.058  0.00  0.00    +0.000 F 
ATOM     10  C   UNL     1       4.932   5.973  16.367  0.00  0.00    +0.000 A 
ATOM     11  C   UNL     1       5.225   4.736  15.779  0.00  0.00    +0.000 A 
ATOM     12  C   UNL     1       4.733   3.588  16.426  0.00  0.00    +0.000 A 
ATOM     13  C   UNL     1       3.995   3.667  17.618  0.00  0.00    +0.000 A 
ATOM     14  C   UNL     1       3.435   2.397  18.224  0.00  0.00    +0.000 C 
ATOM     15  C   UNL     1       3.362   2.495  19.742  0.00  0.00    +0.000 C 
ENDROOT
BRANCH  11  16
ATOM     16  C   UNL     1       6.029   4.638  14.545  0.00  0.00    +0.000 A 
ATOM     17  C   UNL     1       7.197   5.379  14.354  0.00  0.00    +0.000 A 
ATOM     18  N   UNL     1       7.981   5.330  13.251  0.00  0.00    +0.000 NA
ATOM     19  C   UNL     1       7.600   4.477  12.277  0.00  0.00    +0.000 A 
ATOM     20  C   UNL     1       6.477   3.657  12.349  0.00  0.00    +0.000 A 
ATOM     21  C   UNL     1       5.678   3.780  13.494  0.00  0.00    +0.000 A 
BRANCH  20  22
ATOM     22  C   UNL     1       6.156   2.703  11.224  0.00  0.00    +0.000 C 
ATOM     23  C   UNL     1       6.984   1.420  11.290  0.00  0.00    +0.000 C 
BRANCH  22  24
ATOM     24  O   UNL     1       4.774   2.335  11.234  0.00  0.00    +0.000 OA
ATOM     25  H   UNL     1       4.339   2.865  11.924  0.00  0.00    +0.000 HD
ENDBRANCH  22  24
ENDBRANCH  20  22
ENDBRANCH  11  16
TORSDOF 3
ENDMDL
MODEL 3
REMARK VINA RESULT:      -8.3      1.768      2.049
REMARK  Name = 
REMARK  5 active torsions:
REMARK  status: ('A' for Active; 'I' for Inactive)
REMARK    1  A    between atoms: C_1  and  C_2
REMARK    2  A    between atoms: C_11  and  C_12
REMARK    3  A    between atoms: C_16  and  C_17
REMARK    4  A    between atoms: C_17  and  C_18
REMARK    5  A    between atoms: C_17  and  O_19
REMARK                            x       y       z     vdW  Elec       q    Type
REMARK                         _______ _______ _______ _____ _____    ______ ____
ROOT
ATOM      1  C   UNL     1       4.866   6.350  16.362  0.00  0.00    +0.000 C 
ATOM      2  C   UNL     1       4.306   5.199  17.105  0.00  0.00    +0.000 A 
ATOM      3  N   UNL     1       4.644   3.946  16.847  0.00  0.00    +0.000 NA
ATOM      4  N   UNL     1       4.019   3.128  17.741  0.00  0.00    +0.000 NA
ATOM      5  C   UNL     1       3.308   3.887  18.535  0.00  0.00    +0.000 A 
ATOM      6  N   UNL     1       3.439   5.220  18.183  0.00  0.00    +0.000 N 
ATOM      7  C   UNL     1       2.769   6.249  18.896  0.00  0.00    +0.000 A 
ATOM      8  C   UNL     1       2.637   7.555  18.440  0.00  0.00    +0.000 A 
ATOM      9  F   UNL     1       3.099   7.957  17.253  0.00  0.00    +0.000 F 
ATOM     10  C   UNL     1       1.947   8.513  19.186  0.00  0.00    +0.000 A 
ATOM     11  C   UNL     1       1.345   8.197  20.411  0.00  0.00    +0.000 A 
ATOM     12  C   UNL     1       1.483   6.874  20.868  0.00  0.00    +0.000 A 
ATOM     13  C   UNL     1       2.176   5.902  20.130  0.00  0.00    +0.000 A 
ATOM     14  C   UNL     1       2.346   4.515  20.716  0.00  0.00    +0.000 C 
ATOM     15  C   UNL     1       2.396   3.456  19.621  0.00  0.00    +0.000 C 
ENDROOT
BRANCH  11  16
ATOM     16  C   UNL     1       0.584   9.201  21.178  0.00  0.00    +0.000 A 
ATOM     17  C   UNL     1       0.604   9.249  22.574  0.00  0.00    +0.000 A 
ATOM     18  N   UNL     1      -0.065  10.148  23.334  0.00  0.00    +0.000 NA
ATOM     19  C   UNL     1      -0.788  11.077  22.675  0.00  0.00    +0.000 A 
ATOM     20  C   UNL     1      -0.872  11.165  21.288  0.00  0.00    +0.000 A 
ATOM     21  C   UNL     1      -0.196  10.184  20.552  0.00  0.00    +0.000 A 
BRANCH  20  22
ATOM     22  C   UNL     1      -1.675  12.268  20.641  0.00  0.00    +0.000 C 
ATOM     23  C   UNL     1      -2.161  11.895  19.242  0.00  0.00    +0.000 C 
BRANCH  22  24
ATOM     24  O   UNL     1      -2.819  12.606  21.429  0.00  0.00    +0.000 OA
ATOM     25  H   UNL     1      -2.576  13.369  21.980  0.00  0.00    +0.000 HD
ENDBRANCH  22  24
ENDBRANCH  20  22
ENDBRANCH  11  16
TORSDOF 3
ENDMDL
MODEL 4
REMARK VINA RESULT:      -8.3      3.133      7.676
REMARK  Name = 
REMARK  5 active torsions:
REMARK  status: ('A' for Active; 'I' for Inactive)
REMARK    1  A    between atoms: C_1  and  C_2
REMARK    2  A    between atoms: C_11  and  C_12
REMARK    3  A    between atoms: C_16  and  C_17
REMARK    4  A    between atoms: C_17  and  C_18
REMARK    5  A    between atoms: C_17  and  O_19
REMARK                            x       y       z     vdW  Elec       q    Type
REMARK                         _______ _______ _______ _____ _____    ______ ____
ROOT
ATOM      1  C   UNL     1       0.043   9.597  23.289  0.00  0.00    +0.000 C 
ATOM      2  C   UNL     1      -0.332  10.317  22.052  0.00  0.00    +0.000 A 
ATOM      3  N   UNL     1      -1.116  11.383  22.053  0.00  0.00    +0.000 NA
ATOM      4  N   UNL     1      -1.216  11.858  20.778  0.00  0.00    +0.000 NA
ATOM      5  C   UNL     1      -0.494  11.079  20.013  0.00  0.00    +0.000 A 
ATOM      6  N   UNL     1       0.094  10.070  20.758  0.00  0.00    +0.000 N 
ATOM      7  C   UNL     1       0.933   9.094  20.161  0.00  0.00    +0.000 A 
ATOM      8  C   UNL     1       1.327   7.916  20.786  0.00  0.00    +0.000 A 
ATOM      9  F   UNL     1       0.912   7.571  22.007  0.00  0.00    +0.000 F 
ATOM     10  C   UNL     1       2.140   6.990  20.130  0.00  0.00    +0.000 A 
ATOM     11  C   UNL     1       2.577   7.196  18.815  0.00  0.00    +0.000 A 
ATOM     12  C   UNL     1       2.177   8.390  18.188  0.00  0.00    +0.000 A 
ATOM     13  C   UNL     1       1.362   9.332  18.837  0.00  0.00    +0.000 A 
ATOM     14  C   UNL     1       1.028  10.628  18.128  0.00  0.00    +0.000 C 
ATOM     15  C   UNL     1      -0.346  11.144  18.540  0.00  0.00    +0.000 C 
ENDROOT
BRANCH  11  16
ATOM     16  C   UNL     1       3.404   6.197  18.111  0.00  0.00    +0.000 A 
ATOM     17  C   UNL     1       2.906   4.950  17.728  0.00  0.00    +0.000 A 
ATOM     18  N   UNL     1       3.611   3.995  17.076  0.00  0.00    +0.000 NA
ATOM     19  C   UNL     1       4.887   4.296  16.760  0.00  0.00    +0.000 A 
ATOM     20  C   UNL     1       5.501   5.512  17.053  0.00  0.00    +0.000 A 
ATOM     21  C   UNL     1       4.740   6.446  17.767  0.00  0.00    +0.000 A 
BRANCH  20  22
ATOM     22  C   UNL     1       6.924   5.771  16.620  0.00  0.00    +0.000 C 
ATOM     23  C   UNL     1       7.578   6.905  17.408  0.00  0.00    +0.000 C 
BRANCH  22  24
ATOM     24  O   UNL     1       7.734   4.603  16.776  0.00  0.00    +0.000 OA
ATOM     25  H   UNL     1       8.293   4.741  17.560  0.00  0.00    +0.000 HD
ENDBRANCH  22  24
ENDBRANCH  20  22
ENDBRANCH  11  16
TORSDOF 3
ENDMDL
MODEL 5
REMARK VINA RESULT:      -8.3      4.227      8.154
REMARK  Name = 
REMARK  5 active torsions:
REMARK  status: ('A' for Active; 'I' for Inactive)
REMARK    1  A    between atoms: C_1  and  C_2
REMARK    2  A    between atoms: C_11  and  C_12
REMARK    3  A    between atoms: C_16  and  C_17
REMARK    4  A    between atoms: C_17  and  C_18
REMARK    5  A    between atoms: C_17  and  O_19
REMARK                            x       y       z     vdW  Elec       q    Type
REMARK                         _______ _______ _______ _____ _____    ______ ____
ROOT
ATOM      1  C   UNL     1       3.183   2.589  20.717  0.00  0.00    +0.000 C 
ATOM      2  C   UNL     1       2.674   3.957  20.475  0.00  0.00    +0.000 A 
ATOM      3  N   UNL     1       1.888   4.592  21.329  0.00  0.00    +0.000 NA
ATOM      4  N   UNL     1       1.650   5.849  20.859  0.00  0.00    +0.000 NA
ATOM      5  C   UNL     1       2.292   5.971  19.725  0.00  0.00    +0.000 A 
ATOM      6  N   UNL     1       2.962   4.799  19.414  0.00  0.00    +0.000 N 
ATOM      7  C   UNL     1       3.740   4.675  18.234  0.00  0.00    +0.000 A 
ATOM      8  C   UNL     1       4.206   3.466  17.730  0.00  0.00    +0.000 A 
ATOM      9  F   UNL     1       3.924   2.290  18.296  0.00  0.00    +0.000 F 
ATOM     10  C   UNL     1       4.951   3.417  16.551  0.00  0.00    +0.000 A 
ATOM     11  C   UNL     1       5.245   4.574  15.817  0.00  0.00    +0.000 A 
ATOM     12  C   UNL     1       4.773   5.794  16.331  0.00  0.00    +0.000 A 
ATOM     13  C   UNL     1       4.025   5.859  17.518  0.00  0.00    +0.000 A 
ATOM     14  C   UNL     1       3.609   7.214  18.053  0.00  0.00    +0.000 C 
ATOM     15  C   UNL     1       2.284   7.129  18.800  0.00  0.00    +0.000 C 
ENDROOT
BRANCH  11  16
ATOM     16  C   UNL     1       6.000   4.513  14.550  0.00  0.00    +0.000 A 
ATOM     17  C   UNL     1       7.154   5.269  14.330  0.00  0.00    +0.000 A 
ATOM     18  N   UNL     1       7.893   5.254  13.196  0.00  0.00    +0.000 NA
ATOM     19  C   UNL     1       7.481   4.420  12.219  0.00  0.00    +0.000 A 
ATOM     20  C   UNL     1       6.369   3.588  12.315  0.00  0.00    +0.000 A 
ATOM     21  C   UNL     1       5.615   3.677  13.493  0.00  0.00    +0.000 A 
BRANCH  20  22
ATOM     22  C   UNL     1       6.011   2.658  11.181  0.00  0.00    +0.000 C 
ATOM     23  C   UNL     1       6.796   1.348  11.229  0.00  0.00    +0.000 C 
BRANCH  22  24
ATOM     24  O   UNL     1       4.618   2.337  11.193  0.00  0.00    +0.000 OA
ATOM     25  H   UNL     1       4.477   1.688  11.904  0.00  0.00    +0.000 HD
ENDBRANCH  22  24
ENDBRANCH  20  22
ENDBRANCH  11  16
TORSDOF 3
ENDMDL
MODEL 6
REMARK VINA RESULT:      -8.1      3.012      7.520
REMARK  Name = 
REMARK  5 active torsions:
REMARK  status: ('A' for Active; 'I' for Inactive)
REMARK    1  A    between atoms: C_1  and  C_2
REMARK    2  A    between atoms: C_11  and  C_12
REMARK    3  A    between atoms: C_16  and  C_17
REMARK    4  A    between atoms: C_17  and  C_18
REMARK    5  A    between atoms: C_17  and  O_19
REMARK                            x       y       z     vdW  Elec       q    Type
REMARK                         _______ _______ _______ _____ _____    ______ ____
ROOT
ATOM      1  C   UNL     1       0.002  12.419  18.589  0.00  0.00    +0.000 C 
ATOM      2  C   UNL     1       0.026  11.908  19.978  0.00  0.00    +0.000 A 
ATOM      3  N   UNL     1      -0.502  12.569  20.995  0.00  0.00    +0.000 NA
ATOM      4  N   UNL     1      -0.385  11.812  22.122  0.00  0.00    +0.000 NA
ATOM      5  C   UNL     1       0.212  10.697  21.784  0.00  0.00    +0.000 A 
ATOM      6  N   UNL     1       0.509  10.693  20.432  0.00  0.00    +0.000 N 
ATOM      7  C   UNL     1       1.156   9.591  19.814  0.00  0.00    +0.000 A 
ATOM      8  C   UNL     1       1.721   9.629  18.545  0.00  0.00    +0.000 A 
ATOM      9  F   UNL     1       1.745  10.735  17.796  0.00  0.00    +0.000 F 
ATOM     10  C   UNL     1       2.360   8.510  18.006  0.00  0.00    +0.000 A 
ATOM     11  C   UNL     1       2.475   7.313  18.724  0.00  0.00    +0.000 A 
ATOM     12  C   UNL     1       1.900   7.278  20.006  0.00  0.00    +0.000 A 
ATOM     13  C   UNL     1       1.252   8.395  20.560  0.00  0.00    +0.000 A 
ATOM     14  C   UNL     1       0.593   8.266  21.917  0.00  0.00    +0.000 C 
ATOM     15  C   UNL     1       0.628   9.588  22.675  0.00  0.00    +0.000 C 
ENDROOT
BRANCH  11  16
ATOM     16  C   UNL     1       3.184   6.144  18.167  0.00  0.00    +0.000 A 
ATOM     17  C   UNL     1       2.524   4.962  17.824  0.00  0.00    +0.000 A 
ATOM     18  N   UNL     1       3.114   3.861  17.305  0.00  0.00    +0.000 NA
ATOM     19  C   UNL     1       4.444   3.934  17.086  0.00  0.00    +0.000 A 
ATOM     20  C   UNL     1       5.220   5.060  17.351  0.00  0.00    +0.000 A 
ATOM     21  C   UNL     1       4.565   6.155  17.929  0.00  0.00    +0.000 A 
BRANCH  20  22
ATOM     22  C   UNL     1       6.696   5.060  17.033  0.00  0.00    +0.000 C 
ATOM     23  C   UNL     1       7.329   6.442  17.194  0.00  0.00    +0.000 C 
BRANCH  22  24
ATOM     24  O   UNL     1       7.407   4.149  17.874  0.00  0.00    +0.000 OA
ATOM     25  H   UNL     1       6.895   4.052  18.695  0.00  0.00    +0.000 HD
ENDBRANCH  22  24
ENDBRANCH  20  22
ENDBRANCH  11  16
TORSDOF 3
ENDMDL
MODEL 7
REMARK VINA RESULT:      -8.1      2.722      7.463
REMARK  Name = 
REMARK  5 active torsions:
REMARK  status: ('A' for Active; 'I' for Inactive)
REMARK    1  A    between atoms: C_1  and  C_2
REMARK    2  A    between atoms: C_11  and  C_12
REMARK    3  A    between atoms: C_16  and  C_17
REMARK    4  A    between atoms: C_17  and  C_18
REMARK    5  A    between atoms: C_17  and  O_19
REMARK                            x       y       z     vdW  Elec       q    Type
REMARK                         _______ _______ _______ _____ _____    ______ ____
ROOT
ATOM      1  C   UNL     1      -1.092  12.336  18.523  0.00  0.00    +0.000 C 
ATOM      2  C   UNL     1      -1.073  11.971  19.957  0.00  0.00    +0.000 A 
ATOM      3  N   UNL     1      -1.759  12.633  20.875  0.00  0.00    +0.000 NA
ATOM      4  N   UNL     1      -1.594  12.016  22.079  0.00  0.00    +0.000 NA
ATOM      5  C   UNL     1      -0.811  10.985  21.886  0.00  0.00    +0.000 A 
ATOM      6  N   UNL     1      -0.435  10.898  20.556  0.00  0.00    +0.000 N 
ATOM      7  C   UNL     1       0.411   9.861  20.086  0.00  0.00    +0.000 A 
ATOM      8  C   UNL     1       1.040   9.868  18.846  0.00  0.00    +0.000 A 
ATOM      9  F   UNL     1       0.937  10.886  17.989  0.00  0.00    +0.000 F 
ATOM     10  C   UNL     1       1.875   8.820  18.456  0.00  0.00    +0.000 A 
ATOM     11  C   UNL     1       2.132   7.731  19.299  0.00  0.00    +0.000 A 
ATOM     12  C   UNL     1       1.492   7.727  20.552  0.00  0.00    +0.000 A 
ATOM     13  C   UNL     1       0.647   8.773  20.956  0.00  0.00    +0.000 A 
ATOM     14  C   UNL     1      -0.065   8.671  22.289  0.00  0.00    +0.000 C 
ATOM     15  C   UNL     1      -0.283  10.047  22.905  0.00  0.00    +0.000 C 
ENDROOT
BRANCH  11  16
ATOM     16  C   UNL     1       3.046   6.644  18.899  0.00  0.00    +0.000 A 
ATOM     17  C   UNL     1       3.155   5.453  19.622  0.00  0.00    +0.000 A 
ATOM     18  N   UNL     1       3.967   4.419  19.305  0.00  0.00    +0.000 NA
ATOM     19  C   UNL     1       4.710   4.555  18.186  0.00  0.00    +0.000 A 
ATOM     20  C   UNL     1       4.677   5.672  17.356  0.00  0.00    +0.000 A 
ATOM     21  C   UNL     1       3.852   6.731  17.756  0.00  0.00    +0.000 A 
BRANCH  20  22
ATOM     22  C   UNL     1       5.515   5.714  16.101  0.00  0.00    +0.000 C 
ATOM     23  C   UNL     1       5.380   4.443  15.264  0.00  0.00    +0.000 C 
BRANCH  22  24
ATOM     24  O   UNL     1       5.156   6.824  15.275  0.00  0.00    +0.000 OA
ATOM     25  H   UNL     1       5.059   6.490  14.367  0.00  0.00    +0.000 HD
ENDBRANCH  22  24
ENDBRANCH  20  22
ENDBRANCH  11  16
TORSDOF 3
ENDMDL
MODEL 8
REMARK VINA RESULT:      -8.0      2.291      3.414
REMARK  Name = 
REMARK  5 active torsions:
REMARK  status: ('A' for Active; 'I' for Inactive)
REMARK    1  A    between atoms: C_1  and  C_2
REMARK    2  A    between atoms: C_11  and  C_12
REMARK    3  A    between atoms: C_16  and  C_17
REMARK    4  A    between atoms: C_17  and  C_18
REMARK    5  A    between atoms: C_17  and  O_19
REMARK                            x       y       z     vdW  Elec       q    Type
REMARK                         _______ _______ _______ _____ _____    ______ ____
ROOT
ATOM      1  C   UNL     1       2.777   3.419  20.778  0.00  0.00    +0.000 C 
ATOM      2  C   UNL     1       3.834   3.907  19.864  0.00  0.00    +0.000 A 
ATOM      3  N   UNL     1       4.876   3.170  19.513  0.00  0.00    +0.000 NA
ATOM      4  N   UNL     1       5.625   3.867  18.613  0.00  0.00    +0.000 NA
ATOM      5  C   UNL     1       5.036   5.020  18.422  0.00  0.00    +0.000 A 
ATOM      6  N   UNL     1       3.890   5.117  19.193  0.00  0.00    +0.000 N 
ATOM      7  C   UNL     1       3.065   6.271  19.163  0.00  0.00    +0.000 A 
ATOM      8  C   UNL     1       2.071   6.545  20.096  0.00  0.00    +0.000 A 
ATOM      9  F   UNL     1       1.826   5.756  21.145  0.00  0.00    +0.000 F 
ATOM     10  C   UNL     1       1.310   7.713  20.015  0.00  0.00    +0.000 A 
ATOM     11  C   UNL     1       1.525   8.663  19.009  0.00  0.00    +0.000 A 
ATOM     12  C   UNL     1       2.530   8.381  18.067  0.00  0.00    +0.000 A 
ATOM     13  C   UNL     1       3.302   7.209  18.134  0.00  0.00    +0.000 A 
ATOM     14  C   UNL     1       4.319   6.935  17.046  0.00  0.00    +0.000 C 
ATOM     15  C   UNL     1       5.508   6.150  17.588  0.00  0.00    +0.000 C 
ENDROOT
BRANCH  11  16
ATOM     16  C   UNL     1       0.744   9.914  18.949  0.00  0.00    +0.000 A 
ATOM     17  C   UNL     1       1.122  11.065  19.644  0.00  0.00    +0.000 A 
ATOM     18  N   UNL     1       0.454  12.243  19.625  0.00  0.00    +0.000 NA
ATOM     19  C   UNL     1      -0.651  12.298  18.853  0.00  0.00    +0.000 A 
ATOM     20  C   UNL     1      -1.124  11.237  18.084  0.00  0.00    +0.000 A 
ATOM     21  C   UNL     1      -0.419  10.030  18.175  0.00  0.00    +0.000 A 
BRANCH  20  22
ATOM     22  C   UNL     1      -2.348  11.410  17.218  0.00  0.00    +0.000 C 
ATOM     23  C   UNL     1      -2.808  10.096  16.587  0.00  0.00    +0.000 C 
BRANCH  22  24
ATOM     24  O   UNL     1      -3.442  11.944  17.967  0.00  0.00    +0.000 OA
ATOM     25  H   UNL     1      -3.160  12.806  18.317  0.00  0.00    +0.000 HD
ENDBRANCH  22  24
ENDBRANCH  20  22
ENDBRANCH  11  16
TORSDOF 3
ENDMDL
MODEL 9
REMARK VINA RESULT:      -8.0      1.429      2.097
REMARK  Name = 
REMARK  5 active torsions:
REMARK  status: ('A' for Active; 'I' for Inactive)
REMARK    1  A    between atoms: C_1  and  C_2
REMARK    2  A    between atoms: C_11  and  C_12
REMARK    3  A    between atoms: C_16  and  C_17
REMARK    4  A    between atoms: C_17  and  C_18
REMARK    5  A    between atoms: C_17  and  O_19
REMARK                            x       y       z     vdW  Elec       q    Type
REMARK                         _______ _______ _______ _____ _____    ______ ____
ROOT
ATOM      1  C   UNL     1       4.853   3.694  16.766  0.00  0.00    +0.000 C 
ATOM      2  C   UNL     1       3.947   3.078  17.761  0.00  0.00    +0.000 A 
ATOM      3  N   UNL     1       3.914   1.776  17.991  0.00  0.00    +0.000 NA
ATOM      4  N   UNL     1       3.037   1.530  19.005  0.00  0.00    +0.000 NA
ATOM      5  C   UNL     1       2.544   2.681  19.384  0.00  0.00    +0.000 A 
ATOM      6  N   UNL     1       3.076   3.713  18.629  0.00  0.00    +0.000 N 
ATOM      7  C   UNL     1       2.705   5.065  18.848  0.00  0.00    +0.000 A 
ATOM      8  C   UNL     1       2.983   6.103  17.966  0.00  0.00    +0.000 A 
ATOM      9  F   UNL     1       3.596   5.912  16.794  0.00  0.00    +0.000 F 
ATOM     10  C   UNL     1       2.571   7.409  18.237  0.00  0.00    +0.000 A 
ATOM     11  C   UNL     1       1.847   7.727  19.393  0.00  0.00    +0.000 A 
ATOM     12  C   UNL     1       1.570   6.674  20.283  0.00  0.00    +0.000 A 
ATOM     13  C   UNL     1       1.981   5.356  20.025  0.00  0.00    +0.000 A 
ATOM     14  C   UNL     1       1.710   4.284  21.060  0.00  0.00    +0.000 C 
ATOM     15  C   UNL     1       1.497   2.925  20.405  0.00  0.00    +0.000 C 
ENDROOT
BRANCH  11  16
ATOM     16  C   UNL     1       1.379   9.101  19.658  0.00  0.00    +0.000 A 
ATOM     17  C   UNL     1       1.649  10.163  18.791  0.00  0.00    +0.000 A 
ATOM     18  N   UNL     1       1.244  11.441  18.973  0.00  0.00    +0.000 NA
ATOM     19  C   UNL     1       0.504  11.689  20.074  0.00  0.00    +0.000 A 
ATOM     20  C   UNL     1       0.135  10.721  21.004  0.00  0.00    +0.000 A 
ATOM     21  C   UNL     1       0.618   9.424  20.790  0.00  0.00    +0.000 A 
BRANCH  20  22
ATOM     22  C   UNL     1      -0.732  11.089  22.184  0.00  0.00    +0.000 C 
ATOM     23  C   UNL     1      -0.757   9.999  23.255  0.00  0.00    +0.000 C 
BRANCH  22  24
ATOM     24  O   UNL     1      -0.284  12.299  22.799  0.00  0.00    +0.000 OA
ATOM     25  H   UNL     1       0.453  12.641  22.264  0.00  0.00    +0.000 HD
ENDBRANCH  22  24
ENDBRANCH  20  22
ENDBRANCH  11  16
TORSDOF 3
ENDMDL
