MODEL 1
REMARK VINA RESULT:      -6.0      0.000      0.000
REMARK  Name = 
REMARK  7 active torsions:
REMARK  status: ('A' for Active; 'I' for Inactive)
REMARK    1  A    between atoms: C_2  and  C_3
REMARK    2  A    between atoms: C_2  and  C_4
REMARK    3  A    between atoms: C_4  and  C_5
REMARK    4  A    between atoms: C_16  and  C_17
REMARK    5  A    between atoms: C_16  and  C_18
REMARK    6  A    between atoms: N_19  and  C_20
REMARK    7  A    between atoms: C_20  and  C_21
REMARK                            x       y       z     vdW  Elec       q    Type
REMARK                         _______ _______ _______ _____ _____    ______ ____
ROOT
ATOM      1  C   UNL     1       0.153  12.044  21.348  0.00  0.00    +0.000 C 
ATOM      2  C   UNL     1       0.978  11.901  20.006  0.00  0.00    +0.000 C 
ATOM      3  C   UNL     1      -0.024  11.350  19.005  0.00  0.00    +0.000 A 
ATOM      4  C   UNL     1       0.050  10.150  18.298  0.00  0.00    +0.000 A 
ATOM      5 BR   UNL     1       1.539   8.989  18.412  0.00  0.00    +0.000 Br
ATOM      6  C   UNL     1      -1.023   9.780  17.485  0.00  0.00    +0.000 A 
ATOM      7  C   UNL     1      -2.149  10.605  17.374  0.00  0.00    +0.000 A 
ATOM      8  C   UNL     1      -2.224  11.815  18.073  0.00  0.00    +0.000 A 
ATOM      9  C   UNL     1      -1.165  12.180  18.894  0.00  0.00    +0.000 A 
ATOM     10  C   UNL     1      -1.088  13.452  19.731  0.00  0.00    +0.000 C 
ATOM     11  C   UNL     1       0.188  14.205  19.267  0.00  0.00    +0.000 C 
ATOM     12  C   UNL     1       1.454  13.306  19.465  0.00  0.00    +0.000 C 
ATOM     13  C   UNL     1       2.207  13.159  18.119  0.00  0.00    +0.000 C 
ATOM     14  C   UNL     1       2.434  13.988  20.438  0.00  0.00    +0.000 C 
ATOM     15  N   UNL     1      -0.876  13.161  21.174  0.00  0.00    +0.000 NA
ENDROOT
BRANCH   1  16
ATOM     16  C   UNL     1      -0.468  10.672  21.843  0.00  0.00    +0.000 C 
BRANCH  16  18
ATOM     17  C   UNL     1       1.552   9.240  22.468  0.00  0.00    +0.000 C 
ATOM     18  C   UNL     1       0.313   9.383  21.980  0.00  0.00    +0.000 C 
ATOM     19  C   UNL     1      -0.466   8.163  21.533  0.00  0.00    +0.000 C 
ENDBRANCH  16  18
ENDBRANCH   1  16
BRANCH  15  20
ATOM     20  C   UNL     1      -2.113  12.940  21.926  0.00  0.00    +0.000 C 
BRANCH  20  21
ATOM     21  C   UNL     1      -2.300  13.788  23.155  0.00  0.00    +0.000 A 
ATOM     22  C   UNL     1      -1.185  14.396  23.835  0.00  0.00    +0.000 A 
ATOM     23  C   UNL     1      -1.568  15.272  24.824  0.00  0.00    +0.000 A 
ATOM     24  S   UNL     1      -3.267  15.344  24.981  0.00  0.00    +0.000 S 
ATOM     25  C   UNL     1      -3.492  14.229  23.701  0.00  0.00    +0.000 A 
ENDBRANCH  20  21
ENDBRANCH  15  20
TORSDOF 4
ENDMDL
MODEL 2
REMARK VINA RESULT:      -5.9      1.387      1.851
REMARK  Name = 
REMARK  7 active torsions:
REMARK  status: ('A' for Active; 'I' for Inactive)
REMARK    1  A    between atoms: C_2  and  C_3
REMARK    2  A    between atoms: C_2  and  C_4
REMARK    3  A    between atoms: C_4  and  C_5
REMARK    4  A    between atoms: C_16  and  C_17
REMARK    5  A    between atoms: C_16  and  C_18
REMARK    6  A    between atoms: N_19  and  C_20
REMARK    7  A    between atoms: C_20  and  C_21
REMARK                            x       y       z     vdW  Elec       q    Type
REMARK                         _______ _______ _______ _____ _____    ______ ____
ROOT
ATOM      1  C   UNL     1      -0.314  11.992  21.756  0.00  0.00    +0.000 C 
ATOM      2  C   UNL     1       0.435  12.122  20.369  0.00  0.00    +0.000 C 
ATOM      3  C   UNL     1      -0.542  11.547  19.358  0.00  0.00    +0.000 A 
ATOM      4  C   UNL     1      -0.347  10.458  18.509  0.00  0.00    +0.000 A 
ATOM      5 BR   UNL     1       1.294   9.521  18.412  0.00  0.00    +0.000 Br
ATOM      6  C   UNL     1      -1.407  10.028  17.709  0.00  0.00    +0.000 A 
ATOM      7  C   UNL     1      -2.642  10.687  17.751  0.00  0.00    +0.000 A 
ATOM      8  C   UNL     1      -2.840  11.787  18.593  0.00  0.00    +0.000 A 
ATOM      9  C   UNL     1      -1.792  12.209  19.401  0.00  0.00    +0.000 A 
ATOM     10  C   UNL     1      -1.840  13.376  20.380  0.00  0.00    +0.000 C 
ATOM     11  C   UNL     1      -0.714  14.354  19.950  0.00  0.00    +0.000 C 
ATOM     12  C   UNL     1       0.675  13.634  19.979  0.00  0.00    +0.000 C 
ATOM     13  C   UNL     1       1.353  13.750  18.590  0.00  0.00    +0.000 C 
ATOM     14  C   UNL     1       1.611  14.339  20.979  0.00  0.00    +0.000 C 
ATOM     15  N   UNL     1      -1.497  12.959  21.766  0.00  0.00    +0.000 NA
ENDROOT
BRANCH   1  16
ATOM     16  C   UNL     1      -0.704  10.497  22.111  0.00  0.00    +0.000 C 
BRANCH  16  18
ATOM     17  C   UNL     1       1.523   9.304  22.479  0.00  0.00    +0.000 C 
ATOM     18  C   UNL     1       0.254   9.328  22.049  0.00  0.00    +0.000 C 
ATOM     19  C   UNL     1      -0.367   8.077  21.463  0.00  0.00    +0.000 C 
ENDBRANCH  16  18
ENDBRANCH   1  16
BRANCH  15  20
ATOM     20  C   UNL     1      -2.641  12.478  22.543  0.00  0.00    +0.000 C 
BRANCH  20  21
ATOM     21  C   UNL     1      -3.928  13.238  22.365  0.00  0.00    +0.000 A 
ATOM     22  C   UNL     1      -5.047  12.678  21.652  0.00  0.00    +0.000 A 
ATOM     23  C   UNL     1      -6.186  13.444  21.748  0.00  0.00    +0.000 A 
ATOM     24  S   UNL     1      -5.917  14.865  22.656  0.00  0.00    +0.000 S 
ATOM     25  C   UNL     1      -4.284  14.438  22.951  0.00  0.00    +0.000 A 
ENDBRANCH  20  21
ENDBRANCH  15  20
TORSDOF 4
ENDMDL
MODEL 3
REMARK VINA RESULT:      -5.7      3.476      6.109
REMARK  Name = 
REMARK  7 active torsions:
REMARK  status: ('A' for Active; 'I' for Inactive)
REMARK    1  A    between atoms: C_2  and  C_3
REMARK    2  A    between atoms: C_2  and  C_4
REMARK    3  A    between atoms: C_4  and  C_5
REMARK    4  A    between atoms: C_16  and  C_17
REMARK    5  A    between atoms: C_16  and  C_18
REMARK    6  A    between atoms: N_19  and  C_20
REMARK    7  A    between atoms: C_20  and  C_21
REMARK                            x       y       z     vdW  Elec       q    Type
REMARK                         _______ _______ _______ _____ _____    ______ ____
ROOT
ATOM      1  C   UNL     1      -0.368  11.089  18.943  0.00  0.00    +0.000 C 
ATOM      2  C   UNL     1      -0.722  12.547  19.444  0.00  0.00    +0.000 C 
ATOM      3  C   UNL     1      -1.340  12.332  20.816  0.00  0.00    +0.000 A 
ATOM      4  C   UNL     1      -2.622  12.687  21.237  0.00  0.00    +0.000 A 
ATOM      5 BR   UNL     1      -3.836  13.624  20.131  0.00  0.00    +0.000 Br
ATOM      6  C   UNL     1      -3.034  12.322  22.520  0.00  0.00    +0.000 A 
ATOM      7  C   UNL     1      -2.171  11.623  23.372  0.00  0.00    +0.000 A 
ATOM      8  C   UNL     1      -0.880  11.274  22.959  0.00  0.00    +0.000 A 
ATOM      9  C   UNL     1      -0.471  11.622  21.678  0.00  0.00    +0.000 A 
ATOM     10  C   UNL     1       0.890  11.312  21.065  0.00  0.00    +0.000 C 
ATOM     11  C   UNL     1       1.509  12.677  20.663  0.00  0.00    +0.000 C 
ATOM     12  C   UNL     1       0.577  13.421  19.649  0.00  0.00    +0.000 C 
ATOM     13  C   UNL     1       0.222  14.826  20.200  0.00  0.00    +0.000 C 
ATOM     14  C   UNL     1       1.323  13.653  18.322  0.00  0.00    +0.000 C 
ATOM     15  N   UNL     1       0.772  10.539  19.800  0.00  0.00    +0.000 NA
ENDROOT
BRANCH   1  16
ATOM     16  C   UNL     1      -1.631  10.136  18.867  0.00  0.00    +0.000 C 
BRANCH  16  18
ATOM     17  C   UNL     1      -3.984  10.521  17.953  0.00  0.00    +0.000 C 
ATOM     18  C   UNL     1      -2.691  10.209  17.790  0.00  0.00    +0.000 C 
ATOM     19  C   UNL     1      -2.154   9.924  16.402  0.00  0.00    +0.000 C 
ENDBRANCH  16  18
ENDBRANCH   1  16
BRANCH  15  20
ATOM     20  C   UNL     1       0.714   9.089  19.991  0.00  0.00    +0.000 C 
BRANCH  20  21
ATOM     21  C   UNL     1       1.679   8.275  19.172  0.00  0.00    +0.000 A 
ATOM     22  C   UNL     1       2.225   8.765  17.933  0.00  0.00    +0.000 A 
ATOM     23  C   UNL     1       3.218   7.960  17.425  0.00  0.00    +0.000 A 
ATOM     24  S   UNL     1       3.478   6.583  18.401  0.00  0.00    +0.000 S 
ATOM     25  C   UNL     1       2.285   7.083  19.525  0.00  0.00    +0.000 A 
ENDBRANCH  20  21
ENDBRANCH  15  20
TORSDOF 4
ENDMDL
MODEL 4
REMARK VINA RESULT:      -5.7      2.117      4.413
REMARK  Name = 
REMARK  7 active torsions:
REMARK  status: ('A' for Active; 'I' for Inactive)
REMARK    1  A    between atoms: C_2  and  C_3
REMARK    2  A    between atoms: C_2  and  C_4
REMARK    3  A    between atoms: C_4  and  C_5
REMARK    4  A    between atoms: C_16  and  C_17
REMARK    5  A    between atoms: C_16  and  C_18
REMARK    6  A    between atoms: N_19  and  C_20
REMARK    7  A    between atoms: C_20  and  C_21
REMARK                            x       y       z     vdW  Elec       q    Type
REMARK                         _______ _______ _______ _____ _____    ______ ____
ROOT
ATOM      1  C   UNL     1      -1.487  10.470  19.640  0.00  0.00    +0.000 C 
ATOM      2  C   UNL     1      -0.056   9.884  19.974  0.00  0.00    +0.000 C 
ATOM      3  C   UNL     1       0.912  10.912  19.413  0.00  0.00    +0.000 A 
ATOM      4  C   UNL     1       1.887  10.720  18.435  0.00  0.00    +0.000 A 
ATOM      5 BR   UNL     1       2.241   9.028  17.667  0.00  0.00    +0.000 Br
ATOM      6  C   UNL     1       2.622  11.821  17.991  0.00  0.00    +0.000 A 
ATOM      7  C   UNL     1       2.391  13.093  18.527  0.00  0.00    +0.000 A 
ATOM      8  C   UNL     1       1.421  13.291  19.516  0.00  0.00    +0.000 A 
ATOM      9  C   UNL     1       0.677  12.200  19.951  0.00  0.00    +0.000 A 
ATOM     10  C   UNL     1      -0.421  12.239  21.007  0.00  0.00    +0.000 C 
ATOM     11  C   UNL     1       0.009  11.248  22.121  0.00  0.00    +0.000 C 
ATOM     12  C   UNL     1       0.191   9.810  21.532  0.00  0.00    +0.000 C 
ATOM     13  C   UNL     1       1.618   9.294  21.846  0.00  0.00    +0.000 C 
ATOM     14  C   UNL     1      -0.783   8.834  22.218  0.00  0.00    +0.000 C 
ATOM     15  N   UNL     1      -1.715  11.720  20.489  0.00  0.00    +0.000 NA
ENDROOT
BRANCH   1  16
ATOM     16  C   UNL     1      -1.717  10.697  18.088  0.00  0.00    +0.000 C 
BRANCH  16  18
ATOM     17  C   UNL     1      -3.846   9.330  17.752  0.00  0.00    +0.000 C 
ATOM     18  C   UNL     1      -2.802  10.023  17.279  0.00  0.00    +0.000 C 
ATOM     19  C   UNL     1      -2.648  10.227  15.785  0.00  0.00    +0.000 C 
ENDBRANCH  16  18
ENDBRANCH   1  16
BRANCH  15  20
ATOM     20  C   UNL     1      -2.543  12.732  19.831  0.00  0.00    +0.000 C 
BRANCH  20  21
ATOM     21  C   UNL     1      -3.997  12.753  20.221  0.00  0.00    +0.000 A 
ATOM     22  C   UNL     1      -5.037  12.394  19.292  0.00  0.00    +0.000 A 
ATOM     23  C   UNL     1      -6.277  12.302  19.879  0.00  0.00    +0.000 A 
ATOM     24  S   UNL     1      -6.220  12.689  21.542  0.00  0.00    +0.000 S 
ATOM     25  C   UNL     1      -4.527  12.945  21.484  0.00  0.00    +0.000 A 
ENDBRANCH  20  21
ENDBRANCH  15  20
TORSDOF 4
ENDMDL
MODEL 5
REMARK VINA RESULT:      -5.7      3.496      6.115
REMARK  Name = 
REMARK  7 active torsions:
REMARK  status: ('A' for Active; 'I' for Inactive)
REMARK    1  A    between atoms: C_2  and  C_3
REMARK    2  A    between atoms: C_2  and  C_4
REMARK    3  A    between atoms: C_4  and  C_5
REMARK    4  A    between atoms: C_16  and  C_17
REMARK    5  A    between atoms: C_16  and  C_18
REMARK    6  A    between atoms: N_19  and  C_20
REMARK    7  A    between atoms: C_20  and  C_21
REMARK                            x       y       z     vdW  Elec       q    Type
REMARK                         _______ _______ _______ _____ _____    ______ ____
ROOT
ATOM      1  C   UNL     1      -0.477  11.351  18.901  0.00  0.00    +0.000 C 
ATOM      2  C   UNL     1      -0.793  12.778  19.507  0.00  0.00    +0.000 C 
ATOM      3  C   UNL     1      -1.389  12.482  20.874  0.00  0.00    +0.000 A 
ATOM      4  C   UNL     1      -2.655  12.830  21.344  0.00  0.00    +0.000 A 
ATOM      5 BR   UNL     1      -3.872  13.862  20.329  0.00  0.00    +0.000 Br
ATOM      6  C   UNL     1      -3.050  12.387  22.608  0.00  0.00    +0.000 A 
ATOM      7  C   UNL     1      -2.184  11.616  23.393  0.00  0.00    +0.000 A 
ATOM      8  C   UNL     1      -0.908  11.272  22.930  0.00  0.00    +0.000 A 
ATOM      9  C   UNL     1      -0.518  11.699  21.668  0.00  0.00    +0.000 A 
ATOM     10  C   UNL     1       0.825  11.407  21.008  0.00  0.00    +0.000 C 
ATOM     11  C   UNL     1       1.463  12.785  20.686  0.00  0.00    +0.000 C 
ATOM     12  C   UNL     1       0.527  13.613  19.744  0.00  0.00    +0.000 C 
ATOM     13  C   UNL     1       0.210  14.983  20.396  0.00  0.00    +0.000 C 
ATOM     14  C   UNL     1       1.252  13.920  18.421  0.00  0.00    +0.000 C 
ATOM     15  N   UNL     1       0.668  10.724  19.696  0.00  0.00    +0.000 NA
ENDROOT
BRANCH   1  16
ATOM     16  C   UNL     1      -1.760  10.429  18.787  0.00  0.00    +0.000 C 
BRANCH  16  18
ATOM     17  C   UNL     1      -2.444   9.957  16.372  0.00  0.00    +0.000 C 
ATOM     18  C   UNL     1      -2.702  10.420  17.603  0.00  0.00    +0.000 C 
ATOM     19  C   UNL     1      -4.074  10.973  17.927  0.00  0.00    +0.000 C 
ENDBRANCH  16  18
ENDBRANCH   1  16
BRANCH  15  20
ATOM     20  C   UNL     1       0.585   9.265  19.790  0.00  0.00    +0.000 C 
BRANCH  20  21
ATOM     21  C   UNL     1       1.714   8.497  19.157  0.00  0.00    +0.000 A 
ATOM     22  C   UNL     1       2.211   7.271  19.726  0.00  0.00    +0.000 A 
ATOM     23  C   UNL     1       3.117   6.627  18.915  0.00  0.00    +0.000 A 
ATOM     24  S   UNL     1       3.418   7.505  17.482  0.00  0.00    +0.000 S 
ATOM     25  C   UNL     1       2.308   8.731  17.930  0.00  0.00    +0.000 A 
ENDBRANCH  20  21
ENDBRANCH  15  20
TORSDOF 4
ENDMDL
MODEL 6
REMARK VINA RESULT:      -5.7      3.356      6.027
REMARK  Name = 
REMARK  7 active torsions:
REMARK  status: ('A' for Active; 'I' for Inactive)
REMARK    1  A    between atoms: C_2  and  C_3
REMARK    2  A    between atoms: C_2  and  C_4
REMARK    3  A    between atoms: C_4  and  C_5
REMARK    4  A    between atoms: C_16  and  C_17
REMARK    5  A    between atoms: C_16  and  C_18
REMARK    6  A    between atoms: N_19  and  C_20
REMARK    7  A    between atoms: C_20  and  C_21
REMARK                            x       y       z     vdW  Elec       q    Type
REMARK                         _______ _______ _______ _____ _____    ______ ____
ROOT
ATOM      1  C   UNL     1      -0.983  12.411  18.705  0.00  0.00    +0.000 C 
ATOM      2  C   UNL     1      -0.945  13.482  19.868  0.00  0.00    +0.000 C 
ATOM      3  C   UNL     1      -1.186  12.674  21.132  0.00  0.00    +0.000 A 
ATOM      4  C   UNL     1      -2.226  12.818  22.050  0.00  0.00    +0.000 A 
ATOM      5 BR   UNL     1      -3.532  14.178  21.906  0.00  0.00    +0.000 Br
ATOM      6  C   UNL     1      -2.320  11.914  23.109  0.00  0.00    +0.000 A 
ATOM      7  C   UNL     1      -1.378  10.887  23.253  0.00  0.00    +0.000 A 
ATOM      8  C   UNL     1      -0.326  10.744  22.341  0.00  0.00    +0.000 A 
ATOM      9  C   UNL     1      -0.238  11.634  21.278  0.00  0.00    +0.000 A 
ATOM     10  C   UNL     1       0.832  11.616  20.192  0.00  0.00    +0.000 C 
ATOM     11  C   UNL     1       1.527  13.003  20.239  0.00  0.00    +0.000 C 
ATOM     12  C   UNL     1       0.483  14.144  20.001  0.00  0.00    +0.000 C 
ATOM     13  C   UNL     1       0.525  15.146  21.182  0.00  0.00    +0.000 C 
ATOM     14  C   UNL     1       0.859  14.945  18.740  0.00  0.00    +0.000 C 
ATOM     15  N   UNL     1       0.245  11.510  18.829  0.00  0.00    +0.000 NA
ENDROOT
BRANCH   1  16
ATOM     16  C   UNL     1      -2.355  11.620  18.636  0.00  0.00    +0.000 C 
BRANCH  16  18
ATOM     17  C   UNL     1      -2.752  11.032  16.184  0.00  0.00    +0.000 C 
ATOM     18  C   UNL     1      -3.181  11.454  17.380  0.00  0.00    +0.000 C 
ATOM     19  C   UNL     1      -4.647  11.781  17.582  0.00  0.00    +0.000 C 
ENDBRANCH  16  18
ENDBRANCH   1  16
BRANCH  15  20
ATOM     20  C   UNL     1       0.010  10.134  18.387  0.00  0.00    +0.000 C 
BRANCH  20  21
ATOM     21  C   UNL     1       1.157   9.177  18.567  0.00  0.00    +0.000 A 
ATOM     22  C   UNL     1       1.309   8.391  19.764  0.00  0.00    +0.000 A 
ATOM     23  C   UNL     1       2.310   7.452  19.670  0.00  0.00    +0.000 A 
ATOM     24  S   UNL     1       3.109   7.529  18.163  0.00  0.00    +0.000 S 
ATOM     25  C   UNL     1       2.093   8.797  17.622  0.00  0.00    +0.000 A 
ENDBRANCH  20  21
ENDBRANCH  15  20
TORSDOF 4
ENDMDL
MODEL 7
REMARK VINA RESULT:      -5.6      3.523      6.204
REMARK  Name = 
REMARK  7 active torsions:
REMARK  status: ('A' for Active; 'I' for Inactive)
REMARK    1  A    between atoms: C_2  and  C_3
REMARK    2  A    between atoms: C_2  and  C_4
REMARK    3  A    between atoms: C_4  and  C_5
REMARK    4  A    between atoms: C_16  and  C_17
REMARK    5  A    between atoms: C_16  and  C_18
REMARK    6  A    between atoms: N_19  and  C_20
REMARK    7  A    between atoms: C_20  and  C_21
REMARK                            x       y       z     vdW  Elec       q    Type
REMARK                         _______ _______ _______ _____ _____    ______ ____
ROOT
ATOM      1  C   UNL     1      -0.612  11.608  18.758  0.00  0.00    +0.000 C 
ATOM      2  C   UNL     1      -0.530  12.583  20.001  0.00  0.00    +0.000 C 
ATOM      3  C   UNL     1      -0.503  11.656  21.205  0.00  0.00    +0.000 A 
ATOM      4  C   UNL     1      -1.414  11.601  22.259  0.00  0.00    +0.000 A 
ATOM      5 BR   UNL     1      -2.869  12.800  22.413  0.00  0.00    +0.000 Br
ATOM      6  C   UNL     1      -1.260  10.612  23.233  0.00  0.00    +0.000 A 
ATOM      7  C   UNL     1      -0.201   9.699  23.157  0.00  0.00    +0.000 A 
ATOM      8  C   UNL     1       0.723   9.756  22.107  0.00  0.00    +0.000 A 
ATOM      9  C   UNL     1       0.564  10.730  21.129  0.00  0.00    +0.000 A 
ATOM     10  C   UNL     1       1.468  10.925  19.917  0.00  0.00    +0.000 C 
ATOM     11  C   UNL     1       2.007  12.378  20.004  0.00  0.00    +0.000 C 
ATOM     12  C   UNL     1       0.821  13.400  20.010  0.00  0.00    +0.000 C 
ATOM     13  C   UNL     1       0.918  14.305  21.264  0.00  0.00    +0.000 C 
ATOM     14  C   UNL     1       0.928  14.336  18.791  0.00  0.00    +0.000 C 
ATOM     15  N   UNL     1       0.712  10.855  18.638  0.00  0.00    +0.000 NA
ENDROOT
BRANCH   1  16
ATOM     16  C   UNL     1      -1.885  10.664  18.794  0.00  0.00    +0.000 C 
BRANCH  16  18
ATOM     17  C   UNL     1      -4.124  11.628  18.033  0.00  0.00    +0.000 C 
ATOM     18  C   UNL     1      -3.078  10.806  17.874  0.00  0.00    +0.000 C 
ATOM     19  C   UNL     1      -2.993   9.922  16.646  0.00  0.00    +0.000 C 
ENDBRANCH  16  18
ENDBRANCH   1  16
BRANCH  15  20
ATOM     20  C   UNL     1       0.570   9.500  18.103  0.00  0.00    +0.000 C 
BRANCH  20  21
ATOM     21  C   UNL     1       1.753   8.588  18.288  0.00  0.00    +0.000 A 
ATOM     22  C   UNL     1       1.804   7.615  19.349  0.00  0.00    +0.000 A 
ATOM     23  C   UNL     1       2.878   6.762  19.248  0.00  0.00    +0.000 A 
ATOM     24  S   UNL     1       3.864   7.143  17.907  0.00  0.00    +0.000 S 
ATOM     25  C   UNL     1       2.834   8.430  17.440  0.00  0.00    +0.000 A 
ENDBRANCH  20  21
ENDBRANCH  15  20
TORSDOF 4
ENDMDL
MODEL 8
REMARK VINA RESULT:      -5.6      1.556      1.826
REMARK  Name = 
REMARK  7 active torsions:
REMARK  status: ('A' for Active; 'I' for Inactive)
REMARK    1  A    between atoms: C_2  and  C_3
REMARK    2  A    between atoms: C_2  and  C_4
REMARK    3  A    between atoms: C_4  and  C_5
REMARK    4  A    between atoms: C_16  and  C_17
REMARK    5  A    between atoms: C_16  and  C_18
REMARK    6  A    between atoms: N_19  and  C_20
REMARK    7  A    between atoms: C_20  and  C_21
REMARK                            x       y       z     vdW  Elec       q    Type
REMARK                         _______ _______ _______ _____ _____    ______ ____
ROOT
ATOM      1  C   UNL     1      -0.278  11.851  21.463  0.00  0.00    +0.000 C 
ATOM      2  C   UNL     1       0.456  12.001  20.070  0.00  0.00    +0.000 C 
ATOM      3  C   UNL     1      -0.527  11.429  19.063  0.00  0.00    +0.000 A 
ATOM      4  C   UNL     1      -0.332  10.350  18.201  0.00  0.00    +0.000 A 
ATOM      5 BR   UNL     1       1.314   9.426  18.078  0.00  0.00    +0.000 Br
ATOM      6  C   UNL     1      -1.398   9.920  17.407  0.00  0.00    +0.000 A 
ATOM      7  C   UNL     1      -2.636  10.570  17.468  0.00  0.00    +0.000 A 
ATOM      8  C   UNL     1      -2.834  11.661  18.323  0.00  0.00    +0.000 A 
ATOM      9  C   UNL     1      -1.781  12.081  19.125  0.00  0.00    +0.000 A 
ATOM     10  C   UNL     1      -1.827  13.238  20.116  0.00  0.00    +0.000 C 
ATOM     11  C   UNL     1      -0.713  14.229  19.685  0.00  0.00    +0.000 C 
ATOM     12  C   UNL     1       0.682  13.518  19.693  0.00  0.00    +0.000 C 
ATOM     13  C   UNL     1       1.345  13.654  18.299  0.00  0.00    +0.000 C 
ATOM     14  C   UNL     1       1.622  14.219  20.691  0.00  0.00    +0.000 C 
ATOM     15  N   UNL     1      -1.468  12.810  21.495  0.00  0.00    +0.000 NA
ENDROOT
BRANCH   1  16
ATOM     16  C   UNL     1      -0.654  10.350  21.807  0.00  0.00    +0.000 C 
BRANCH  16  18
ATOM     17  C   UNL     1       1.106   8.511  21.612  0.00  0.00    +0.000 C 
ATOM     18  C   UNL     1       0.325   9.326  22.335  0.00  0.00    +0.000 C 
ATOM     19  C   UNL     1       0.407   9.300  23.847  0.00  0.00    +0.000 C 
ENDBRANCH  16  18
ENDBRANCH   1  16
BRANCH  15  20
ATOM     20  C   UNL     1      -2.600  12.313  22.278  0.00  0.00    +0.000 C 
BRANCH  20  21
ATOM     21  C   UNL     1      -3.883  13.089  22.153  0.00  0.00    +0.000 A 
ATOM     22  C   UNL     1      -3.995  14.450  22.611  0.00  0.00    +0.000 A 
ATOM     23  C   UNL     1      -5.182  15.045  22.251  0.00  0.00    +0.000 A 
ATOM     24  S   UNL     1      -6.196  13.968  21.399  0.00  0.00    +0.000 S 
ATOM     25  C   UNL     1      -5.032  12.714  21.480  0.00  0.00    +0.000 A 
ENDBRANCH  20  21
ENDBRANCH  15  20
TORSDOF 4
ENDMDL
MODEL 9
REMARK VINA RESULT:      -5.5      7.993     10.017
REMARK  Name = 
REMARK  7 active torsions:
REMARK  status: ('A' for Active; 'I' for Inactive)
REMARK    1  A    between atoms: C_2  and  C_3
REMARK    2  A    between atoms: C_2  and  C_4
REMARK    3  A    between atoms: C_4  and  C_5
REMARK    4  A    between atoms: C_16  and  C_17
REMARK    5  A    between atoms: C_16  and  C_18
REMARK    6  A    between atoms: N_19  and  C_20
REMARK    7  A    between atoms: C_20  and  C_21
REMARK                            x       y       z     vdW  Elec       q    Type
REMARK                         _______ _______ _______ _____ _____    ______ ____
ROOT
ATOM      1  C   UNL     1       9.892  13.636  21.574  0.00  0.00    +0.000 C 
ATOM      2  C   UNL     1      10.034  15.041  20.861  0.00  0.00    +0.000 C 
ATOM      3  C   UNL     1       8.846  15.104  19.915  0.00  0.00    +0.000 A 
ATOM      4  C   UNL     1       8.869  15.238  18.527  0.00  0.00    +0.000 A 
ATOM      5 BR   UNL     1      10.472  15.463  17.550  0.00  0.00    +0.000 Br
ATOM      6  C   UNL     1       7.663  15.187  17.825  0.00  0.00    +0.000 A 
ATOM      7  C   UNL     1       6.451  15.016  18.506  0.00  0.00    +0.000 A 
ATOM      8  C   UNL     1       6.421  14.892  19.900  0.00  0.00    +0.000 A 
ATOM      9  C   UNL     1       7.621  14.927  20.600  0.00  0.00    +0.000 A 
ATOM     10  C   UNL     1       7.770  14.796  22.111  0.00  0.00    +0.000 C 
ATOM     11  C   UNL     1       8.489  16.085  22.593  0.00  0.00    +0.000 C 
ATOM     12  C   UNL     1       9.878  16.231  21.887  0.00  0.00    +0.000 C 
ATOM     13  C   UNL     1       9.956  17.601  21.167  0.00  0.00    +0.000 C 
ATOM     14  C   UNL     1      11.004  16.229  22.937  0.00  0.00    +0.000 C 
ATOM     15  N   UNL     1       8.669  13.673  22.490  0.00  0.00    +0.000 NA
ENDROOT
BRANCH   1  16
ATOM     16  C   UNL     1       9.895  12.421  20.556  0.00  0.00    +0.000 C 
BRANCH  16  18
ATOM     17  C   UNL     1      12.332  12.184  19.833  0.00  0.00    +0.000 C 
ATOM     18  C   UNL     1      11.017  12.125  19.585  0.00  0.00    +0.000 C 
ATOM     19  C   UNL     1      10.526  11.686  18.221  0.00  0.00    +0.000 C 
ENDBRANCH  16  18
ENDBRANCH   1  16
BRANCH  15  20
ATOM     20  C   UNL     1       7.990  12.382  22.613  0.00  0.00    +0.000 C 
BRANCH  20  21
ATOM     21  C   UNL     1       7.439  12.052  23.974  0.00  0.00    +0.000 A 
ATOM     22  C   UNL     1       8.119  12.438  25.183  0.00  0.00    +0.000 A 
ATOM     23  C   UNL     1       7.377  12.206  26.318  0.00  0.00    +0.000 A 
ATOM     24  S   UNL     1       5.874  11.482  25.953  0.00  0.00    +0.000 S 
ATOM     25  C   UNL     1       6.201  11.510  24.272  0.00  0.00    +0.000 A 
ENDBRANCH  20  21
ENDBRANCH  15  20
TORSDOF 4
ENDMDL
