MODEL 1
REMARK VINA RESULT:      -7.7      0.000      0.000
REMARK  Name = 
REMARK  9 active torsions:
REMARK  status: ('A' for Active; 'I' for Inactive)
REMARK    1  A    between atoms: C_1  and  C_2
REMARK    2  A    between atoms: C_4  and  C_5
REMARK    3  A    between atoms: C_7  and  N_8
REMARK    4  A    between atoms: C_9  and  S_10
REMARK    5  A    between atoms: S_10  and  C_13
REMARK    6  A    between atoms: C_16  and  C_17
REMARK    7  A    between atoms: C_17  and  C_18
REMARK    8  A    between atoms: C_17  and  C_19
REMARK    9  A    between atoms: C_17  and  C_20
REMARK                            x       y       z     vdW  Elec       q    Type
REMARK                         _______ _______ _______ _____ _____    ______ ____
ROOT
ATOM      1  C   UNL     1      -6.793  12.812  18.639  0.00  0.00    +0.000 C 
ATOM      2  C   UNL     1      -5.417  12.263  18.401  0.00  0.00    +0.000 A 
ATOM      3  C   UNL     1      -5.128  11.576  17.229  0.00  0.00    +0.000 A 
ATOM      4  C   UNL     1      -3.842  11.055  17.007  0.00  0.00    +0.000 A 
ATOM      5  C   UNL     1      -3.575  10.328  15.718  0.00  0.00    +0.000 C 
ATOM      6  C   UNL     1      -2.872  11.260  18.030  0.00  0.00    +0.000 A 
ATOM      7  C   UNL     1      -1.489  10.882  18.193  0.00  0.00    +0.000 A 
ATOM      8  C   UNL     1      -0.938  11.333  19.378  0.00  0.00    +0.000 A 
ATOM      9  S   UNL     1      -2.070  12.212  20.302  0.00  0.00    +0.000 S 
ATOM     10  C   UNL     1      -3.293  11.977  19.147  0.00  0.00    +0.000 A 
ATOM     11  N   UNL     1      -4.519  12.485  19.377  0.00  0.00    +0.000 NA
ENDROOT
BRANCH   7  12
ATOM     12  N   UNL     1      -0.781  10.163  17.285  0.00  0.00    +0.000 N 
ATOM     13  H   UNL     1       0.213   9.992  17.395  0.00  0.00    +0.000 HD
ATOM     14  H   UNL     1      -1.049  10.185  16.296  0.00  0.00    +0.000 HD
ENDBRANCH   7  12
BRANCH   8  15
ATOM     15  S   UNL     1       0.686  11.200  20.077  0.00  0.00    +0.000 S 
ATOM     16  O   UNL     1       1.564  12.018  19.266  0.00  0.00    +0.000 OA
ATOM     17  O   UNL     1       0.514  11.471  21.497  0.00  0.00    +0.000 OA
BRANCH  15  18
ATOM     18  C   UNL     1       1.168   9.500  19.918  0.00  0.00    +0.000 A 
ATOM     19  C   UNL     1       1.809   9.073  18.760  0.00  0.00    +0.000 A 
ATOM     20  C   UNL     1       2.271   7.757  18.672  0.00  0.00    +0.000 A 
ATOM     21  C   UNL     1       2.109   6.838  19.727  0.00  0.00    +0.000 A 
ATOM     22  C   UNL     1       1.439   7.295  20.879  0.00  0.00    +0.000 A 
ATOM     23  C   UNL     1       0.973   8.615  20.979  0.00  0.00    +0.000 A 
BRANCH  21  24
ATOM     24  C   UNL     1       2.661   5.398  19.647  0.00  0.00    +0.000 C 
ATOM     25  C   UNL     1       2.340   4.568  20.911  0.00  0.00    +0.000 C 
ATOM     26  C   UNL     1       2.048   4.654  18.440  0.00  0.00    +0.000 C 
ATOM     27  C   UNL     1       4.195   5.406  19.486  0.00  0.00    +0.000 C 
ENDBRANCH  21  24
ENDBRANCH  15  18
ENDBRANCH   8  15
TORSDOF 4
ENDMDL
MODEL 2
REMARK VINA RESULT:      -7.7      1.142      1.568
REMARK  Name = 
REMARK  9 active torsions:
REMARK  status: ('A' for Active; 'I' for Inactive)
REMARK    1  A    between atoms: C_1  and  C_2
REMARK    2  A    between atoms: C_4  and  C_5
REMARK    3  A    between atoms: C_7  and  N_8
REMARK    4  A    between atoms: C_9  and  S_10
REMARK    5  A    between atoms: S_10  and  C_13
REMARK    6  A    between atoms: C_16  and  C_17
REMARK    7  A    between atoms: C_17  and  C_18
REMARK    8  A    between atoms: C_17  and  C_19
REMARK    9  A    between atoms: C_17  and  C_20
REMARK                            x       y       z     vdW  Elec       q    Type
REMARK                         _______ _______ _______ _____ _____    ______ ____
ROOT
ATOM      1  C   UNL     1      -6.406  12.977  21.557  0.00  0.00    +0.000 C 
ATOM      2  C   UNL     1      -5.235  12.617  20.690  0.00  0.00    +0.000 A 
ATOM      3  C   UNL     1      -5.430  12.259  19.362  0.00  0.00    +0.000 A 
ATOM      4  C   UNL     1      -4.336  11.915  18.548  0.00  0.00    +0.000 A 
ATOM      5  C   UNL     1      -4.596  11.546  17.115  0.00  0.00    +0.000 C 
ATOM      6  C   UNL     1      -3.045  11.946  19.149  0.00  0.00    +0.000 A 
ATOM      7  C   UNL     1      -1.712  11.654  18.679  0.00  0.00    +0.000 A 
ATOM      8  C   UNL     1      -0.741  11.849  19.645  0.00  0.00    +0.000 A 
ATOM      9  S   UNL     1      -1.417  12.384  21.117  0.00  0.00    +0.000 S 
ATOM     10  C   UNL     1      -2.993  12.334  20.485  0.00  0.00    +0.000 A 
ATOM     11  N   UNL     1      -4.029  12.669  21.279  0.00  0.00    +0.000 NA
ENDROOT
BRANCH   7  12
ATOM     12  N   UNL     1      -1.418  11.236  17.423  0.00  0.00    +0.000 N 
ATOM     13  H   UNL     1      -1.825  11.676  16.604  0.00  0.00    +0.000 HD
ATOM     14  H   UNL     1      -1.208  10.248  17.250  0.00  0.00    +0.000 HD
ENDBRANCH   7  12
BRANCH   8  15
ATOM     15  S   UNL     1       1.024  11.685  19.625  0.00  0.00    +0.000 S 
ATOM     16  O   UNL     1       1.497  12.339  18.423  0.00  0.00    +0.000 OA
ATOM     17  O   UNL     1       1.464  12.131  20.940  0.00  0.00    +0.000 OA
BRANCH  15  18
ATOM     18  C   UNL     1       1.370   9.949  19.514  0.00  0.00    +0.000 A 
ATOM     19  C   UNL     1       1.910   9.430  18.343  0.00  0.00    +0.000 A 
ATOM     20  C   UNL     1       2.268   8.079  18.286  0.00  0.00    +0.000 A 
ATOM     21  C   UNL     1       2.101   7.218  19.387  0.00  0.00    +0.000 A 
ATOM     22  C   UNL     1       1.534   7.769  20.554  0.00  0.00    +0.000 A 
ATOM     23  C   UNL     1       1.173   9.123  20.622  0.00  0.00    +0.000 A 
BRANCH  21  24
ATOM     24  C   UNL     1       2.540   5.739  19.340  0.00  0.00    +0.000 C 
ATOM     25  C   UNL     1       4.076   5.572  19.396  0.00  0.00    +0.000 C 
ATOM     26  C   UNL     1       1.949   4.963  20.537  0.00  0.00    +0.000 C 
ATOM     27  C   UNL     1       2.058   5.064  18.038  0.00  0.00    +0.000 C 
ENDBRANCH  21  24
ENDBRANCH  15  18
ENDBRANCH   8  15
TORSDOF 4
ENDMDL
MODEL 3
REMARK VINA RESULT:      -7.6      0.299      1.283
REMARK  Name = 
REMARK  9 active torsions:
REMARK  status: ('A' for Active; 'I' for Inactive)
REMARK    1  A    between atoms: C_1  and  C_2
REMARK    2  A    between atoms: C_4  and  C_5
REMARK    3  A    between atoms: C_7  and  N_8
REMARK    4  A    between atoms: C_9  and  S_10
REMARK    5  A    between atoms: S_10  and  C_13
REMARK    6  A    between atoms: C_16  and  C_17
REMARK    7  A    between atoms: C_17  and  C_18
REMARK    8  A    between atoms: C_17  and  C_19
REMARK    9  A    between atoms: C_17  and  C_20
REMARK                            x       y       z     vdW  Elec       q    Type
REMARK                         _______ _______ _______ _____ _____    ______ ____
ROOT
ATOM      1  C   UNL     1      -6.720  12.558  18.199  0.00  0.00    +0.000 C 
ATOM      2  C   UNL     1      -5.319  12.035  18.075  0.00  0.00    +0.000 A 
ATOM      3  C   UNL     1      -4.945  11.288  16.965  0.00  0.00    +0.000 A 
ATOM      4  C   UNL     1      -3.635  10.791  16.850  0.00  0.00    +0.000 A 
ATOM      5  C   UNL     1      -3.274   9.997  15.625  0.00  0.00    +0.000 C 
ATOM      6  C   UNL     1      -2.733  11.083  17.913  0.00  0.00    +0.000 A 
ATOM      7  C   UNL     1      -1.353  10.753  18.178  0.00  0.00    +0.000 A 
ATOM      8  C   UNL     1      -0.885  11.288  19.365  0.00  0.00    +0.000 A 
ATOM      9  S   UNL     1      -2.091  12.189  20.167  0.00  0.00    +0.000 S 
ATOM     10  C   UNL     1      -3.237  11.852  18.959  0.00  0.00    +0.000 A 
ATOM     11  N   UNL     1      -4.487  12.338  19.086  0.00  0.00    +0.000 NA
ENDROOT
BRANCH   7  12
ATOM     12  N   UNL     1      -0.575  10.002  17.359  0.00  0.00    +0.000 N 
ATOM     13  H   UNL     1      -0.742   9.952  16.359  0.00  0.00    +0.000 HD
ATOM     14  H   UNL     1      -0.151   9.137  17.710  0.00  0.00    +0.000 HD
ENDBRANCH   7  12
BRANCH   8  15
ATOM     15  S   UNL     1       0.697  11.242  20.163  0.00  0.00    +0.000 S 
ATOM     16  O   UNL     1       1.569  12.135  19.428  0.00  0.00    +0.000 OA
ATOM     17  O   UNL     1       0.419  11.464  21.575  0.00  0.00    +0.000 OA
BRANCH  15  18
ATOM     18  C   UNL     1       1.299   9.581  19.999  0.00  0.00    +0.000 A 
ATOM     19  C   UNL     1       1.088   8.669  21.027  0.00  0.00    +0.000 A 
ATOM     20  C   UNL     1       1.479   7.337  20.860  0.00  0.00    +0.000 A 
ATOM     21  C   UNL     1       2.084   6.882  19.673  0.00  0.00    +0.000 A 
ATOM     22  C   UNL     1       2.301   7.834  18.656  0.00  0.00    +0.000 A 
ATOM     23  C   UNL     1       1.911   9.173  18.812  0.00  0.00    +0.000 A 
BRANCH  21  24
ATOM     24  C   UNL     1       2.474   5.402  19.472  0.00  0.00    +0.000 C 
ATOM     25  C   UNL     1       4.001   5.171  19.564  0.00  0.00    +0.000 C 
ATOM     26  C   UNL     1       1.810   4.519  20.551  0.00  0.00    +0.000 C 
ATOM     27  C   UNL     1       2.022   4.898  18.085  0.00  0.00    +0.000 C 
ENDBRANCH  21  24
ENDBRANCH  15  18
ENDBRANCH   8  15
TORSDOF 4
ENDMDL
MODEL 4
REMARK VINA RESULT:      -7.4      1.499      2.483
REMARK  Name = 
REMARK  9 active torsions:
REMARK  status: ('A' for Active; 'I' for Inactive)
REMARK    1  A    between atoms: C_1  and  C_2
REMARK    2  A    between atoms: C_4  and  C_5
REMARK    3  A    between atoms: C_7  and  N_8
REMARK    4  A    between atoms: C_9  and  S_10
REMARK    5  A    between atoms: S_10  and  C_13
REMARK    6  A    between atoms: C_16  and  C_17
REMARK    7  A    between atoms: C_17  and  C_18
REMARK    8  A    between atoms: C_17  and  C_19
REMARK    9  A    between atoms: C_17  and  C_20
REMARK                            x       y       z     vdW  Elec       q    Type
REMARK                         _______ _______ _______ _____ _____    ______ ____
ROOT
ATOM      1  C   UNL     1      -6.513  11.957  17.809  0.00  0.00    +0.000 C 
ATOM      2  C   UNL     1      -5.280  12.095  18.654  0.00  0.00    +0.000 A 
ATOM      3  C   UNL     1      -5.374  12.540  19.966  0.00  0.00    +0.000 A 
ATOM      4  C   UNL     1      -4.220  12.676  20.757  0.00  0.00    +0.000 A 
ATOM      5  C   UNL     1      -4.375  13.151  22.175  0.00  0.00    +0.000 C 
ATOM      6  C   UNL     1      -2.974  12.346  20.151  0.00  0.00    +0.000 A 
ATOM      7  C   UNL     1      -1.602  12.367  20.600  0.00  0.00    +0.000 A 
ATOM      8  C   UNL     1      -0.710  11.930  19.638  0.00  0.00    +0.000 A 
ATOM      9  S   UNL     1      -1.506  11.492  18.194  0.00  0.00    +0.000 S 
ATOM     10  C   UNL     1      -3.026  11.901  18.832  0.00  0.00    +0.000 A 
ATOM     11  N   UNL     1      -4.121  11.762  18.060  0.00  0.00    +0.000 NA
ENDROOT
BRANCH   7  12
ATOM     12  N   UNL     1      -1.208  12.764  21.836  0.00  0.00    +0.000 N 
ATOM     13  H   UNL     1      -1.725  13.457  22.365  0.00  0.00    +0.000 HD
ATOM     14  H   UNL     1      -0.211  12.781  22.072  0.00  0.00    +0.000 HD
ENDBRANCH   7  12
BRANCH   8  15
ATOM     15  S   UNL     1       1.050  11.715  19.640  0.00  0.00    +0.000 S 
ATOM     16  O   UNL     1       1.558  12.364  18.449  0.00  0.00    +0.000 OA
ATOM     17  O   UNL     1       1.484  12.138  20.964  0.00  0.00    +0.000 OA
BRANCH  15  18
ATOM     18  C   UNL     1       1.347   9.970  19.519  0.00  0.00    +0.000 A 
ATOM     19  C   UNL     1       1.805   9.433  18.321  0.00  0.00    +0.000 A 
ATOM     20  C   UNL     1       2.127   8.074  18.252  0.00  0.00    +0.000 A 
ATOM     21  C   UNL     1       2.004   7.222  19.366  0.00  0.00    +0.000 A 
ATOM     22  C   UNL     1       1.520   7.792  20.561  0.00  0.00    +0.000 A 
ATOM     23  C   UNL     1       1.195   9.155  20.642  0.00  0.00    +0.000 A 
BRANCH  21  24
ATOM     24  C   UNL     1       2.403   5.732  19.302  0.00  0.00    +0.000 C 
ATOM     25  C   UNL     1       1.996   5.064  17.967  0.00  0.00    +0.000 C 
ATOM     26  C   UNL     1       3.933   5.578  19.445  0.00  0.00    +0.000 C 
ATOM     27  C   UNL     1       1.726   4.932  20.434  0.00  0.00    +0.000 C 
ENDBRANCH  21  24
ENDBRANCH  15  18
ENDBRANCH   8  15
TORSDOF 4
ENDMDL
MODEL 5
REMARK VINA RESULT:      -7.3      5.880      9.051
REMARK  Name = 
REMARK  9 active torsions:
REMARK  status: ('A' for Active; 'I' for Inactive)
REMARK    1  A    between atoms: C_1  and  C_2
REMARK    2  A    between atoms: C_4  and  C_5
REMARK    3  A    between atoms: C_7  and  N_8
REMARK    4  A    between atoms: C_9  and  S_10
REMARK    5  A    between atoms: S_10  and  C_13
REMARK    6  A    between atoms: C_16  and  C_17
REMARK    7  A    between atoms: C_17  and  C_18
REMARK    8  A    between atoms: C_17  and  C_19
REMARK    9  A    between atoms: C_17  and  C_20
REMARK                            x       y       z     vdW  Elec       q    Type
REMARK                         _______ _______ _______ _____ _____    ______ ____
ROOT
ATOM      1  C   UNL     1       0.332   7.377  20.881  0.00  0.00    +0.000 C 
ATOM      2  C   UNL     1       1.482   6.495  20.491  0.00  0.00    +0.000 A 
ATOM      3  C   UNL     1       1.528   5.173  20.915  0.00  0.00    +0.000 A 
ATOM      4  C   UNL     1       2.607   4.346  20.556  0.00  0.00    +0.000 A 
ATOM      5  C   UNL     1       2.607   2.920  21.031  0.00  0.00    +0.000 C 
ATOM      6  C   UNL     1       3.632   4.928  19.756  0.00  0.00    +0.000 A 
ATOM      7  C   UNL     1       4.876   4.440  19.207  0.00  0.00    +0.000 A 
ATOM      8  C   UNL     1       5.548   5.390  18.459  0.00  0.00    +0.000 A 
ATOM      9  S   UNL     1       4.697   6.867  18.406  0.00  0.00    +0.000 S 
ATOM     10  C   UNL     1       3.453   6.259  19.391  0.00  0.00    +0.000 A 
ATOM     11  N   UNL     1       2.426   7.066  19.723  0.00  0.00    +0.000 NA
ENDROOT
BRANCH   7  12
ATOM     12  N   UNL     1       5.351   3.183  19.390  0.00  0.00    +0.000 N 
ATOM     13  H   UNL     1       5.444   2.529  18.620  0.00  0.00    +0.000 HD
ATOM     14  H   UNL     1       5.177   2.695  20.275  0.00  0.00    +0.000 HD
ENDBRANCH   7  12
BRANCH   8  15
ATOM     15  S   UNL     1       7.066   5.345  17.544  0.00  0.00    +0.000 S 
ATOM     16  O   UNL     1       7.574   6.700  17.500  0.00  0.00    +0.000 OA
ATOM     17  O   UNL     1       7.845   4.275  18.150  0.00  0.00    +0.000 OA
BRANCH  15  18
ATOM     18  C   UNL     1       6.650   4.828  15.899  0.00  0.00    +0.000 A 
ATOM     19  C   UNL     1       7.508   5.130  14.847  0.00  0.00    +0.000 A 
ATOM     20  C   UNL     1       7.228   4.644  13.566  0.00  0.00    +0.000 A 
ATOM     21  C   UNL     1       6.095   3.850  13.302  0.00  0.00    +0.000 A 
ATOM     22  C   UNL     1       5.235   3.577  14.385  0.00  0.00    +0.000 A 
ATOM     23  C   UNL     1       5.508   4.058  15.675  0.00  0.00    +0.000 A 
BRANCH  21  24
ATOM     24  C   UNL     1       5.811   3.275  11.898  0.00  0.00    +0.000 C 
ATOM     25  C   UNL     1       4.322   3.391  11.498  0.00  0.00    +0.000 C 
ATOM     26  C   UNL     1       6.634   4.030  10.831  0.00  0.00    +0.000 C 
ATOM     27  C   UNL     1       6.184   1.780  11.830  0.00  0.00    +0.000 C 
ENDBRANCH  21  24
ENDBRANCH  15  18
ENDBRANCH   8  15
TORSDOF 4
ENDMDL
MODEL 6
REMARK VINA RESULT:      -7.2      6.420      9.388
REMARK  Name = 
REMARK  9 active torsions:
REMARK  status: ('A' for Active; 'I' for Inactive)
REMARK    1  A    between atoms: C_1  and  C_2
REMARK    2  A    between atoms: C_4  and  C_5
REMARK    3  A    between atoms: C_7  and  N_8
REMARK    4  A    between atoms: C_9  and  S_10
REMARK    5  A    between atoms: S_10  and  C_13
REMARK    6  A    between atoms: C_16  and  C_17
REMARK    7  A    between atoms: C_17  and  C_18
REMARK    8  A    between atoms: C_17  and  C_19
REMARK    9  A    between atoms: C_17  and  C_20
REMARK                            x       y       z     vdW  Elec       q    Type
REMARK                         _______ _______ _______ _____ _____    ______ ____
ROOT
ATOM      1  C   UNL     1       1.128   2.613  21.751  0.00  0.00    +0.000 C 
ATOM      2  C   UNL     1       1.937   3.596  20.957  0.00  0.00    +0.000 A 
ATOM      3  C   UNL     1       1.467   4.887  20.749  0.00  0.00    +0.000 A 
ATOM      4  C   UNL     1       2.221   5.808  20.000  0.00  0.00    +0.000 A 
ATOM      5  C   UNL     1       1.676   7.196  19.812  0.00  0.00    +0.000 C 
ATOM      6  C   UNL     1       3.462   5.353  19.470  0.00  0.00    +0.000 A 
ATOM      7  C   UNL     1       4.491   5.959  18.659  0.00  0.00    +0.000 A 
ATOM      8  C   UNL     1       5.552   5.110  18.403  0.00  0.00    +0.000 A 
ATOM      9  S   UNL     1       5.327   3.585  19.132  0.00  0.00    +0.000 S 
ATOM     10  C   UNL     1       3.817   4.039  19.765  0.00  0.00    +0.000 A 
ATOM     11  N   UNL     1       3.110   3.144  20.482  0.00  0.00    +0.000 NA
ENDROOT
BRANCH   7  12
ATOM     12  N   UNL     1       4.443   7.231  18.190  0.00  0.00    +0.000 N 
ATOM     13  H   UNL     1       4.541   8.033  18.805  0.00  0.00    +0.000 HD
ATOM     14  H   UNL     1       3.860   7.454  17.377  0.00  0.00    +0.000 HD
ENDBRANCH   7  12
BRANCH   8  15
ATOM     15  S   UNL     1       7.072   5.320  17.514  0.00  0.00    +0.000 S 
ATOM     16  O   UNL     1       7.315   6.744  17.421  0.00  0.00    +0.000 OA
ATOM     17  O   UNL     1       8.026   4.441  18.177  0.00  0.00    +0.000 OA
BRANCH  15  18
ATOM     18  C   UNL     1       6.799   4.671  15.886  0.00  0.00    +0.000 A 
ATOM     19  C   UNL     1       5.800   3.726  15.681  0.00  0.00    +0.000 A 
ATOM     20  C   UNL     1       5.524   3.283  14.384  0.00  0.00    +0.000 A 
ATOM     21  C   UNL     1       6.229   3.768  13.266  0.00  0.00    +0.000 A 
ATOM     22  C   UNL     1       7.248   4.711  13.508  0.00  0.00    +0.000 A 
ATOM     23  C   UNL     1       7.532   5.164  14.805  0.00  0.00    +0.000 A 
BRANCH  21  24
ATOM     24  C   UNL     1       5.892   3.313  11.829  0.00  0.00    +0.000 C 
ATOM     25  C   UNL     1       6.132   1.801  11.613  0.00  0.00    +0.000 C 
ATOM     26  C   UNL     1       4.407   3.593  11.510  0.00  0.00    +0.000 C 
ATOM     27  C   UNL     1       6.761   4.062  10.798  0.00  0.00    +0.000 C 
ENDBRANCH  21  24
ENDBRANCH  15  18
ENDBRANCH   8  15
TORSDOF 4
ENDMDL
MODEL 7
REMARK VINA RESULT:      -7.2      3.940      5.713
REMARK  Name = 
REMARK  9 active torsions:
REMARK  status: ('A' for Active; 'I' for Inactive)
REMARK    1  A    between atoms: C_1  and  C_2
REMARK    2  A    between atoms: C_4  and  C_5
REMARK    3  A    between atoms: C_7  and  N_8
REMARK    4  A    between atoms: C_9  and  S_10
REMARK    5  A    between atoms: S_10  and  C_13
REMARK    6  A    between atoms: C_16  and  C_17
REMARK    7  A    between atoms: C_17  and  C_18
REMARK    8  A    between atoms: C_17  and  C_19
REMARK    9  A    between atoms: C_17  and  C_20
REMARK                            x       y       z     vdW  Elec       q    Type
REMARK                         _______ _______ _______ _____ _____    ______ ____
ROOT
ATOM      1  C   UNL     1       4.203  16.641  22.448  0.00  0.00    +0.000 C 
ATOM      2  C   UNL     1       3.720  15.686  21.395  0.00  0.00    +0.000 A 
ATOM      3  C   UNL     1       4.197  15.776  20.094  0.00  0.00    +0.000 A 
ATOM      4  C   UNL     1       3.740  14.887  19.105  0.00  0.00    +0.000 A 
ATOM      5  C   UNL     1       4.294  15.017  17.713  0.00  0.00    +0.000 C 
ATOM      6  C   UNL     1       2.778  13.914  19.500  0.00  0.00    +0.000 A 
ATOM      7  C   UNL     1       2.067  12.866  18.807  0.00  0.00    +0.000 A 
ATOM      8  C   UNL     1       1.223  12.145  19.633  0.00  0.00    +0.000 A 
ATOM      9  S   UNL     1       1.277  12.715  21.239  0.00  0.00    +0.000 S 
ATOM     10  C   UNL     1       2.396  13.929  20.839  0.00  0.00    +0.000 A 
ATOM     11  N   UNL     1       2.824  14.770  21.800  0.00  0.00    +0.000 NA
ENDROOT
BRANCH   7  12
ATOM     12  N   UNL     1       2.203  12.594  17.485  0.00  0.00    +0.000 N 
ATOM     13  H   UNL     1       1.444  12.738  16.828  0.00  0.00    +0.000 HD
ATOM     14  H   UNL     1       2.821  11.834  17.181  0.00  0.00    +0.000 HD
ENDBRANCH   7  12
BRANCH   8  15
ATOM     15  S   UNL     1       0.157  10.758  19.345  0.00  0.00    +0.000 S 
ATOM     16  O   UNL     1      -0.593  10.540  20.565  0.00  0.00    +0.000 OA
ATOM     17  O   UNL     1      -0.525  11.054  18.093  0.00  0.00    +0.000 OA
BRANCH  15  18
ATOM     18  C   UNL     1       1.210   9.360  19.055  0.00  0.00    +0.000 A 
ATOM     19  C   UNL     1       1.405   8.426  20.066  0.00  0.00    +0.000 A 
ATOM     20  C   UNL     1       2.160   7.278  19.809  0.00  0.00    +0.000 A 
ATOM     21  C   UNL     1       2.734   7.031  18.547  0.00  0.00    +0.000 A 
ATOM     22  C   UNL     1       2.534   8.006  17.549  0.00  0.00    +0.000 A 
ATOM     23  C   UNL     1       1.777   9.161  17.795  0.00  0.00    +0.000 A 
BRANCH  21  24
ATOM     24  C   UNL     1       3.528   5.741  18.251  0.00  0.00    +0.000 C 
ATOM     25  C   UNL     1       4.464   5.887  17.028  0.00  0.00    +0.000 C 
ATOM     26  C   UNL     1       4.409   5.361  19.461  0.00  0.00    +0.000 C 
ATOM     27  C   UNL     1       2.575   4.564  17.955  0.00  0.00    +0.000 C 
ENDBRANCH  21  24
ENDBRANCH  15  18
ENDBRANCH   8  15
TORSDOF 4
ENDMDL
MODEL 8
REMARK VINA RESULT:      -7.2      5.886      9.123
REMARK  Name = 
REMARK  9 active torsions:
REMARK  status: ('A' for Active; 'I' for Inactive)
REMARK    1  A    between atoms: C_1  and  C_2
REMARK    2  A    between atoms: C_4  and  C_5
REMARK    3  A    between atoms: C_7  and  N_8
REMARK    4  A    between atoms: C_9  and  S_10
REMARK    5  A    between atoms: S_10  and  C_13
REMARK    6  A    between atoms: C_16  and  C_17
REMARK    7  A    between atoms: C_17  and  C_18
REMARK    8  A    between atoms: C_17  and  C_19
REMARK    9  A    between atoms: C_17  and  C_20
REMARK                            x       y       z     vdW  Elec       q    Type
REMARK                         _______ _______ _______ _____ _____    ______ ____
ROOT
ATOM      1  C   UNL     1       0.306   7.177  20.824  0.00  0.00    +0.000 C 
ATOM      2  C   UNL     1       1.473   6.321  20.429  0.00  0.00    +0.000 A 
ATOM      3  C   UNL     1       1.525   4.986  20.806  0.00  0.00    +0.000 A 
ATOM      4  C   UNL     1       2.621   4.183  20.442  0.00  0.00    +0.000 A 
ATOM      5  C   UNL     1       2.625   2.741  20.865  0.00  0.00    +0.000 C 
ATOM      6  C   UNL     1       3.657   4.804  19.688  0.00  0.00    +0.000 A 
ATOM      7  C   UNL     1       4.918   4.350  19.151  0.00  0.00    +0.000 A 
ATOM      8  C   UNL     1       5.597   5.332  18.454  0.00  0.00    +0.000 A 
ATOM      9  S   UNL     1       4.732   6.802  18.435  0.00  0.00    +0.000 S 
ATOM     10  C   UNL     1       3.472   6.146  19.368  0.00  0.00    +0.000 A 
ATOM     11  N   UNL     1       2.429   6.930  19.705  0.00  0.00    +0.000 NA
ENDROOT
BRANCH   7  12
ATOM     12  N   UNL     1       5.403   3.091  19.299  0.00  0.00    +0.000 N 
ATOM     13  H   UNL     1       6.359   2.916  19.588  0.00  0.00    +0.000 HD
ATOM     14  H   UNL     1       5.048   2.335  18.704  0.00  0.00    +0.000 HD
ENDBRANCH   7  12
BRANCH   8  15
ATOM     15  S   UNL     1       7.136   5.336  17.574  0.00  0.00    +0.000 S 
ATOM     16  O   UNL     1       7.548   6.719  17.447  0.00  0.00    +0.000 OA
ATOM     17  O   UNL     1       7.975   4.368  18.268  0.00  0.00    +0.000 OA
BRANCH  15  18
ATOM     18  C   UNL     1       6.798   4.682  15.960  0.00  0.00    +0.000 A 
ATOM     19  C   UNL     1       5.674   3.888  15.763  0.00  0.00    +0.000 A 
ATOM     20  C   UNL     1       5.357   3.448  14.474  0.00  0.00    +0.000 A 
ATOM     21  C   UNL     1       6.144   3.787  13.357  0.00  0.00    +0.000 A 
ATOM     22  C   UNL     1       7.287   4.577  13.592  0.00  0.00    +0.000 A 
ATOM     23  C   UNL     1       7.614   5.025  14.881  0.00  0.00    +0.000 A 
BRANCH  21  24
ATOM     24  C   UNL     1       5.768   3.339  11.928  0.00  0.00    +0.000 C 
ATOM     25  C   UNL     1       6.093   1.851  11.666  0.00  0.00    +0.000 C 
ATOM     26  C   UNL     1       4.255   3.529  11.685  0.00  0.00    +0.000 C 
ATOM     27  C   UNL     1       6.536   4.164  10.874  0.00  0.00    +0.000 C 
ENDBRANCH  21  24
ENDBRANCH  15  18
ENDBRANCH   8  15
TORSDOF 4
ENDMDL
MODEL 9
REMARK VINA RESULT:      -7.1      3.622      5.349
REMARK  Name = 
REMARK  9 active torsions:
REMARK  status: ('A' for Active; 'I' for Inactive)
REMARK    1  A    between atoms: C_1  and  C_2
REMARK    2  A    between atoms: C_4  and  C_5
REMARK    3  A    between atoms: C_7  and  N_8
REMARK    4  A    between atoms: C_9  and  S_10
REMARK    5  A    between atoms: S_10  and  C_13
REMARK    6  A    between atoms: C_16  and  C_17
REMARK    7  A    between atoms: C_17  and  C_18
REMARK    8  A    between atoms: C_17  and  C_19
REMARK    9  A    between atoms: C_17  and  C_20
REMARK                            x       y       z     vdW  Elec       q    Type
REMARK                         _______ _______ _______ _____ _____    ______ ____
ROOT
ATOM      1  C   UNL     1      -6.694  12.615  17.536  0.00  0.00    +0.000 C 
ATOM      2  C   UNL     1      -5.293  12.088  17.647  0.00  0.00    +0.000 A 
ATOM      3  C   UNL     1      -4.741  11.339  16.615  0.00  0.00    +0.000 A 
ATOM      4  C   UNL     1      -3.432  10.838  16.720  0.00  0.00    +0.000 A 
ATOM      5  C   UNL     1      -2.874  10.043  15.573  0.00  0.00    +0.000 C 
ATOM      6  C   UNL     1      -2.720  11.127  17.919  0.00  0.00    +0.000 A 
ATOM      7  C   UNL     1      -1.404  10.793  18.412  0.00  0.00    +0.000 A 
ATOM      8  C   UNL     1      -1.140  11.327  19.660  0.00  0.00    +0.000 A 
ATOM      9  S   UNL     1      -2.460  12.232  20.249  0.00  0.00    +0.000 S 
ATOM     10  C   UNL     1      -3.389  11.898  18.866  0.00  0.00    +0.000 A 
ATOM     11  N   UNL     1      -4.641  12.388  18.783  0.00  0.00    +0.000 NA
ENDROOT
BRANCH   7  12
ATOM     12  N   UNL     1      -0.503  10.039  17.734  0.00  0.00    +0.000 N 
ATOM     13  H   UNL     1      -0.276  10.221  16.762  0.00  0.00    +0.000 HD
ATOM     14  H   UNL     1      -0.394   9.046  17.962  0.00  0.00    +0.000 HD
ENDBRANCH   7  12
BRANCH   8  15
ATOM     15  S   UNL     1       0.286  11.276  20.712  0.00  0.00    +0.000 S 
ATOM     16  O   UNL     1      -0.144  11.690  22.031  0.00  0.00    +0.000 OA
ATOM     17  O   UNL     1       0.872   9.959  20.497  0.00  0.00    +0.000 OA
BRANCH  15  18
ATOM     18  C   UNL     1       1.430  12.472  20.073  0.00  0.00    +0.000 A 
ATOM     19  C   UNL     1       1.980  12.291  18.809  0.00  0.00    +0.000 A 
ATOM     20  C   UNL     1       2.808  13.278  18.268  0.00  0.00    +0.000 A 
ATOM     21  C   UNL     1       3.107  14.464  18.965  0.00  0.00    +0.000 A 
ATOM     22  C   UNL     1       2.549  14.611  20.252  0.00  0.00    +0.000 A 
ATOM     23  C   UNL     1       1.715  13.627  20.804  0.00  0.00    +0.000 A 
BRANCH  21  24
ATOM     24  C   UNL     1       3.984  15.575  18.348  0.00  0.00    +0.000 C 
ATOM     25  C   UNL     1       3.293  16.289  17.164  0.00  0.00    +0.000 C 
ATOM     26  C   UNL     1       4.312  16.651  19.406  0.00  0.00    +0.000 C 
ATOM     27  C   UNL     1       5.311  14.995  17.816  0.00  0.00    +0.000 C 
ENDBRANCH  21  24
ENDBRANCH  15  18
ENDBRANCH   8  15
TORSDOF 4
ENDMDL
