MODEL 1
REMARK VINA RESULT:      -7.4      0.000      0.000
REMARK  Name = 
REMARK  9 active torsions:
REMARK  status: ('A' for Active; 'I' for Inactive)
REMARK    1  A    between atoms: C_4  and  C_5
REMARK    2  A    between atoms: C_8  and  C_9
REMARK    3  A    between atoms: C_9  and  N_10
REMARK    4  A    between atoms: N_10  and  C_11
REMARK    5  A    between atoms: C_11  and  C_12
REMARK    6  A    between atoms: C_12  and  N_13
REMARK    7  A    between atoms: N_13  and  C_14
REMARK    8  A    between atoms: C_14  and  C_15
REMARK    9  A    between atoms: C_18  and  C_19
REMARK                            x       y       z     vdW  Elec       q    Type
REMARK                         _______ _______ _______ _____ _____    ______ ____
ROOT
ATOM      1  C   UNL     1       1.293   3.226  21.411  0.00  0.00    +0.000 C 
ENDROOT
BRANCH   1   2
ATOM      2  N   UNL     1       0.416   3.281  20.232  0.00  0.00    +0.000 NA
ATOM      3  H   UNL     1      -0.541   3.078  20.515  0.00  0.00    +0.000 HD
BRANCH   2   4
ATOM      4  C   UNL     1       0.817   2.289  19.232  0.00  0.00    +0.000 C 
BRANCH   4   8
ATOM      5  C   UNL     1       4.217   3.601  16.886  0.00  0.00    +0.000 A 
ATOM      6  C   UNL     1       4.262   2.402  17.612  0.00  0.00    +0.000 A 
ATOM      7  C   UNL     1       3.173   1.981  18.376  0.00  0.00    +0.000 A 
ATOM      8  C   UNL     1       2.007   2.760  18.441  0.00  0.00    +0.000 A 
ATOM      9  C   UNL     1       1.953   3.958  17.722  0.00  0.00    +0.000 A 
ATOM     10  C   UNL     1       3.044   4.370  16.955  0.00  0.00    +0.000 A 
BRANCH   5  14
ATOM     11  C   UNL     1       6.737   4.618  14.263  0.00  0.00    +0.000 A 
ATOM     12  C   UNL     1       7.539   4.972  15.321  0.00  0.00    +0.000 A 
ATOM     13  S   UNL     1       6.790   4.672  16.824  0.00  0.00    +0.000 S 
ATOM     14  C   UNL     1       5.356   4.078  16.081  0.00  0.00    +0.000 A 
ATOM     15  C   UNL     1       5.482   4.104  14.699  0.00  0.00    +0.000 A 
ENDBRANCH   5  14
ENDBRANCH   4   8
ENDBRANCH   2   4
ENDBRANCH   1   2
BRANCH   1  16
ATOM     16  C   UNL     1       2.462   4.237  21.348  0.00  0.00    +0.000 C 
BRANCH  16  17
ATOM     17  N   UNL     1       2.021   5.630  21.191  0.00  0.00    +0.000 NA
ATOM     18  H   UNL     1       2.421   6.161  21.970  0.00  0.00    +0.000 HD
BRANCH  17  19
ATOM     19  C   UNL     1       2.547   6.209  19.956  0.00  0.00    +0.000 C 
BRANCH  19  20
ATOM     20  C   UNL     1       2.021   7.603  19.739  0.00  0.00    +0.000 A 
ATOM     21  C   UNL     1       2.160   8.237  18.499  0.00  0.00    +0.000 A 
ATOM     22  C   UNL     1       1.656   9.527  18.303  0.00  0.00    +0.000 A 
ATOM     23  C   UNL     1       1.013  10.216  19.344  0.00  0.00    +0.000 A 
ATOM     24  C   UNL     1       0.886   9.571  20.584  0.00  0.00    +0.000 A 
ATOM     25  C   UNL     1       1.394   8.287  20.784  0.00  0.00    +0.000 A 
BRANCH  23  26
ATOM     26  C   UNL     1       0.483  11.572  19.121  0.00  0.00    +0.000 A 
ATOM     27  C   UNL     1      -0.456  11.996  18.194  0.00  0.00    +0.000 A 
ATOM     28  C   UNL     1      -0.717  13.395  18.268  0.00  0.00    +0.000 A 
ATOM     29  C   UNL     1       0.031  14.006  19.245  0.00  0.00    +0.000 A 
ATOM     30  S   UNL     1       1.051  12.903  20.053  0.00  0.00    +0.000 S 
ENDBRANCH  23  26
ENDBRANCH  19  20
ENDBRANCH  17  19
ENDBRANCH  16  17
ENDBRANCH   1  16
TORSDOF 9
ENDMDL
MODEL 2
REMARK VINA RESULT:      -7.4      0.704      1.195
REMARK  Name = 
REMARK  9 active torsions:
REMARK  status: ('A' for Active; 'I' for Inactive)
REMARK    1  A    between atoms: C_4  and  C_5
REMARK    2  A    between atoms: C_8  and  C_9
REMARK    3  A    between atoms: C_9  and  N_10
REMARK    4  A    between atoms: N_10  and  C_11
REMARK    5  A    between atoms: C_11  and  C_12
REMARK    6  A    between atoms: C_12  and  N_13
REMARK    7  A    between atoms: N_13  and  C_14
REMARK    8  A    between atoms: C_14  and  C_15
REMARK    9  A    between atoms: C_18  and  C_19
REMARK                            x       y       z     vdW  Elec       q    Type
REMARK                         _______ _______ _______ _____ _____    ______ ____
ROOT
ATOM      1  C   UNL     1       1.388   2.955  21.377  0.00  0.00    +0.000 C 
ENDROOT
BRANCH   1   2
ATOM      2  N   UNL     1       0.361   3.050  20.329  0.00  0.00    +0.000 NA
ATOM      3  H   UNL     1      -0.539   2.765  20.714  0.00  0.00    +0.000 HD
BRANCH   2   4
ATOM      4  C   UNL     1       0.676   2.168  19.204  0.00  0.00    +0.000 C 
BRANCH   4   8
ATOM      5  C   UNL     1       3.999   3.768  16.928  0.00  0.00    +0.000 A 
ATOM      6  C   UNL     1       2.782   4.461  17.010  0.00  0.00    +0.000 A 
ATOM      7  C   UNL     1       1.708   3.944  17.734  0.00  0.00    +0.000 A 
ATOM      8  C   UNL     1       1.820   2.708  18.390  0.00  0.00    +0.000 A 
ATOM      9  C   UNL     1       3.029   2.009  18.312  0.00  0.00    +0.000 A 
ATOM     10  C   UNL     1       4.102   2.536  17.591  0.00  0.00    +0.000 A 
BRANCH   5  14
ATOM     11  C   UNL     1       6.890   4.470  14.601  0.00  0.00    +0.000 A 
ATOM     12  C   UNL     1       7.040   5.639  15.308  0.00  0.00    +0.000 A 
ATOM     13  S   UNL     1       5.889   5.784  16.559  0.00  0.00    +0.000 S 
ATOM     14  C   UNL     1       5.148   4.283  16.160  0.00  0.00    +0.000 A 
ATOM     15  C   UNL     1       5.803   3.691  15.089  0.00  0.00    +0.000 A 
ENDBRANCH   5  14
ENDBRANCH   4   8
ENDBRANCH   2   4
ENDBRANCH   1   2
BRANCH   1  16
ATOM     16  C   UNL     1       2.331   4.181  21.417  0.00  0.00    +0.000 C 
BRANCH  16  17
ATOM     17  N   UNL     1       1.690   5.425  20.969  0.00  0.00    +0.000 NA
ATOM     18  H   UNL     1       1.526   5.995  21.804  0.00  0.00    +0.000 HD
BRANCH  17  19
ATOM     19  C   UNL     1       2.579   6.185  20.092  0.00  0.00    +0.000 C 
BRANCH  19  20
ATOM     20  C   UNL     1       2.046   7.571  19.842  0.00  0.00    +0.000 A 
ATOM     21  C   UNL     1       2.118   8.148  18.569  0.00  0.00    +0.000 A 
ATOM     22  C   UNL     1       1.608   9.431  18.344  0.00  0.00    +0.000 A 
ATOM     23  C   UNL     1       1.024  10.168  19.386  0.00  0.00    +0.000 A 
ATOM     24  C   UNL     1       0.963   9.580  20.659  0.00  0.00    +0.000 A 
ATOM     25  C   UNL     1       1.478   8.303  20.888  0.00  0.00    +0.000 A 
BRANCH  23  26
ATOM     26  C   UNL     1       0.486  11.516  19.132  0.00  0.00    +0.000 A 
ATOM     27  C   UNL     1       1.154  12.649  18.698  0.00  0.00    +0.000 A 
ATOM     28  C   UNL     1       0.300  13.783  18.570  0.00  0.00    +0.000 A 
ATOM     29  C   UNL     1      -0.998  13.490  18.914  0.00  0.00    +0.000 A 
ATOM     30  S   UNL     1      -1.178  11.865  19.402  0.00  0.00    +0.000 S 
ENDBRANCH  23  26
ENDBRANCH  19  20
ENDBRANCH  17  19
ENDBRANCH  16  17
ENDBRANCH   1  16
TORSDOF 9
ENDMDL
MODEL 3
REMARK VINA RESULT:      -7.3      2.674      8.356
REMARK  Name = 
REMARK  9 active torsions:
REMARK  status: ('A' for Active; 'I' for Inactive)
REMARK    1  A    between atoms: C_4  and  C_5
REMARK    2  A    between atoms: C_8  and  C_9
REMARK    3  A    between atoms: C_9  and  N_10
REMARK    4  A    between atoms: N_10  and  C_11
REMARK    5  A    between atoms: C_11  and  C_12
REMARK    6  A    between atoms: C_12  and  N_13
REMARK    7  A    between atoms: N_13  and  C_14
REMARK    8  A    between atoms: C_14  and  C_15
REMARK    9  A    between atoms: C_18  and  C_19
REMARK                            x       y       z     vdW  Elec       q    Type
REMARK                         _______ _______ _______ _____ _____    ______ ____
ROOT
ATOM      1  C   UNL     1       5.379   7.223  16.367  0.00  0.00    +0.000 C 
ENDROOT
BRANCH   1   2
ATOM      2  N   UNL     1       4.610   7.308  17.617  0.00  0.00    +0.000 NA
ATOM      3  H   UNL     1       4.924   6.578  18.255  0.00  0.00    +0.000 HD
BRANCH   2   4
ATOM      4  C   UNL     1       3.180   7.114  17.370  0.00  0.00    +0.000 C 
BRANCH   4   8
ATOM      5  C   UNL     1       0.847   9.254  20.330  0.00  0.00    +0.000 A 
ATOM      6  C   UNL     1       1.497   8.054  20.655  0.00  0.00    +0.000 A 
ATOM      7  C   UNL     1       2.241   7.358  19.702  0.00  0.00    +0.000 A 
ATOM      8  C   UNL     1       2.346   7.842  18.388  0.00  0.00    +0.000 A 
ATOM      9  C   UNL     1       1.700   9.037  18.055  0.00  0.00    +0.000 A 
ATOM     10  C   UNL     1       0.962   9.731  19.016  0.00  0.00    +0.000 A 
BRANCH   5  14
ATOM     11  C   UNL     1      -1.138  10.591  23.252  0.00  0.00    +0.000 A 
ATOM     12  C   UNL     1      -1.333  11.707  22.474  0.00  0.00    +0.000 A 
ATOM     13  S   UNL     1      -0.581  11.566  20.949  0.00  0.00    +0.000 S 
ATOM     14  C   UNL     1       0.044  10.005  21.312  0.00  0.00    +0.000 A 
ATOM     15  C   UNL     1      -0.347   9.612  22.585  0.00  0.00    +0.000 A 
ENDBRANCH   5  14
ENDBRANCH   4   8
ENDBRANCH   2   4
ENDBRANCH   1   2
BRANCH   1  16
ATOM     16  C   UNL     1       6.841   6.765  16.582  0.00  0.00    +0.000 C 
BRANCH  16  17
ATOM     17  N   UNL     1       7.310   5.812  15.566  0.00  0.00    +0.000 NA
ATOM     18  H   UNL     1       8.273   6.071  15.334  0.00  0.00    +0.000 HD
BRANCH  17  19
ATOM     19  C   UNL     1       7.343   4.452  16.101  0.00  0.00    +0.000 C 
BRANCH  19  20
ATOM     20  C   UNL     1       6.157   4.185  16.988  0.00  0.00    +0.000 A 
ATOM     21  C   UNL     1       6.248   4.350  18.375  0.00  0.00    +0.000 A 
ATOM     22  C   UNL     1       5.136   4.112  19.190  0.00  0.00    +0.000 A 
ATOM     23  C   UNL     1       3.914   3.695  18.640  0.00  0.00    +0.000 A 
ATOM     24  C   UNL     1       3.838   3.528  17.248  0.00  0.00    +0.000 A 
ATOM     25  C   UNL     1       4.948   3.757  16.433  0.00  0.00    +0.000 A 
BRANCH  23  26
ATOM     26  C   UNL     1       2.751   3.454  19.511  0.00  0.00    +0.000 A 
ATOM     27  C   UNL     1       1.419   3.763  19.286  0.00  0.00    +0.000 A 
ATOM     28  C   UNL     1       0.570   3.383  20.367  0.00  0.00    +0.000 A 
ATOM     29  C   UNL     1       1.276   2.799  21.392  0.00  0.00    +0.000 A 
ATOM     30  S   UNL     1       2.947   2.726  21.058  0.00  0.00    +0.000 S 
ENDBRANCH  23  26
ENDBRANCH  19  20
ENDBRANCH  17  19
ENDBRANCH  16  17
ENDBRANCH   1  16
TORSDOF 9
ENDMDL
MODEL 4
REMARK VINA RESULT:      -7.3      1.866      7.398
REMARK  Name = 
REMARK  9 active torsions:
REMARK  status: ('A' for Active; 'I' for Inactive)
REMARK    1  A    between atoms: C_4  and  C_5
REMARK    2  A    between atoms: C_8  and  C_9
REMARK    3  A    between atoms: C_9  and  N_10
REMARK    4  A    between atoms: N_10  and  C_11
REMARK    5  A    between atoms: C_11  and  C_12
REMARK    6  A    between atoms: C_12  and  N_13
REMARK    7  A    between atoms: N_13  and  C_14
REMARK    8  A    between atoms: C_14  and  C_15
REMARK    9  A    between atoms: C_18  and  C_19
REMARK                            x       y       z     vdW  Elec       q    Type
REMARK                         _______ _______ _______ _____ _____    ______ ____
ROOT
ATOM      1  C   UNL     1       1.514   3.586  20.547  0.00  0.00    +0.000 C 
ENDROOT
BRANCH   1   2
ATOM      2  N   UNL     1       1.201   5.020  20.637  0.00  0.00    +0.000 NA
ATOM      3  H   UNL     1       0.477   5.249  19.957  0.00  0.00    +0.000 HD
BRANCH   2   4
ATOM      4  C   UNL     1       2.380   5.835  20.339  0.00  0.00    +0.000 C 
BRANCH   4   8
ATOM      5  C   UNL     1       1.190   9.861  19.259  0.00  0.00    +0.000 A 
ATOM      6  C   UNL     1       1.851   9.034  18.339  0.00  0.00    +0.000 A 
ATOM      7  C   UNL     1       2.244   7.741  18.686  0.00  0.00    +0.000 A 
ATOM      8  C   UNL     1       1.993   7.242  19.975  0.00  0.00    +0.000 A 
ATOM      9  C   UNL     1       1.335   8.061  20.899  0.00  0.00    +0.000 A 
ATOM     10  C   UNL     1       0.940   9.351  20.543  0.00  0.00    +0.000 A 
BRANCH   5  14
ATOM     11  C   UNL     1       0.811  13.547  18.531  0.00  0.00    +0.000 A 
ATOM     12  C   UNL     1      -0.518  13.264  18.326  0.00  0.00    +0.000 A 
ATOM     13  S   UNL     1      -0.865  11.610  18.562  0.00  0.00    +0.000 S 
ATOM     14  C   UNL     1       0.774  11.235  18.925  0.00  0.00    +0.000 A 
ATOM     15  C   UNL     1       1.554  12.382  18.875  0.00  0.00    +0.000 A 
ENDBRANCH   5  14
ENDBRANCH   4   8
ENDBRANCH   2   4
ENDBRANCH   1   2
BRANCH   1  16
ATOM     16  C   UNL     1       0.490   2.792  19.701  0.00  0.00    +0.000 C 
BRANCH  16  17
ATOM     17  N   UNL     1       0.926   2.567  18.316  0.00  0.00    +0.000 NA
ATOM     18  H   UNL     1       0.997   3.487  17.871  0.00  0.00    +0.000 HD
BRANCH  17  19
ATOM     19  C   UNL     1       2.255   1.961  18.277  0.00  0.00    +0.000 C 
BRANCH  19  20
ATOM     20  C   UNL     1       3.333   3.011  18.218  0.00  0.00    +0.000 A 
ATOM     21  C   UNL     1       3.280   4.040  17.271  0.00  0.00    +0.000 A 
ATOM     22  C   UNL     1       4.279   5.019  17.233  0.00  0.00    +0.000 A 
ATOM     23  C   UNL     1       5.357   4.985  18.133  0.00  0.00    +0.000 A 
ATOM     24  C   UNL     1       5.400   3.944  19.073  0.00  0.00    +0.000 A 
ATOM     25  C   UNL     1       4.409   2.962  19.109  0.00  0.00    +0.000 A 
BRANCH  23  26
ATOM     26  C   UNL     1       6.398   6.026  18.083  0.00  0.00    +0.000 A 
ATOM     27  C   UNL     1       7.586   6.099  18.792  0.00  0.00    +0.000 A 
ATOM     28  C   UNL     1       8.345   7.267  18.485  0.00  0.00    +0.000 A 
ATOM     29  C   UNL     1       7.715   8.058  17.554  0.00  0.00    +0.000 A 
ATOM     30  S   UNL     1       6.216   7.404  17.069  0.00  0.00    +0.000 S 
ENDBRANCH  23  26
ENDBRANCH  19  20
ENDBRANCH  17  19
ENDBRANCH  16  17
ENDBRANCH   1  16
TORSDOF 9
ENDMDL
MODEL 5
REMARK VINA RESULT:      -7.3      4.048      7.861
REMARK  Name = 
REMARK  9 active torsions:
REMARK  status: ('A' for Active; 'I' for Inactive)
REMARK    1  A    between atoms: C_4  and  C_5
REMARK    2  A    between atoms: C_8  and  C_9
REMARK    3  A    between atoms: C_9  and  N_10
REMARK    4  A    between atoms: N_10  and  C_11
REMARK    5  A    between atoms: C_11  and  C_12
REMARK    6  A    between atoms: C_12  and  N_13
REMARK    7  A    between atoms: N_13  and  C_14
REMARK    8  A    between atoms: C_14  and  C_15
REMARK    9  A    between atoms: C_18  and  C_19
REMARK                            x       y       z     vdW  Elec       q    Type
REMARK                         _______ _______ _______ _____ _____    ______ ____
ROOT
ATOM      1  C   UNL     1       4.116   4.066  17.432  0.00  0.00    +0.000 C 
ENDROOT
BRANCH   1   2
ATOM      2  N   UNL     1       2.998   4.986  17.696  0.00  0.00    +0.000 NA
ATOM      3  H   UNL     1       2.281   4.856  16.984  0.00  0.00    +0.000 HD
BRANCH   2   4
ATOM      4  C   UNL     1       3.442   6.380  17.648  0.00  0.00    +0.000 C 
BRANCH   4   8
ATOM      5  C   UNL     1       1.054   8.835  20.304  0.00  0.00    +0.000 A 
ATOM      6  C   UNL     1       1.491   9.328  19.066  0.00  0.00    +0.000 A 
ATOM      7  C   UNL     1       2.268   8.544  18.213  0.00  0.00    +0.000 A 
ATOM      8  C   UNL     1       2.638   7.241  18.583  0.00  0.00    +0.000 A 
ATOM      9  C   UNL     1       2.209   6.742  19.817  0.00  0.00    +0.000 A 
ATOM     10  C   UNL     1       1.426   7.530  20.663  0.00  0.00    +0.000 A 
BRANCH   5  14
ATOM     11  C   UNL     1      -0.859  10.401  23.159  0.00  0.00    +0.000 A 
ATOM     12  C   UNL     1      -1.226  11.363  22.248  0.00  0.00    +0.000 A 
ATOM     13  S   UNL     1      -0.569  11.066  20.702  0.00  0.00    +0.000 S 
ATOM     14  C   UNL     1       0.243   9.645  21.232  0.00  0.00    +0.000 A 
ATOM     15  C   UNL     1      -0.014   9.414  22.576  0.00  0.00    +0.000 A 
ENDBRANCH   5  14
ENDBRANCH   4   8
ENDBRANCH   2   4
ENDBRANCH   1   2
BRANCH   1  16
ATOM     16  C   UNL     1       4.822   3.582  18.720  0.00  0.00    +0.000 C 
BRANCH  16  17
ATOM     17  N   UNL     1       6.183   4.116  18.877  0.00  0.00    +0.000 NA
ATOM     18  H   UNL     1       6.799   3.318  19.054  0.00  0.00    +0.000 HD
BRANCH  17  19
ATOM     19  C   UNL     1       6.639   4.754  17.644  0.00  0.00    +0.000 C 
BRANCH  19  20
ATOM     20  C   UNL     1       7.228   6.112  17.916  0.00  0.00    +0.000 A 
ATOM     21  C   UNL     1       8.131   6.304  18.968  0.00  0.00    +0.000 A 
ATOM     22  C   UNL     1       8.683   7.567  19.205  0.00  0.00    +0.000 A 
ATOM     23  C   UNL     1       8.338   8.667  18.403  0.00  0.00    +0.000 A 
ATOM     24  C   UNL     1       7.427   8.462  17.356  0.00  0.00    +0.000 A 
ATOM     25  C   UNL     1       6.869   7.204  17.122  0.00  0.00    +0.000 A 
BRANCH  23  26
ATOM     26  C   UNL     1       8.932   9.990  18.662  0.00  0.00    +0.000 A 
ATOM     27  C   UNL     1       9.384  10.932  17.752  0.00  0.00    +0.000 A 
ATOM     28  C   UNL     1       9.907  12.102  18.377  0.00  0.00    +0.000 A 
ATOM     29  C   UNL     1       9.848  12.022  19.748  0.00  0.00    +0.000 A 
ATOM     30  S   UNL     1       9.181  10.542  20.273  0.00  0.00    +0.000 S 
ENDBRANCH  23  26
ENDBRANCH  19  20
ENDBRANCH  17  19
ENDBRANCH  16  17
ENDBRANCH   1  16
TORSDOF 9
ENDMDL
MODEL 6
REMARK VINA RESULT:      -7.2      2.007      7.111
REMARK  Name = 
REMARK  9 active torsions:
REMARK  status: ('A' for Active; 'I' for Inactive)
REMARK    1  A    between atoms: C_4  and  C_5
REMARK    2  A    between atoms: C_8  and  C_9
REMARK    3  A    between atoms: C_9  and  N_10
REMARK    4  A    between atoms: N_10  and  C_11
REMARK    5  A    between atoms: C_11  and  C_12
REMARK    6  A    between atoms: C_12  and  N_13
REMARK    7  A    between atoms: N_13  and  C_14
REMARK    8  A    between atoms: C_14  and  C_15
REMARK    9  A    between atoms: C_18  and  C_19
REMARK                            x       y       z     vdW  Elec       q    Type
REMARK                         _______ _______ _______ _____ _____    ______ ____
ROOT
ATOM      1  C   UNL     1       0.948   2.867  19.741  0.00  0.00    +0.000 C 
ENDROOT
BRANCH   1   2
ATOM      2  N   UNL     1       0.760   4.053  20.590  0.00  0.00    +0.000 NA
ATOM      3  H   UNL     1       0.089   4.680  20.147  0.00  0.00    +0.000 HD
BRANCH   2   4
ATOM      4  C   UNL     1       2.019   4.781  20.762  0.00  0.00    +0.000 C 
BRANCH   4   8
ATOM      5  C   UNL     1       1.495   8.951  19.701  0.00  0.00    +0.000 A 
ATOM      6  C   UNL     1       2.204   8.077  18.863  0.00  0.00    +0.000 A 
ATOM      7  C   UNL     1       2.382   6.737  19.205  0.00  0.00    +0.000 A 
ATOM      8  C   UNL     1       1.862   6.235  20.409  0.00  0.00    +0.000 A 
ATOM      9  C   UNL     1       1.155   7.099  21.252  0.00  0.00    +0.000 A 
ATOM     10  C   UNL     1       0.976   8.437  20.899  0.00  0.00    +0.000 A 
BRANCH   5  14
ATOM     11  C   UNL     1       1.447  12.463  18.313  0.00  0.00    +0.000 A 
ATOM     12  C   UNL     1       0.625  12.759  19.374  0.00  0.00    +0.000 A 
ATOM     13  S   UNL     1       0.340  11.399  20.364  0.00  0.00    +0.000 S 
ATOM     14  C   UNL     1       1.302  10.374  19.371  0.00  0.00    +0.000 A 
ATOM     15  C   UNL     1       1.836  11.093  18.311  0.00  0.00    +0.000 A 
ENDBRANCH   5  14
ENDBRANCH   4   8
ENDBRANCH   2   4
ENDBRANCH   1   2
BRANCH   1  16
ATOM     16  C   UNL     1       1.205   3.217  18.256  0.00  0.00    +0.000 C 
BRANCH  16  17
ATOM     17  N   UNL     1       1.772   2.102  17.483  0.00  0.00    +0.000 NA
ATOM     18  H   UNL     1       1.882   2.431  16.520  0.00  0.00    +0.000 HD
BRANCH  17  19
ATOM     19  C   UNL     1       3.101   1.747  17.976  0.00  0.00    +0.000 C 
BRANCH  19  20
ATOM     20  C   UNL     1       4.017   2.943  17.991  0.00  0.00    +0.000 A 
ATOM     21  C   UNL     1       4.672   3.329  19.166  0.00  0.00    +0.000 A 
ATOM     22  C   UNL     1       5.531   4.433  19.165  0.00  0.00    +0.000 A 
ATOM     23  C   UNL     1       5.746   5.180  17.996  0.00  0.00    +0.000 A 
ATOM     24  C   UNL     1       5.078   4.785  16.827  0.00  0.00    +0.000 A 
ATOM     25  C   UNL     1       4.214   3.688  16.826  0.00  0.00    +0.000 A 
BRANCH  23  26
ATOM     26  C   UNL     1       6.658   6.337  18.011  0.00  0.00    +0.000 A 
ATOM     27  C   UNL     1       6.624   7.480  17.228  0.00  0.00    +0.000 A 
ATOM     28  C   UNL     1       7.683   8.387  17.523  0.00  0.00    +0.000 A 
ATOM     29  C   UNL     1       8.503   7.913  18.519  0.00  0.00    +0.000 A 
ATOM     30  S   UNL     1       8.006   6.380  19.080  0.00  0.00    +0.000 S 
ENDBRANCH  23  26
ENDBRANCH  19  20
ENDBRANCH  17  19
ENDBRANCH  16  17
ENDBRANCH   1  16
TORSDOF 9
ENDMDL
MODEL 7
REMARK VINA RESULT:      -7.0      1.871      7.444
REMARK  Name = 
REMARK  9 active torsions:
REMARK  status: ('A' for Active; 'I' for Inactive)
REMARK    1  A    between atoms: C_4  and  C_5
REMARK    2  A    between atoms: C_8  and  C_9
REMARK    3  A    between atoms: C_9  and  N_10
REMARK    4  A    between atoms: N_10  and  C_11
REMARK    5  A    between atoms: C_11  and  C_12
REMARK    6  A    between atoms: C_12  and  N_13
REMARK    7  A    between atoms: N_13  and  C_14
REMARK    8  A    between atoms: C_14  and  C_15
REMARK    9  A    between atoms: C_18  and  C_19
REMARK                            x       y       z     vdW  Elec       q    Type
REMARK                         _______ _______ _______ _____ _____    ______ ____
ROOT
ATOM      1  C   UNL     1       1.620   3.304  21.107  0.00  0.00    +0.000 C 
ENDROOT
BRANCH   1   2
ATOM      2  N   UNL     1       1.773   4.760  21.249  0.00  0.00    +0.000 NA
ATOM      3  H   UNL     1       0.877   5.167  21.512  0.00  0.00    +0.000 HD
BRANCH   2   4
ATOM      4  C   UNL     1       2.199   5.369  19.988  0.00  0.00    +0.000 C 
BRANCH   4   8
ATOM      5  C   UNL     1       1.170   9.577  19.852  0.00  0.00    +0.000 A 
ATOM      6  C   UNL     1       0.852   8.794  20.971  0.00  0.00    +0.000 A 
ATOM      7  C   UNL     1       1.173   7.437  21.014  0.00  0.00    +0.000 A 
ATOM      8  C   UNL     1       1.816   6.822  19.927  0.00  0.00    +0.000 A 
ATOM      9  C   UNL     1       2.136   7.596  18.807  0.00  0.00    +0.000 A 
ATOM     10  C   UNL     1       1.817   8.955  18.773  0.00  0.00    +0.000 A 
BRANCH   5  14
ATOM     11  C   UNL     1      -0.204  13.084  20.127  0.00  0.00    +0.000 A 
ATOM     12  C   UNL     1       0.730  13.413  19.174  0.00  0.00    +0.000 A 
ATOM     13  S   UNL     1       1.655  12.064  18.690  0.00  0.00    +0.000 S 
ATOM     14  C   UNL     1       0.832  11.010  19.772  0.00  0.00    +0.000 A 
ATOM     15  C   UNL     1      -0.145  11.704  20.472  0.00  0.00    +0.000 A 
ENDBRANCH   5  14
ENDBRANCH   4   8
ENDBRANCH   2   4
ENDBRANCH   1   2
BRANCH   1  16
ATOM     16  C   UNL     1       1.141   2.877  19.700  0.00  0.00    +0.000 C 
BRANCH  16  17
ATOM     17  N   UNL     1       1.783   1.649  19.211  0.00  0.00    +0.000 NA
ATOM     18  H   UNL     1       1.044   0.948  19.100  0.00  0.00    +0.000 HD
BRANCH  17  19
ATOM     19  C   UNL     1       2.384   1.860  17.896  0.00  0.00    +0.000 C 
BRANCH  19  20
ATOM     20  C   UNL     1       3.431   2.940  17.941  0.00  0.00    +0.000 A 
ATOM     21  C   UNL     1       4.410   2.948  18.941  0.00  0.00    +0.000 A 
ATOM     22  C   UNL     1       5.388   3.948  18.966  0.00  0.00    +0.000 A 
ATOM     23  C   UNL     1       5.403   4.967  18.000  0.00  0.00    +0.000 A 
ATOM     24  C   UNL     1       4.412   4.950  17.007  0.00  0.00    +0.000 A 
ATOM     25  C   UNL     1       3.431   3.958  16.983  0.00  0.00    +0.000 A 
BRANCH  23  26
ATOM     26  C   UNL     1       6.442   6.010  18.037  0.00  0.00    +0.000 A 
ATOM     27  C   UNL     1       7.574   6.080  18.833  0.00  0.00    +0.000 A 
ATOM     28  C   UNL     1       8.351   7.251  18.594  0.00  0.00    +0.000 A 
ATOM     29  C   UNL     1       7.790   8.049  17.626  0.00  0.00    +0.000 A 
ATOM     30  S   UNL     1       6.333   7.397  17.024  0.00  0.00    +0.000 S 
ENDBRANCH  23  26
ENDBRANCH  19  20
ENDBRANCH  17  19
ENDBRANCH  16  17
ENDBRANCH   1  16
TORSDOF 9
ENDMDL
MODEL 8
REMARK VINA RESULT:      -6.9      2.632      8.365
REMARK  Name = 
REMARK  9 active torsions:
REMARK  status: ('A' for Active; 'I' for Inactive)
REMARK    1  A    between atoms: C_4  and  C_5
REMARK    2  A    between atoms: C_8  and  C_9
REMARK    3  A    between atoms: C_9  and  N_10
REMARK    4  A    between atoms: N_10  and  C_11
REMARK    5  A    between atoms: C_11  and  C_12
REMARK    6  A    between atoms: C_12  and  N_13
REMARK    7  A    between atoms: N_13  and  C_14
REMARK    8  A    between atoms: C_14  and  C_15
REMARK    9  A    between atoms: C_18  and  C_19
REMARK                            x       y       z     vdW  Elec       q    Type
REMARK                         _______ _______ _______ _____ _____    ______ ____
ROOT
ATOM      1  C   UNL     1       5.755   7.585  16.854  0.00  0.00    +0.000 C 
ENDROOT
BRANCH   1   2
ATOM      2  N   UNL     1       4.741   7.200  17.848  0.00  0.00    +0.000 NA
ATOM      3  H   UNL     1       4.855   6.213  18.078  0.00  0.00    +0.000 HD
BRANCH   2   4
ATOM      4  C   UNL     1       3.389   7.393  17.322  0.00  0.00    +0.000 C 
BRANCH   4   8
ATOM      5  C   UNL     1       0.895   9.356  20.274  0.00  0.00    +0.000 A 
ATOM      6  C   UNL     1       1.512   8.128  20.554  0.00  0.00    +0.000 A 
ATOM      7  C   UNL     1       2.308   7.489  19.603  0.00  0.00    +0.000 A 
ATOM      8  C   UNL     1       2.499   8.061  18.335  0.00  0.00    +0.000 A 
ATOM      9  C   UNL     1       1.887   9.284  18.046  0.00  0.00    +0.000 A 
ATOM     10  C   UNL     1       1.097   9.921  19.006  0.00  0.00    +0.000 A 
BRANCH   5  14
ATOM     11  C   UNL     1      -1.140  10.575  23.213  0.00  0.00    +0.000 A 
ATOM     12  C   UNL     1      -1.497  11.623  22.398  0.00  0.00    +0.000 A 
ATOM     13  S   UNL     1      -0.785  11.503  20.852  0.00  0.00    +0.000 S 
ATOM     14  C   UNL     1       0.039  10.048  21.255  0.00  0.00    +0.000 A 
ATOM     15  C   UNL     1      -0.257   9.670  22.557  0.00  0.00    +0.000 A 
ENDBRANCH   5  14
ENDBRANCH   4   8
ENDBRANCH   2   4
ENDBRANCH   1   2
BRANCH   1  16
ATOM     16  C   UNL     1       7.091   6.825  17.023  0.00  0.00    +0.000 C 
BRANCH  16  17
ATOM     17  N   UNL     1       7.471   6.041  15.839  0.00  0.00    +0.000 NA
ATOM     18  H   UNL     1       8.453   6.252  15.641  0.00  0.00    +0.000 HD
BRANCH  17  19
ATOM     19  C   UNL     1       7.381   4.607  16.110  0.00  0.00    +0.000 C 
BRANCH  19  20
ATOM     20  C   UNL     1       6.142   4.277  16.899  0.00  0.00    +0.000 A 
ATOM     21  C   UNL     1       4.921   4.048  16.254  0.00  0.00    +0.000 A 
ATOM     22  C   UNL     1       3.778   3.729  16.995  0.00  0.00    +0.000 A 
ATOM     23  C   UNL     1       3.828   3.640  18.395  0.00  0.00    +0.000 A 
ATOM     24  C   UNL     1       5.057   3.878  19.029  0.00  0.00    +0.000 A 
ATOM     25  C   UNL     1       6.197   4.204  18.294  0.00  0.00    +0.000 A 
BRANCH  23  26
ATOM     26  C   UNL     1       2.617   3.298  19.161  0.00  0.00    +0.000 A 
ATOM     27  C   UNL     1       1.428   2.751  18.705  0.00  0.00    +0.000 A 
ATOM     28  C   UNL     1       0.469   2.563  19.743  0.00  0.00    +0.000 A 
ATOM     29  C   UNL     1       0.947   2.976  20.964  0.00  0.00    +0.000 A 
ATOM     30  S   UNL     1       2.531   3.598  20.853  0.00  0.00    +0.000 S 
ENDBRANCH  23  26
ENDBRANCH  19  20
ENDBRANCH  17  19
ENDBRANCH  16  17
ENDBRANCH   1  16
TORSDOF 9
ENDMDL
MODEL 9
REMARK VINA RESULT:      -6.8      5.661      7.727
REMARK  Name = 
REMARK  9 active torsions:
REMARK  status: ('A' for Active; 'I' for Inactive)
REMARK    1  A    between atoms: C_4  and  C_5
REMARK    2  A    between atoms: C_8  and  C_9
REMARK    3  A    between atoms: C_9  and  N_10
REMARK    4  A    between atoms: N_10  and  C_11
REMARK    5  A    between atoms: C_11  and  C_12
REMARK    6  A    between atoms: C_12  and  N_13
REMARK    7  A    between atoms: N_13  and  C_14
REMARK    8  A    between atoms: C_14  and  C_15
REMARK    9  A    between atoms: C_18  and  C_19
REMARK                            x       y       z     vdW  Elec       q    Type
REMARK                         _______ _______ _______ _____ _____    ______ ____
ROOT
ATOM      1  C   UNL     1       7.483   5.876  18.180  0.00  0.00    +0.000 C 
ENDROOT
BRANCH   1   2
ATOM      2  N   UNL     1       8.049   7.158  18.624  0.00  0.00    +0.000 NA
ATOM      3  H   UNL     1       7.552   7.474  19.456  0.00  0.00    +0.000 HD
BRANCH   2   4
ATOM      4  C   UNL     1       7.905   8.184  17.589  0.00  0.00    +0.000 C 
BRANCH   4   8
ATOM      5  C   UNL     1       9.252  12.056  18.995  0.00  0.00    +0.000 A 
ATOM      6  C   UNL     1       9.513  10.892  19.732  0.00  0.00    +0.000 A 
ATOM      7  C   UNL     1       9.072   9.645  19.287  0.00  0.00    +0.000 A 
ATOM      8  C   UNL     1       8.346   9.532  18.091  0.00  0.00    +0.000 A 
ATOM      9  C   UNL     1       8.080  10.688  17.350  0.00  0.00    +0.000 A 
ATOM     10  C   UNL     1       8.529  11.931  17.798  0.00  0.00    +0.000 A 
BRANCH   5  14
ATOM     11  C   UNL     1      10.149  15.689  19.509  0.00  0.00    +0.000 A 
ATOM     12  C   UNL     1      10.648  15.285  20.725  0.00  0.00    +0.000 A 
ATOM     13  S   UNL     1      10.468  13.606  20.967  0.00  0.00    +0.000 S 
ATOM     14  C   UNL     1       9.693  13.389  19.446  0.00  0.00    +0.000 A 
ATOM     15  C   UNL     1       9.600  14.600  18.774  0.00  0.00    +0.000 A 
ENDBRANCH   5  14
ENDBRANCH   4   8
ENDBRANCH   2   4
ENDBRANCH   1   2
BRANCH   1  16
ATOM     16  C   UNL     1       6.464   5.282  19.180  0.00  0.00    +0.000 C 
BRANCH  16  17
ATOM     17  N   UNL     1       5.804   4.064  18.688  0.00  0.00    +0.000 NA
ATOM     18  H   UNL     1       5.408   3.588  19.503  0.00  0.00    +0.000 HD
BRANCH  17  19
ATOM     19  C   UNL     1       4.694   4.395  17.796  0.00  0.00    +0.000 C 
BRANCH  19  20
ATOM     20  C   UNL     1       3.796   5.439  18.404  0.00  0.00    +0.000 A 
ATOM     21  C   UNL     1       3.091   5.178  19.585  0.00  0.00    +0.000 A 
ATOM     22  C   UNL     1       2.269   6.159  20.150  0.00  0.00    +0.000 A 
ATOM     23  C   UNL     1       2.127   7.417  19.543  0.00  0.00    +0.000 A 
ATOM     24  C   UNL     1       2.835   7.663  18.357  0.00  0.00    +0.000 A 
ATOM     25  C   UNL     1       3.650   6.684  17.787  0.00  0.00    +0.000 A 
BRANCH  23  26
ATOM     26  C   UNL     1       1.262   8.442  20.154  0.00  0.00    +0.000 A 
ATOM     27  C   UNL     1       0.657   8.436  21.400  0.00  0.00    +0.000 A 
ATOM     28  C   UNL     1      -0.120   9.606  21.646  0.00  0.00    +0.000 A 
ATOM     29  C   UNL     1      -0.093  10.473  20.580  0.00  0.00    +0.000 A 
ATOM     30  S   UNL     1       0.847   9.871  19.290  0.00  0.00    +0.000 S 
ENDBRANCH  23  26
ENDBRANCH  19  20
ENDBRANCH  17  19
ENDBRANCH  16  17
ENDBRANCH   1  16
TORSDOF 9
ENDMDL
