MODEL 1
REMARK VINA RESULT:      -8.5      0.000      0.000
REMARK  Name = 
REMARK  7 active torsions:
REMARK  status: ('A' for Active; 'I' for Inactive)
REMARK    1  A    between atoms: C_1  and  C_2
REMARK    2  A    between atoms: C_2  and  C_3
REMARK    3  A    between atoms: C_8  and  N_9
REMARK    4  A    between atoms: N_15  and  C_16
REMARK    5  A    between atoms: C_18  and  C_19
REMARK    6  A    between atoms: C_22  and  C_23
REMARK    7  A    between atoms: C_27  and  C_28
REMARK                            x       y       z     vdW  Elec       q    Type
REMARK                         _______ _______ _______ _____ _____    ______ ____
ROOT
ATOM      1  N   UNL     1       2.311   7.077  18.973  0.00  0.00    +0.000 N 
ATOM      2  C   UNL     1       2.076   8.308  18.396  0.00  0.00    +0.000 C 
ATOM      3  O   UNL     1       2.227   8.559  17.203  0.00  0.00    +0.000 OA
ATOM      4  N   UNL     1       1.604   9.287  19.260  0.00  0.00    +0.000 N 
ATOM      5  C   UNL     1       1.171  10.586  18.721  0.00  0.00    +0.000 C 
ATOM      6  C   UNL     1      -0.298  10.875  19.099  0.00  0.00    +0.000 C 
ATOM      7  N   UNL     1      -0.528  10.711  20.561  0.00  0.00    +0.000 N 
ATOM      8  C   UNL     1      -0.022   9.440  21.108  0.00  0.00    +0.000 C 
ATOM      9  C   UNL     1       1.440   9.194  20.705  0.00  0.00    +0.000 C 
ATOM     10  H   UNL     1       1.816   6.885  19.824  0.00  0.00    +0.000 HD
ENDROOT
BRANCH   7  11
ATOM     11  C   UNL     1      -0.908  11.769  21.378  0.00  0.00    +0.000 A 
ATOM     12  C   UNL     1      -2.173  11.744  22.016  0.00  0.00    +0.000 A 
ATOM     13  C   UNL     1      -2.627  12.757  22.882  0.00  0.00    +0.000 A 
ATOM     14  C   UNL     1      -1.783  13.831  23.151  0.00  0.00    +0.000 A 
ATOM     15  C   UNL     1      -0.538  13.901  22.537  0.00  0.00    +0.000 A 
ATOM     16  C   UNL     1      -0.091  12.898  21.649  0.00  0.00    +0.000 A 
ATOM     17  C   UNL     1       1.291  13.115  21.084  0.00  0.00    +0.000 C 
BRANCH  13  18
ATOM     18  C   UNL     1      -3.964  12.696  23.463  0.00  0.00    +0.000 A 
ATOM     19  N   UNL     1      -4.309  11.865  24.463  0.00  0.00    +0.000 NA
ATOM     20  O   UNL     1      -5.642  12.176  24.709  0.00  0.00    +0.000 OA
ATOM     21  C   UNL     1      -5.976  13.164  23.834  0.00  0.00    +0.000 A 
ATOM     22  C   UNL     1      -7.360  13.665  23.888  0.00  0.00    +0.000 C 
ATOM     23  N   UNL     1      -4.989  13.520  23.047  0.00  0.00    +0.000 NA
ENDBRANCH  13  18
ENDBRANCH   7  11
BRANCH   1  29
ATOM     24  C   UNL     1       2.441   4.651  18.586  0.00  0.00    +0.000 A 
ATOM     25  C   UNL     1       3.095   3.561  17.973  0.00  0.00    +0.000 A 
ATOM     26  C   UNL     1       4.196   3.748  17.136  0.00  0.00    +0.000 A 
ATOM     27  C   UNL     1       4.677   5.030  16.925  0.00  0.00    +0.000 A 
ATOM     28  C   UNL     1       4.060   6.120  17.543  0.00  0.00    +0.000 A 
ATOM     29  C   UNL     1       2.934   5.954  18.366  0.00  0.00    +0.000 A 
BRANCH  24  31
ATOM     30  C   UNL     1       1.495   3.503  20.651  0.00  0.00    +0.000 C 
ATOM     31  C   UNL     1       1.206   4.327  19.406  0.00  0.00    +0.000 C 
ENDBRANCH  24  31
ENDBRANCH   1  29
TORSDOF 4
ENDMDL
MODEL 2
REMARK VINA RESULT:      -8.2      1.042      1.051
REMARK  Name = 
REMARK  7 active torsions:
REMARK  status: ('A' for Active; 'I' for Inactive)
REMARK    1  A    between atoms: C_1  and  C_2
REMARK    2  A    between atoms: C_2  and  C_3
REMARK    3  A    between atoms: C_8  and  N_9
REMARK    4  A    between atoms: N_15  and  C_16
REMARK    5  A    between atoms: C_18  and  C_19
REMARK    6  A    between atoms: C_22  and  C_23
REMARK    7  A    between atoms: C_27  and  C_28
REMARK                            x       y       z     vdW  Elec       q    Type
REMARK                         _______ _______ _______ _____ _____    ______ ____
ROOT
ATOM      1  N   UNL     1       2.541   6.591  20.089  0.00  0.00    +0.000 N 
ATOM      2  C   UNL     1       2.176   7.644  19.276  0.00  0.00    +0.000 C 
ATOM      3  O   UNL     1       2.263   7.642  18.051  0.00  0.00    +0.000 OA
ATOM      4  N   UNL     1       1.647   8.746  19.936  0.00  0.00    +0.000 N 
ATOM      5  C   UNL     1       1.081   9.858  19.157  0.00  0.00    +0.000 C 
ATOM      6  C   UNL     1      -0.395  10.102  19.542  0.00  0.00    +0.000 C 
ATOM      7  N   UNL     1      -0.559  10.241  21.016  0.00  0.00    +0.000 N 
ATOM      8  C   UNL     1       0.079   9.164  21.793  0.00  0.00    +0.000 C 
ATOM      9  C   UNL     1       1.543   8.956  21.375  0.00  0.00    +0.000 C 
ATOM     10  H   UNL     1       2.095   6.549  20.986  0.00  0.00    +0.000 HD
ENDROOT
BRANCH   7  11
ATOM     11  C   UNL     1      -1.004  11.416  21.608  0.00  0.00    +0.000 A 
ATOM     12  C   UNL     1      -2.280  11.452  22.223  0.00  0.00    +0.000 A 
ATOM     13  C   UNL     1      -2.798  12.590  22.871  0.00  0.00    +0.000 A 
ATOM     14  C   UNL     1      -2.011  13.736  22.937  0.00  0.00    +0.000 A 
ATOM     15  C   UNL     1      -0.758  13.748  22.336  0.00  0.00    +0.000 A 
ATOM     16  C   UNL     1      -0.246  12.615  21.664  0.00  0.00    +0.000 A 
ATOM     17  C   UNL     1       1.136  12.788  21.083  0.00  0.00    +0.000 C 
BRANCH  13  18
ATOM     18  C   UNL     1      -4.142  12.576  23.438  0.00  0.00    +0.000 A 
ATOM     19  N   UNL     1      -4.411  12.279  24.722  0.00  0.00    +0.000 NA
ATOM     20  O   UNL     1      -5.792  12.425  24.816  0.00  0.00    +0.000 OA
ATOM     21  C   UNL     1      -6.226  12.794  23.579  0.00  0.00    +0.000 A 
ATOM     22  C   UNL     1      -7.674  13.002  23.414  0.00  0.00    +0.000 C 
ATOM     23  N   UNL     1      -5.261  12.900  22.697  0.00  0.00    +0.000 NA
ENDBRANCH  13  18
ENDBRANCH   7  11
BRANCH   1  29
ATOM     24  C   UNL     1       2.593   4.165  19.684  0.00  0.00    +0.000 A 
ATOM     25  C   UNL     1       3.326   3.021  19.305  0.00  0.00    +0.000 A 
ATOM     26  C   UNL     1       4.666   3.108  18.923  0.00  0.00    +0.000 A 
ATOM     27  C   UNL     1       5.299   4.340  18.945  0.00  0.00    +0.000 A 
ATOM     28  C   UNL     1       4.597   5.480  19.342  0.00  0.00    +0.000 A 
ATOM     29  C   UNL     1       3.242   5.417  19.702  0.00  0.00    +0.000 A 
BRANCH  24  31
ATOM     30  C   UNL     1       0.525   2.725  19.331  0.00  0.00    +0.000 C 
ATOM     31  C   UNL     1       1.123   3.954  19.997  0.00  0.00    +0.000 C 
ENDBRANCH  24  31
ENDBRANCH   1  29
TORSDOF 4
ENDMDL
MODEL 3
REMARK VINA RESULT:      -8.2      2.000      2.318
REMARK  Name = 
REMARK  7 active torsions:
REMARK  status: ('A' for Active; 'I' for Inactive)
REMARK    1  A    between atoms: C_1  and  C_2
REMARK    2  A    between atoms: C_2  and  C_3
REMARK    3  A    between atoms: C_8  and  N_9
REMARK    4  A    between atoms: N_15  and  C_16
REMARK    5  A    between atoms: C_18  and  C_19
REMARK    6  A    between atoms: C_22  and  C_23
REMARK    7  A    between atoms: C_27  and  C_28
REMARK                            x       y       z     vdW  Elec       q    Type
REMARK                         _______ _______ _______ _____ _____    ______ ____
ROOT
ATOM      1  N   UNL     1       2.781   7.510  18.152  0.00  0.00    +0.000 N 
ATOM      2  C   UNL     1       2.158   7.652  19.375  0.00  0.00    +0.000 C 
ATOM      3  O   UNL     1       2.352   6.923  20.346  0.00  0.00    +0.000 OA
ATOM      4  N   UNL     1       1.286   8.728  19.474  0.00  0.00    +0.000 N 
ATOM      5  C   UNL     1       0.691   9.065  20.777  0.00  0.00    +0.000 C 
ATOM      6  C   UNL     1       1.035  10.516  21.178  0.00  0.00    +0.000 C 
ATOM      7  N   UNL     1       0.706  11.476  20.089  0.00  0.00    +0.000 N 
ATOM      8  C   UNL     1       1.240  11.091  18.771  0.00  0.00    +0.000 C 
ATOM      9  C   UNL     1       0.877   9.642  18.415  0.00  0.00    +0.000 C 
ATOM     10  H   UNL     1       2.842   8.336  17.588  0.00  0.00    +0.000 HD
ENDROOT
BRANCH   7  11
ATOM     11  C   UNL     1      -0.253  12.470  20.237  0.00  0.00    +0.000 A 
ATOM     12  C   UNL     1      -1.606  12.112  20.457  0.00  0.00    +0.000 A 
ATOM     13  C   UNL     1      -2.638  13.052  20.647  0.00  0.00    +0.000 A 
ATOM     14  C   UNL     1      -2.315  14.405  20.643  0.00  0.00    +0.000 A 
ATOM     15  C   UNL     1      -1.002  14.801  20.418  0.00  0.00    +0.000 A 
ATOM     16  C   UNL     1       0.030  13.861  20.204  0.00  0.00    +0.000 A 
ATOM     17  C   UNL     1       1.402  14.454  19.994  0.00  0.00    +0.000 C 
BRANCH  13  18
ATOM     18  C   UNL     1      -4.020  12.616  20.816  0.00  0.00    +0.000 A 
ATOM     19  N   UNL     1      -4.617  12.466  22.011  0.00  0.00    +0.000 NA
ATOM     20  O   UNL     1      -5.915  12.079  21.689  0.00  0.00    +0.000 OA
ATOM     21  C   UNL     1      -5.976  12.029  20.330  0.00  0.00    +0.000 A 
ATOM     22  C   UNL     1      -7.261  11.627  19.734  0.00  0.00    +0.000 C 
ATOM     23  N   UNL     1      -4.847  12.347  19.744  0.00  0.00    +0.000 NA
ENDBRANCH  13  18
ENDBRANCH   7  11
BRANCH   1  29
ATOM     24  C   UNL     1       3.052   5.126  17.607  0.00  0.00    +0.000 A 
ATOM     25  C   UNL     1       3.893   4.072  17.193  0.00  0.00    +0.000 A 
ATOM     26  C   UNL     1       5.235   4.291  16.877  0.00  0.00    +0.000 A 
ATOM     27  C   UNL     1       5.761   5.566  17.000  0.00  0.00    +0.000 A 
ATOM     28  C   UNL     1       4.951   6.619  17.432  0.00  0.00    +0.000 A 
ATOM     29  C   UNL     1       3.593   6.423  17.728  0.00  0.00    +0.000 A 
BRANCH  24  31
ATOM     30  C   UNL     1       1.378   3.366  18.364  0.00  0.00    +0.000 C 
ATOM     31  C   UNL     1       1.594   4.777  17.841  0.00  0.00    +0.000 C 
ENDBRANCH  24  31
ENDBRANCH   1  29
TORSDOF 4
ENDMDL
MODEL 4
REMARK VINA RESULT:      -7.9      0.712      1.767
REMARK  Name = 
REMARK  7 active torsions:
REMARK  status: ('A' for Active; 'I' for Inactive)
REMARK    1  A    between atoms: C_1  and  C_2
REMARK    2  A    between atoms: C_2  and  C_3
REMARK    3  A    between atoms: C_8  and  N_9
REMARK    4  A    between atoms: N_15  and  C_16
REMARK    5  A    between atoms: C_18  and  C_19
REMARK    6  A    between atoms: C_22  and  C_23
REMARK    7  A    between atoms: C_27  and  C_28
REMARK                            x       y       z     vdW  Elec       q    Type
REMARK                         _______ _______ _______ _____ _____    ______ ____
ROOT
ATOM      1  N   UNL     1       2.201   6.915  18.766  0.00  0.00    +0.000 N 
ATOM      2  C   UNL     1       2.064   8.178  18.227  0.00  0.00    +0.000 C 
ATOM      3  O   UNL     1       2.269   8.459  17.048  0.00  0.00    +0.000 OA
ATOM      4  N   UNL     1       1.630   9.156  19.111  0.00  0.00    +0.000 N 
ATOM      5  C   UNL     1       1.300  10.498  18.607  0.00  0.00    +0.000 C 
ATOM      6  C   UNL     1      -0.159  10.870  18.952  0.00  0.00    +0.000 C 
ATOM      7  N   UNL     1      -0.445  10.673  20.400  0.00  0.00    +0.000 N 
ATOM      8  C   UNL     1      -0.039   9.354  20.916  0.00  0.00    +0.000 C 
ATOM      9  C   UNL     1       1.416   9.025  20.547  0.00  0.00    +0.000 C 
ATOM     10  H   UNL     1       1.668   6.728  19.595  0.00  0.00    +0.000 HD
ENDROOT
BRANCH   7  11
ATOM     11  C   UNL     1      -0.780  11.725  21.243  0.00  0.00    +0.000 A 
ATOM     12  C   UNL     1      -2.033  11.723  21.905  0.00  0.00    +0.000 A 
ATOM     13  C   UNL     1      -2.443  12.731  22.797  0.00  0.00    +0.000 A 
ATOM     14  C   UNL     1      -1.566  13.777  23.069  0.00  0.00    +0.000 A 
ATOM     15  C   UNL     1      -0.331  13.825  22.433  0.00  0.00    +0.000 A 
ATOM     16  C   UNL     1       0.072  12.827  21.519  0.00  0.00    +0.000 A 
ATOM     17  C   UNL     1       1.449  13.018  20.930  0.00  0.00    +0.000 C 
BRANCH  13  18
ATOM     18  C   UNL     1      -3.769  12.695  23.403  0.00  0.00    +0.000 A 
ATOM     19  N   UNL     1      -4.120  11.851  24.390  0.00  0.00    +0.000 NA
ATOM     20  O   UNL     1      -5.439  12.195  24.671  0.00  0.00    +0.000 OA
ATOM     21  C   UNL     1      -5.760  13.212  23.825  0.00  0.00    +0.000 A 
ATOM     22  C   UNL     1      -7.127  13.752  23.918  0.00  0.00    +0.000 C 
ATOM     23  N   UNL     1      -4.778  13.558  23.028  0.00  0.00    +0.000 NA
ENDBRANCH  13  18
ENDBRANCH   7  11
BRANCH   1  29
ATOM     24  C   UNL     1       4.117   5.775  17.727  0.00  0.00    +0.000 A 
ATOM     25  C   UNL     1       4.640   4.626  17.096  0.00  0.00    +0.000 A 
ATOM     26  C   UNL     1       3.860   3.486  16.895  0.00  0.00    +0.000 A 
ATOM     27  C   UNL     1       2.535   3.493  17.298  0.00  0.00    +0.000 A 
ATOM     28  C   UNL     1       1.991   4.629  17.902  0.00  0.00    +0.000 A 
ATOM     29  C   UNL     1       2.768   5.774  18.137  0.00  0.00    +0.000 A 
BRANCH  24  31
ATOM     30  C   UNL     1       6.469   6.681  17.376  0.00  0.00    +0.000 C 
ATOM     31  C   UNL     1       5.087   6.919  17.963  0.00  0.00    +0.000 C 
ENDBRANCH  24  31
ENDBRANCH   1  29
TORSDOF 4
ENDMDL
MODEL 5
REMARK VINA RESULT:      -7.9      1.442      1.792
REMARK  Name = 
REMARK  7 active torsions:
REMARK  status: ('A' for Active; 'I' for Inactive)
REMARK    1  A    between atoms: C_1  and  C_2
REMARK    2  A    between atoms: C_2  and  C_3
REMARK    3  A    between atoms: C_8  and  N_9
REMARK    4  A    between atoms: N_15  and  C_16
REMARK    5  A    between atoms: C_18  and  C_19
REMARK    6  A    between atoms: C_22  and  C_23
REMARK    7  A    between atoms: C_27  and  C_28
REMARK                            x       y       z     vdW  Elec       q    Type
REMARK                         _______ _______ _______ _____ _____    ______ ____
ROOT
ATOM      1  N   UNL     1       2.775   7.371  18.238  0.00  0.00    +0.000 N 
ATOM      2  C   UNL     1       2.185   7.492  19.479  0.00  0.00    +0.000 C 
ATOM      3  O   UNL     1       2.412   6.753  20.434  0.00  0.00    +0.000 OA
ATOM      4  N   UNL     1       1.308   8.560  19.616  0.00  0.00    +0.000 N 
ATOM      5  C   UNL     1       0.747   8.875  20.939  0.00  0.00    +0.000 C 
ATOM      6  C   UNL     1       1.090  10.323  21.350  0.00  0.00    +0.000 C 
ATOM      7  N   UNL     1       0.724  11.295  20.283  0.00  0.00    +0.000 N 
ATOM      8  C   UNL     1       1.224  10.932  18.945  0.00  0.00    +0.000 C 
ATOM      9  C   UNL     1       0.862   9.484  18.581  0.00  0.00    +0.000 C 
ATOM     10  H   UNL     1       2.813   8.205  17.682  0.00  0.00    +0.000 HD
ENDROOT
BRANCH   7  11
ATOM     11  C   UNL     1      -0.239  12.279  20.470  0.00  0.00    +0.000 A 
ATOM     12  C   UNL     1      -1.283  12.071  21.405  0.00  0.00    +0.000 A 
ATOM     13  C   UNL     1      -2.282  13.024  21.679  0.00  0.00    +0.000 A 
ATOM     14  C   UNL     1      -2.234  14.249  21.019  0.00  0.00    +0.000 A 
ATOM     15  C   UNL     1      -1.234  14.490  20.085  0.00  0.00    +0.000 A 
ATOM     16  C   UNL     1      -0.245  13.526  19.790  0.00  0.00    +0.000 A 
ATOM     17  C   UNL     1       0.778  13.952  18.766  0.00  0.00    +0.000 C 
BRANCH  13  18
ATOM     18  C   UNL     1      -3.360  12.724  22.616  0.00  0.00    +0.000 A 
ATOM     19  N   UNL     1      -3.224  11.910  23.678  0.00  0.00    +0.000 NA
ATOM     20  O   UNL     1      -4.474  11.951  24.290  0.00  0.00    +0.000 OA
ATOM     21  C   UNL     1      -5.244  12.784  23.539  0.00  0.00    +0.000 A 
ATOM     22  C   UNL     1      -6.635  12.987  23.979  0.00  0.00    +0.000 C 
ATOM     23  N   UNL     1      -4.615  13.285  22.503  0.00  0.00    +0.000 NA
ENDBRANCH  13  18
ENDBRANCH   7  11
BRANCH   1  29
ATOM     24  C   UNL     1       3.032   5.012  17.589  0.00  0.00    +0.000 A 
ATOM     25  C   UNL     1       3.869   3.969  17.140  0.00  0.00    +0.000 A 
ATOM     26  C   UNL     1       5.218   4.188  16.855  0.00  0.00    +0.000 A 
ATOM     27  C   UNL     1       5.754   5.452  17.043  0.00  0.00    +0.000 A 
ATOM     28  C   UNL     1       4.947   6.492  17.511  0.00  0.00    +0.000 A 
ATOM     29  C   UNL     1       3.583   6.296  17.777  0.00  0.00    +0.000 A 
BRANCH  24  31
ATOM     30  C   UNL     1       1.338   3.305  18.420  0.00  0.00    +0.000 C 
ATOM     31  C   UNL     1       1.567   4.667  17.785  0.00  0.00    +0.000 C 
ENDBRANCH  24  31
ENDBRANCH   1  29
TORSDOF 4
ENDMDL
MODEL 6
REMARK VINA RESULT:      -7.9      1.745      1.891
REMARK  Name = 
REMARK  7 active torsions:
REMARK  status: ('A' for Active; 'I' for Inactive)
REMARK    1  A    between atoms: C_1  and  C_2
REMARK    2  A    between atoms: C_2  and  C_3
REMARK    3  A    between atoms: C_8  and  N_9
REMARK    4  A    between atoms: N_15  and  C_16
REMARK    5  A    between atoms: C_18  and  C_19
REMARK    6  A    between atoms: C_22  and  C_23
REMARK    7  A    between atoms: C_27  and  C_28
REMARK                            x       y       z     vdW  Elec       q    Type
REMARK                         _______ _______ _______ _____ _____    ______ ____
ROOT
ATOM      1  N   UNL     1       2.435   6.936  19.747  0.00  0.00    +0.000 N 
ATOM      2  C   UNL     1       2.188   7.887  18.778  0.00  0.00    +0.000 C 
ATOM      3  O   UNL     1       2.460   7.756  17.587  0.00  0.00    +0.000 OA
ATOM      4  N   UNL     1       1.556   9.039  19.227  0.00  0.00    +0.000 N 
ATOM      5  C   UNL     1       1.105  10.047  18.254  0.00  0.00    +0.000 C 
ATOM      6  C   UNL     1      -0.414  10.293  18.385  0.00  0.00    +0.000 C 
ATOM      7  N   UNL     1      -0.801  10.585  19.793  0.00  0.00    +0.000 N 
ATOM      8  C   UNL     1      -0.280   9.614  20.770  0.00  0.00    +0.000 C 
ATOM      9  C   UNL     1       1.232   9.399  20.602  0.00  0.00    +0.000 C 
ATOM     10  H   UNL     1       1.858   6.979  20.566  0.00  0.00    +0.000 HD
ENDROOT
BRANCH   7  11
ATOM     11  C   UNL     1      -1.342  11.805  20.179  0.00  0.00    +0.000 A 
ATOM     12  C   UNL     1      -2.732  11.909  20.432  0.00  0.00    +0.000 A 
ATOM     13  C   UNL     1      -3.358  13.096  20.855  0.00  0.00    +0.000 A 
ATOM     14  C   UNL     1      -2.573  14.227  21.062  0.00  0.00    +0.000 A 
ATOM     15  C   UNL     1      -1.207  14.173  20.815  0.00  0.00    +0.000 A 
ATOM     16  C   UNL     1      -0.580  12.989  20.367  0.00  0.00    +0.000 A 
ATOM     17  C   UNL     1       0.912  13.093  20.164  0.00  0.00    +0.000 C 
BRANCH  13  18
ATOM     18  C   UNL     1      -4.804  13.148  21.046  0.00  0.00    +0.000 A 
ATOM     19  N   UNL     1      -5.630  13.912  20.309  0.00  0.00    +0.000 NA
ATOM     20  O   UNL     1      -6.894  13.616  20.811  0.00  0.00    +0.000 OA
ATOM     21  C   UNL     1      -6.711  12.704  21.804  0.00  0.00    +0.000 A 
ATOM     22  C   UNL     1      -7.915  12.234  22.510  0.00  0.00    +0.000 C 
ATOM     23  N   UNL     1      -5.453  12.381  21.992  0.00  0.00    +0.000 NA
ENDBRANCH  13  18
ENDBRANCH   7  11
BRANCH   1  29
ATOM     24  C   UNL     1       2.686   4.507  20.041  0.00  0.00    +0.000 A 
ATOM     25  C   UNL     1       3.478   3.349  19.888  0.00  0.00    +0.000 A 
ATOM     26  C   UNL     1       4.737   3.401  19.287  0.00  0.00    +0.000 A 
ATOM     27  C   UNL     1       5.233   4.620  18.858  0.00  0.00    +0.000 A 
ATOM     28  C   UNL     1       4.476   5.782  19.024  0.00  0.00    +0.000 A 
ATOM     29  C   UNL     1       3.196   5.745  19.600  0.00  0.00    +0.000 A 
BRANCH  24  31
ATOM     30  C   UNL     1       1.086   2.928  21.233  0.00  0.00    +0.000 C 
ATOM     31  C   UNL     1       1.303   4.308  20.633  0.00  0.00    +0.000 C 
ENDBRANCH  24  31
ENDBRANCH   1  29
TORSDOF 4
ENDMDL
MODEL 7
REMARK VINA RESULT:      -7.9      3.636      5.284
REMARK  Name = 
REMARK  7 active torsions:
REMARK  status: ('A' for Active; 'I' for Inactive)
REMARK    1  A    between atoms: C_1  and  C_2
REMARK    2  A    between atoms: C_2  and  C_3
REMARK    3  A    between atoms: C_8  and  N_9
REMARK    4  A    between atoms: N_15  and  C_16
REMARK    5  A    between atoms: C_18  and  C_19
REMARK    6  A    between atoms: C_22  and  C_23
REMARK    7  A    between atoms: C_27  and  C_28
REMARK                            x       y       z     vdW  Elec       q    Type
REMARK                         _______ _______ _______ _____ _____    ______ ____
ROOT
ATOM      1  N   UNL     1       4.567   6.771  18.122  0.00  0.00    +0.000 N 
ATOM      2  C   UNL     1       3.536   6.535  19.008  0.00  0.00    +0.000 C 
ATOM      3  O   UNL     1       3.552   5.672  19.883  0.00  0.00    +0.000 OA
ATOM      4  N   UNL     1       2.441   7.380  18.881  0.00  0.00    +0.000 N 
ATOM      5  C   UNL     1       1.357   7.319  19.874  0.00  0.00    +0.000 C 
ATOM      6  C   UNL     1       1.151   8.694  20.546  0.00  0.00    +0.000 C 
ATOM      7  N   UNL     1       0.997   9.778  19.537  0.00  0.00    +0.000 N 
ATOM      8  C   UNL     1       2.045   9.784  18.501  0.00  0.00    +0.000 C 
ATOM      9  C   UNL     1       2.216   8.397  17.862  0.00  0.00    +0.000 C 
ATOM     10  H   UNL     1       4.611   7.692  17.729  0.00  0.00    +0.000 HD
ENDROOT
BRANCH   7  11
ATOM     11  C   UNL     1      -0.172  10.517  19.410  0.00  0.00    +0.000 A 
ATOM     12  C   UNL     1      -0.984  10.356  18.260  0.00  0.00    +0.000 A 
ATOM     13  C   UNL     1      -2.198  11.041  18.063  0.00  0.00    +0.000 A 
ATOM     14  C   UNL     1      -2.644  11.906  19.058  0.00  0.00    +0.000 A 
ATOM     15  C   UNL     1      -1.873  12.103  20.198  0.00  0.00    +0.000 A 
ATOM     16  C   UNL     1      -0.643  11.435  20.386  0.00  0.00    +0.000 A 
ATOM     17  C   UNL     1       0.060  11.745  21.685  0.00  0.00    +0.000 C 
BRANCH  13  18
ATOM     18  C   UNL     1      -2.958  10.869  16.830  0.00  0.00    +0.000 A 
ATOM     19  N   UNL     1      -4.218  11.307  16.659  0.00  0.00    +0.000 NA
ATOM     20  O   UNL     1      -4.516  10.961  15.344  0.00  0.00    +0.000 OA
ATOM     21  C   UNL     1      -3.408  10.346  14.847  0.00  0.00    +0.000 A 
ATOM     22  C   UNL     1      -3.476   9.868  13.455  0.00  0.00    +0.000 C 
ATOM     23  N   UNL     1      -2.425  10.261  15.711  0.00  0.00    +0.000 NA
ENDBRANCH  13  18
ENDBRANCH   7  11
BRANCH   1  29
ATOM     24  C   UNL     1       5.894   5.226  16.742  0.00  0.00    +0.000 A 
ATOM     25  C   UNL     1       7.053   4.436  16.591  0.00  0.00    +0.000 A 
ATOM     26  C   UNL     1       8.043   4.399  17.575  0.00  0.00    +0.000 A 
ATOM     27  C   UNL     1       7.871   5.131  18.737  0.00  0.00    +0.000 A 
ATOM     28  C   UNL     1       6.718   5.900  18.917  0.00  0.00    +0.000 A 
ATOM     29  C   UNL     1       5.726   5.971  17.927  0.00  0.00    +0.000 A 
BRANCH  24  31
ATOM     30  C   UNL     1       5.396   4.421  14.380  0.00  0.00    +0.000 C 
ATOM     31  C   UNL     1       4.932   5.248  15.568  0.00  0.00    +0.000 C 
ENDBRANCH  24  31
ENDBRANCH   1  29
TORSDOF 4
ENDMDL
MODEL 8
REMARK VINA RESULT:      -7.9      3.149      4.138
REMARK  Name = 
REMARK  7 active torsions:
REMARK  status: ('A' for Active; 'I' for Inactive)
REMARK    1  A    between atoms: C_1  and  C_2
REMARK    2  A    between atoms: C_2  and  C_3
REMARK    3  A    between atoms: C_8  and  N_9
REMARK    4  A    between atoms: N_15  and  C_16
REMARK    5  A    between atoms: C_18  and  C_19
REMARK    6  A    between atoms: C_22  and  C_23
REMARK    7  A    between atoms: C_27  and  C_28
REMARK                            x       y       z     vdW  Elec       q    Type
REMARK                         _______ _______ _______ _____ _____    ______ ____
ROOT
ATOM      1  N   UNL     1       3.943   7.069  17.346  0.00  0.00    +0.000 N 
ATOM      2  C   UNL     1       3.167   6.990  18.484  0.00  0.00    +0.000 C 
ATOM      3  O   UNL     1       3.310   6.149  19.368  0.00  0.00    +0.000 OA
ATOM      4  N   UNL     1       2.194   7.973  18.607  0.00  0.00    +0.000 N 
ATOM      5  C   UNL     1       1.418   8.078  19.852  0.00  0.00    +0.000 C 
ATOM      6  C   UNL     1       1.576   9.480  20.480  0.00  0.00    +0.000 C 
ATOM      7  N   UNL     1       1.294  10.556  19.491  0.00  0.00    +0.000 N 
ATOM      8  C   UNL     1       2.015  10.402  18.216  0.00  0.00    +0.000 C 
ATOM      9  C   UNL     1       1.833   8.993  17.630  0.00  0.00    +0.000 C 
ATOM     10  H   UNL     1       3.995   7.968  16.906  0.00  0.00    +0.000 HD
ENDROOT
BRANCH   7  11
ATOM     11  C   UNL     1       0.235  11.445  19.639  0.00  0.00    +0.000 A 
ATOM     12  C   UNL     1      -1.027  11.132  19.077  0.00  0.00    +0.000 A 
ATOM     13  C   UNL     1      -2.160  11.959  19.204  0.00  0.00    +0.000 A 
ATOM     14  C   UNL     1      -2.048  13.136  19.939  0.00  0.00    +0.000 A 
ATOM     15  C   UNL     1      -0.824  13.486  20.497  0.00  0.00    +0.000 A 
ATOM     16  C   UNL     1       0.319  12.670  20.352  0.00  0.00    +0.000 A 
ATOM     17  C   UNL     1       1.563  13.185  21.034  0.00  0.00    +0.000 C 
BRANCH  13  18
ATOM     18  C   UNL     1      -3.417  11.604  18.554  0.00  0.00    +0.000 A 
ATOM     19  N   UNL     1      -3.507  10.768  17.504  0.00  0.00    +0.000 NA
ATOM     20  O   UNL     1      -4.874  10.699  17.250  0.00  0.00    +0.000 OA
ATOM     21  C   UNL     1      -5.478  11.501  18.169  0.00  0.00    +0.000 A 
ATOM     22  C   UNL     1      -6.945  11.608  18.100  0.00  0.00    +0.000 C 
ATOM     23  N   UNL     1      -4.636  12.080  18.991  0.00  0.00    +0.000 NA
ENDBRANCH  13  18
ENDBRANCH   7  11
BRANCH   1  29
ATOM     24  C   UNL     1       6.271   6.429  16.873  0.00  0.00    +0.000 A 
ATOM     25  C   UNL     1       7.184   5.459  16.408  0.00  0.00    +0.000 A 
ATOM     26  C   UNL     1       6.759   4.195  15.996  0.00  0.00    +0.000 A 
ATOM     27  C   UNL     1       5.407   3.895  16.017  0.00  0.00    +0.000 A 
ATOM     28  C   UNL     1       4.485   4.850  16.451  0.00  0.00    +0.000 A 
ATOM     29  C   UNL     1       4.896   6.116  16.894  0.00  0.00    +0.000 A 
BRANCH  24  31
ATOM     30  C   UNL     1       8.069   7.552  18.280  0.00  0.00    +0.000 C 
ATOM     31  C   UNL     1       6.864   7.734  17.371  0.00  0.00    +0.000 C 
ENDBRANCH  24  31
ENDBRANCH   1  29
TORSDOF 4
ENDMDL
MODEL 9
REMARK VINA RESULT:      -7.9      0.991      1.063
REMARK  Name = 
REMARK  7 active torsions:
REMARK  status: ('A' for Active; 'I' for Inactive)
REMARK    1  A    between atoms: C_1  and  C_2
REMARK    2  A    between atoms: C_2  and  C_3
REMARK    3  A    between atoms: C_8  and  N_9
REMARK    4  A    between atoms: N_15  and  C_16
REMARK    5  A    between atoms: C_18  and  C_19
REMARK    6  A    between atoms: C_22  and  C_23
REMARK    7  A    between atoms: C_27  and  C_28
REMARK                            x       y       z     vdW  Elec       q    Type
REMARK                         _______ _______ _______ _____ _____    ______ ____
ROOT
ATOM      1  N   UNL     1       2.210   7.821  19.089  0.00  0.00    +0.000 N 
ATOM      2  C   UNL     1       1.698   8.915  18.422  0.00  0.00    +0.000 C 
ATOM      3  O   UNL     1       1.633   9.018  17.199  0.00  0.00    +0.000 OA
ATOM      4  N   UNL     1       1.206   9.928  19.233  0.00  0.00    +0.000 N 
ATOM      5  C   UNL     1       0.497  11.066  18.628  0.00  0.00    +0.000 C 
ATOM      6  C   UNL     1      -0.929  11.195  19.207  0.00  0.00    +0.000 C 
ATOM      7  N   UNL     1      -0.916  11.204  20.695  0.00  0.00    +0.000 N 
ATOM      8  C   UNL     1      -0.138  10.105  21.294  0.00  0.00    +0.000 C 
ATOM      9  C   UNL     1       1.271  10.014  20.687  0.00  0.00    +0.000 C 
ATOM     10  H   UNL     1       1.880   7.681  20.026  0.00  0.00    +0.000 HD
ENDROOT
BRANCH   7  11
ATOM     11  C   UNL     1      -1.338  12.300  21.437  0.00  0.00    +0.000 A 
ATOM     12  C   UNL     1      -2.670  12.352  21.917  0.00  0.00    +0.000 A 
ATOM     13  C   UNL     1      -3.173  13.409  22.700  0.00  0.00    +0.000 A 
ATOM     14  C   UNL     1      -2.316  14.449  23.045  0.00  0.00    +0.000 A 
ATOM     15  C   UNL     1      -1.005  14.444  22.585  0.00  0.00    +0.000 A 
ATOM     16  C   UNL     1      -0.505  13.397  21.781  0.00  0.00    +0.000 A 
ATOM     17  C   UNL     1       0.945  13.534  21.381  0.00  0.00    +0.000 C 
BRANCH  13  18
ATOM     18  C   UNL     1      -4.571  13.426  23.116  0.00  0.00    +0.000 A 
ATOM     19  N   UNL     1      -5.125  14.414  23.842  0.00  0.00    +0.000 NA
ATOM     20  O   UNL     1      -6.457  14.029  23.966  0.00  0.00    +0.000 OA
ATOM     21  C   UNL     1      -6.580  12.846  23.305  0.00  0.00    +0.000 A 
ATOM     22  C   UNL     1      -7.913  12.218  23.302  0.00  0.00    +0.000 C 
ATOM     23  N   UNL     1      -5.459  12.429  22.767  0.00  0.00    +0.000 NA
ENDBRANCH  13  18
ENDBRANCH   7  11
BRANCH   1  29
ATOM     24  C   UNL     1       2.625   5.402  18.922  0.00  0.00    +0.000 A 
ATOM     25  C   UNL     1       3.350   4.341  18.341  0.00  0.00    +0.000 A 
ATOM     26  C   UNL     1       4.319   4.569  17.363  0.00  0.00    +0.000 A 
ATOM     27  C   UNL     1       4.596   5.869  16.974  0.00  0.00    +0.000 A 
ATOM     28  C   UNL     1       3.907   6.936  17.555  0.00  0.00    +0.000 A 
ATOM     29  C   UNL     1       2.910   6.724  18.520  0.00  0.00    +0.000 A 
BRANCH  24  31
ATOM     30  C   UNL     1       2.076   4.487  21.232  0.00  0.00    +0.000 C 
ATOM     31  C   UNL     1       1.541   5.020  19.913  0.00  0.00    +0.000 C 
ENDBRANCH  24  31
ENDBRANCH   1  29
TORSDOF 4
ENDMDL
