MODEL 1
REMARK VINA RESULT:      -7.4      0.000      0.000
REMARK  Name = 
REMARK  2 active torsions:
REMARK  status: ('A' for Active; 'I' for Inactive)
REMARK    1  A    between atoms: C_2  and  C_4
REMARK    2  A    between atoms: C_7  and  N_8
REMARK                            x       y       z     vdW  Elec       q    Type
REMARK                         _______ _______ _______ _____ _____    ______ ____
ROOT
ATOM      1  N   UNL     1       2.365   7.397  18.736  0.00  0.00    +0.000 N 
ATOM      2  C   UNL     1       1.712   8.172  19.621  0.00  0.00    +0.000 A 
ATOM      3  N   UNL     1       1.406   9.435  19.421  0.00  0.00    +0.000 NA
ATOM      4  C   UNL     1       0.726   9.844  20.540  0.00  0.00    +0.000 A 
ATOM      5  C   UNL     1       0.176  11.097  20.844  0.00  0.00    +0.000 A 
ATOM      6  C   UNL     1      -0.454  11.253  22.080  0.00  0.00    +0.000 A 
ATOM      7 CL   UNL     1      -1.142  12.780  22.487  0.00  0.00    +0.000 Cl
ATOM      8  C   UNL     1      -0.541  10.198  22.993  0.00  0.00    +0.000 A 
ATOM      9  C   UNL     1      -0.015   8.935  22.694  0.00  0.00    +0.000 A 
ATOM     10  C   UNL     1       0.607   8.802  21.451  0.00  0.00    +0.000 A 
ATOM     11  N   UNL     1       1.197   7.738  20.814  0.00  0.00    +0.000 N 
ATOM     12  H   UNL     1       2.566   7.875  17.861  0.00  0.00    +0.000 HD
ATOM     13  H   UNL     1       1.214   6.791  21.151  0.00  0.00    +0.000 HD
ENDROOT
BRANCH   1  17
ATOM     14  C   UNL     1       3.778   3.416  19.007  0.00  0.00    +0.000 A 
ATOM     15  C   UNL     1       2.502   3.702  18.526  0.00  0.00    +0.000 A 
ATOM     16  C   UNL     1       2.075   5.030  18.437  0.00  0.00    +0.000 A 
ATOM     17  C   UNL     1       2.913   6.103  18.793  0.00  0.00    +0.000 A 
ATOM     18  C   UNL     1       4.205   5.796  19.231  0.00  0.00    +0.000 A 
ATOM     19  C   UNL     1       4.636   4.465  19.347  0.00  0.00    +0.000 A 
BRANCH  14  21
ATOM     20  N   UNL     1       3.745   1.105  18.345  0.00  0.00    +0.000 NA
ATOM     21  C   UNL     1       4.212   1.998  19.151  0.00  0.00    +0.000 C 
ATOM     22  N   UNL     1       5.077   1.645  20.148  0.00  0.00    +0.000 N 
ATOM     23  H   UNL     1       4.163   0.196  18.552  0.00  0.00    +0.000 HD
ATOM     24  H   UNL     1       5.067   0.665  20.402  0.00  0.00    +0.000 HD
ATOM     25  H   UNL     1       5.057   2.238  20.971  0.00  0.00    +0.000 HD
ENDBRANCH  14  21
ENDBRANCH   1  17
TORSDOF 2
ENDMDL
MODEL 2
REMARK VINA RESULT:      -7.4      0.583      1.328
REMARK  Name = 
REMARK  2 active torsions:
REMARK  status: ('A' for Active; 'I' for Inactive)
REMARK    1  A    between atoms: C_2  and  C_4
REMARK    2  A    between atoms: C_7  and  N_8
REMARK                            x       y       z     vdW  Elec       q    Type
REMARK                         _______ _______ _______ _____ _____    ______ ____
ROOT
ATOM      1  N   UNL     1       2.214   7.377  19.223  0.00  0.00    +0.000 N 
ATOM      2  C   UNL     1       1.554   8.235  20.021  0.00  0.00    +0.000 A 
ATOM      3  N   UNL     1       1.326   9.497  19.730  0.00  0.00    +0.000 NA
ATOM      4  C   UNL     1       0.607  10.006  20.781  0.00  0.00    +0.000 A 
ATOM      5  C   UNL     1       0.107  11.300  20.979  0.00  0.00    +0.000 A 
ATOM      6  C   UNL     1      -0.584  11.562  22.165  0.00  0.00    +0.000 A 
ATOM      7 CL   UNL     1      -1.213  13.142  22.441  0.00  0.00    +0.000 Cl
ATOM      8  C   UNL     1      -0.777  10.570  23.131  0.00  0.00    +0.000 A 
ATOM      9  C   UNL     1      -0.300   9.267  22.937  0.00  0.00    +0.000 A 
ATOM     10  C   UNL     1       0.382   9.029  21.743  0.00  0.00    +0.000 A 
ATOM     11  N   UNL     1       0.951   7.900  21.205  0.00  0.00    +0.000 N 
ATOM     12  H   UNL     1       2.489   7.790  18.334  0.00  0.00    +0.000 HD
ATOM     13  H   UNL     1       0.899   6.975  21.596  0.00  0.00    +0.000 HD
ENDROOT
BRANCH   1  17
ATOM     14  C   UNL     1       3.776   3.451  19.482  0.00  0.00    +0.000 A 
ATOM     15  C   UNL     1       4.569   4.522  19.074  0.00  0.00    +0.000 A 
ATOM     16  C   UNL     1       4.023   5.807  19.014  0.00  0.00    +0.000 A 
ATOM     17  C   UNL     1       2.690   6.064  19.387  0.00  0.00    +0.000 A 
ATOM     18  C   UNL     1       1.925   4.982  19.835  0.00  0.00    +0.000 A 
ATOM     19  C   UNL     1       2.457   3.684  19.876  0.00  0.00    +0.000 A 
BRANCH  14  21
ATOM     20  N   UNL     1       5.166   1.733  20.430  0.00  0.00    +0.000 NA
ATOM     21  C   UNL     1       4.345   2.074  19.494  0.00  0.00    +0.000 C 
ATOM     22  N   UNL     1       4.019   1.190  18.505  0.00  0.00    +0.000 N 
ATOM     23  H   UNL     1       5.436   0.755  20.317  0.00  0.00    +0.000 HD
ATOM     24  H   UNL     1       4.671   0.426  18.377  0.00  0.00    +0.000 HD
ATOM     25  H   UNL     1       3.764   1.608  17.616  0.00  0.00    +0.000 HD
ENDBRANCH  14  21
ENDBRANCH   1  17
TORSDOF 2
ENDMDL
MODEL 3
REMARK VINA RESULT:      -7.3      1.425      1.793
REMARK  Name = 
REMARK  2 active torsions:
REMARK  status: ('A' for Active; 'I' for Inactive)
REMARK    1  A    between atoms: C_2  and  C_4
REMARK    2  A    between atoms: C_7  and  N_8
REMARK                            x       y       z     vdW  Elec       q    Type
REMARK                         _______ _______ _______ _____ _____    ______ ____
ROOT
ATOM      1  N   UNL     1       1.839   8.560  18.473  0.00  0.00    +0.000 N 
ATOM      2  C   UNL     1       1.148   9.152  19.464  0.00  0.00    +0.000 A 
ATOM      3  N   UNL     1       0.474  10.273  19.335  0.00  0.00    +0.000 NA
ATOM      4  C   UNL     1      -0.102  10.514  20.556  0.00  0.00    +0.000 A 
ATOM      5  C   UNL     1      -0.922  11.575  20.964  0.00  0.00    +0.000 A 
ATOM      6  C   UNL     1      -1.362  11.590  22.290  0.00  0.00    +0.000 A 
ATOM      7 CL   UNL     1      -2.373  12.879  22.826  0.00  0.00    +0.000 Cl
ATOM      8  C   UNL     1      -1.001  10.584  23.190  0.00  0.00    +0.000 A 
ATOM      9  C   UNL     1      -0.199   9.507  22.790  0.00  0.00    +0.000 A 
ATOM     10  C   UNL     1       0.224   9.511  21.460  0.00  0.00    +0.000 A 
ATOM     11  N   UNL     1       0.976   8.632  20.720  0.00  0.00    +0.000 N 
ATOM     12  H   UNL     1       1.753   9.045  17.583  0.00  0.00    +0.000 HD
ATOM     13  H   UNL     1       1.311   7.738  21.035  0.00  0.00    +0.000 HD
ENDROOT
BRANCH   1  17
ATOM     14  C   UNL     1       4.522   5.287  18.585  0.00  0.00    +0.000 A 
ATOM     15  C   UNL     1       3.441   5.370  19.460  0.00  0.00    +0.000 A 
ATOM     16  C   UNL     1       2.567   6.458  19.385  0.00  0.00    +0.000 A 
ATOM     17  C   UNL     1       2.728   7.471  18.420  0.00  0.00    +0.000 A 
ATOM     18  C   UNL     1       3.793   7.346  17.523  0.00  0.00    +0.000 A 
ATOM     19  C   UNL     1       4.690   6.269  17.606  0.00  0.00    +0.000 A 
BRANCH  14  21
ATOM     20  N   UNL     1       5.109   3.061  19.280  0.00  0.00    +0.000 NA
ATOM     21  C   UNL     1       5.482   4.154  18.702  0.00  0.00    +0.000 C 
ATOM     22  N   UNL     1       6.755   4.284  18.225  0.00  0.00    +0.000 N 
ATOM     23  H   UNL     1       5.865   2.376  19.249  0.00  0.00    +0.000 HD
ATOM     24  H   UNL     1       7.432   3.644  18.622  0.00  0.00    +0.000 HD
ATOM     25  H   UNL     1       7.115   5.232  18.202  0.00  0.00    +0.000 HD
ENDBRANCH  14  21
ENDBRANCH   1  17
TORSDOF 2
ENDMDL
MODEL 4
REMARK VINA RESULT:      -7.3      2.768      3.241
REMARK  Name = 
REMARK  2 active torsions:
REMARK  status: ('A' for Active; 'I' for Inactive)
REMARK    1  A    between atoms: C_2  and  C_4
REMARK    2  A    between atoms: C_7  and  N_8
REMARK                            x       y       z     vdW  Elec       q    Type
REMARK                         _______ _______ _______ _____ _____    ______ ____
ROOT
ATOM      1  N   UNL     1       3.034   6.200  19.345  0.00  0.00    +0.000 N 
ATOM      2  C   UNL     1       2.263   7.216  19.771  0.00  0.00    +0.000 A 
ATOM      3  N   UNL     1       1.570   7.207  20.889  0.00  0.00    +0.000 NA
ATOM      4  C   UNL     1       0.953   8.429  20.965  0.00  0.00    +0.000 A 
ATOM      5  C   UNL     1       0.100   8.940  21.952  0.00  0.00    +0.000 A 
ATOM      6  C   UNL     1      -0.415  10.226  21.772  0.00  0.00    +0.000 A 
ATOM      7 CL   UNL     1      -1.467  10.886  22.967  0.00  0.00    +0.000 Cl
ATOM      8  C   UNL     1      -0.093  10.990  20.646  0.00  0.00    +0.000 A 
ATOM      9  C   UNL     1       0.775  10.500  19.662  0.00  0.00    +0.000 A 
ATOM     10  C   UNL     1       1.280   9.214  19.866  0.00  0.00    +0.000 A 
ATOM     11  N   UNL     1       2.157   8.434  19.153  0.00  0.00    +0.000 N 
ATOM     12  H   UNL     1       3.069   5.423  20.001  0.00  0.00    +0.000 HD
ATOM     13  H   UNL     1       2.665   8.723  18.335  0.00  0.00    +0.000 HD
ENDROOT
BRANCH   1  17
ATOM     14  C   UNL     1       5.232   5.201  15.867  0.00  0.00    +0.000 A 
ATOM     15  C   UNL     1       4.612   4.222  16.640  0.00  0.00    +0.000 A 
ATOM     16  C   UNL     1       3.882   4.590  17.774  0.00  0.00    +0.000 A 
ATOM     17  C   UNL     1       3.725   5.938  18.148  0.00  0.00    +0.000 A 
ATOM     18  C   UNL     1       4.319   6.907  17.334  0.00  0.00    +0.000 A 
ATOM     19  C   UNL     1       5.074   6.547  16.207  0.00  0.00    +0.000 A 
BRANCH  14  21
ATOM     20  N   UNL     1       5.546   4.023  13.795  0.00  0.00    +0.000 NA
ATOM     21  C   UNL     1       6.054   4.803  14.690  0.00  0.00    +0.000 C 
ATOM     22  N   UNL     1       7.343   5.240  14.575  0.00  0.00    +0.000 N 
ATOM     23  H   UNL     1       6.219   3.873  13.042  0.00  0.00    +0.000 HD
ATOM     24  H   UNL     1       7.934   4.686  13.967  0.00  0.00    +0.000 HD
ATOM     25  H   UNL     1       7.809   5.449  15.452  0.00  0.00    +0.000 HD
ENDBRANCH  14  21
ENDBRANCH   1  17
TORSDOF 2
ENDMDL
MODEL 5
REMARK VINA RESULT:      -7.3      2.995      3.752
REMARK  Name = 
REMARK  2 active torsions:
REMARK  status: ('A' for Active; 'I' for Inactive)
REMARK    1  A    between atoms: C_2  and  C_4
REMARK    2  A    between atoms: C_7  and  N_8
REMARK                            x       y       z     vdW  Elec       q    Type
REMARK                         _______ _______ _______ _____ _____    ______ ____
ROOT
ATOM      1  N   UNL     1       3.534   6.130  19.049  0.00  0.00    +0.000 N 
ATOM      2  C   UNL     1       2.698   7.172  19.205  0.00  0.00    +0.000 A 
ATOM      3  N   UNL     1       1.959   7.380  20.273  0.00  0.00    +0.000 NA
ATOM      4  C   UNL     1       1.282   8.551  20.046  0.00  0.00    +0.000 A 
ATOM      5  C   UNL     1       0.363   9.225  20.862  0.00  0.00    +0.000 A 
ATOM      6  C   UNL     1      -0.204  10.404  20.373  0.00  0.00    +0.000 A 
ATOM      7 CL   UNL     1      -1.337  11.260  21.350  0.00  0.00    +0.000 Cl
ATOM      8  C   UNL     1       0.128  10.906  19.112  0.00  0.00    +0.000 A 
ATOM      9  C   UNL     1       1.059  10.254  18.295  0.00  0.00    +0.000 A 
ATOM     10  C   UNL     1       1.617   9.080  18.806  0.00  0.00    +0.000 A 
ATOM     11  N   UNL     1       2.560   8.208  18.319  0.00  0.00    +0.000 N 
ATOM     12  H   UNL     1       3.578   5.529  19.868  0.00  0.00    +0.000 HD
ATOM     13  H   UNL     1       3.088   8.330  17.473  0.00  0.00    +0.000 HD
ENDROOT
BRANCH   1  17
ATOM     14  C   UNL     1       5.824   4.911  15.704  0.00  0.00    +0.000 A 
ATOM     15  C   UNL     1       6.164   6.042  16.442  0.00  0.00    +0.000 A 
ATOM     16  C   UNL     1       5.393   6.407  17.550  0.00  0.00    +0.000 A 
ATOM     17  C   UNL     1       4.288   5.641  17.967  0.00  0.00    +0.000 A 
ATOM     18  C   UNL     1       3.991   4.485  17.238  0.00  0.00    +0.000 A 
ATOM     19  C   UNL     1       4.745   4.123  16.111  0.00  0.00    +0.000 A 
BRANCH  14  21
ATOM     20  N   UNL     1       7.612   5.296  14.142  0.00  0.00    +0.000 NA
ATOM     21  C   UNL     1       6.615   4.554  14.493  0.00  0.00    +0.000 C 
ATOM     22  N   UNL     1       6.269   3.464  13.745  0.00  0.00    +0.000 N 
ATOM     23  H   UNL     1       8.068   4.902  13.318  0.00  0.00    +0.000 HD
ATOM     24  H   UNL     1       6.608   3.470  12.791  0.00  0.00    +0.000 HD
ATOM     25  H   UNL     1       5.289   3.204  13.786  0.00  0.00    +0.000 HD
ENDBRANCH  14  21
ENDBRANCH   1  17
TORSDOF 2
ENDMDL
MODEL 6
REMARK VINA RESULT:      -7.2      1.531      2.007
REMARK  Name = 
REMARK  2 active torsions:
REMARK  status: ('A' for Active; 'I' for Inactive)
REMARK    1  A    between atoms: C_2  and  C_4
REMARK    2  A    between atoms: C_7  and  N_8
REMARK                            x       y       z     vdW  Elec       q    Type
REMARK                         _______ _______ _______ _____ _____    ______ ____
ROOT
ATOM      1  N   UNL     1       1.709   8.632  18.631  0.00  0.00    +0.000 N 
ATOM      2  C   UNL     1       0.997   9.285  19.567  0.00  0.00    +0.000 A 
ATOM      3  N   UNL     1       0.324  10.394  19.351  0.00  0.00    +0.000 NA
ATOM      4  C   UNL     1      -0.277  10.713  20.542  0.00  0.00    +0.000 A 
ATOM      5  C   UNL     1      -1.108  11.795  20.863  0.00  0.00    +0.000 A 
ATOM      6  C   UNL     1      -1.575  11.896  22.176  0.00  0.00    +0.000 A 
ATOM      7 CL   UNL     1      -2.599  13.213  22.605  0.00  0.00    +0.000 Cl
ATOM      8  C   UNL     1      -1.232  10.951  23.147  0.00  0.00    +0.000 A 
ATOM      9  C   UNL     1      -0.420   9.853  22.835  0.00  0.00    +0.000 A 
ATOM     10  C   UNL     1       0.031   9.771  21.516  0.00  0.00    +0.000 A 
ATOM     11  N   UNL     1       0.799   8.847  20.850  0.00  0.00    +0.000 N 
ATOM     12  H   UNL     1       1.641   9.059  17.710  0.00  0.00    +0.000 HD
ATOM     13  H   UNL     1       1.128   7.977  21.230  0.00  0.00    +0.000 HD
ENDROOT
BRANCH   1  17
ATOM     14  C   UNL     1       4.366   5.341  18.474  0.00  0.00    +0.000 A 
ATOM     15  C   UNL     1       4.437   6.375  17.544  0.00  0.00    +0.000 A 
ATOM     16  C   UNL     1       3.552   7.454  17.635  0.00  0.00    +0.000 A 
ATOM     17  C   UNL     1       2.600   7.545  18.668  0.00  0.00    +0.000 A 
ATOM     18  C   UNL     1       2.576   6.517  19.616  0.00  0.00    +0.000 A 
ATOM     19  C   UNL     1       3.444   5.419  19.520  0.00  0.00    +0.000 A 
BRANCH  14  21
ATOM     20  N   UNL     1       5.242   3.235  19.237  0.00  0.00    +0.000 NA
ATOM     21  C   UNL     1       5.274   4.167  18.344  0.00  0.00    +0.000 C 
ATOM     22  N   UNL     1       6.152   4.093  17.300  0.00  0.00    +0.000 N 
ATOM     23  H   UNL     1       5.895   2.491  18.988  0.00  0.00    +0.000 HD
ATOM     24  H   UNL     1       6.944   3.478  17.445  0.00  0.00    +0.000 HD
ATOM     25  H   UNL     1       6.445   4.986  16.916  0.00  0.00    +0.000 HD
ENDBRANCH  14  21
ENDBRANCH   1  17
TORSDOF 2
ENDMDL
MODEL 7
REMARK VINA RESULT:      -7.2      3.714      8.141
REMARK  Name = 
REMARK  2 active torsions:
REMARK  status: ('A' for Active; 'I' for Inactive)
REMARK    1  A    between atoms: C_2  and  C_4
REMARK    2  A    between atoms: C_7  and  N_8
REMARK                            x       y       z     vdW  Elec       q    Type
REMARK                         _______ _______ _______ _____ _____    ______ ____
ROOT
ATOM      1  N   UNL     1       1.729   8.347  20.168  0.00  0.00    +0.000 N 
ATOM      2  C   UNL     1       1.906   7.017  20.073  0.00  0.00    +0.000 A 
ATOM      3  N   UNL     1       2.667   6.429  19.175  0.00  0.00    +0.000 NA
ATOM      4  C   UNL     1       2.596   5.085  19.438  0.00  0.00    +0.000 A 
ATOM      5  C   UNL     1       3.217   4.012  18.783  0.00  0.00    +0.000 A 
ATOM      6  C   UNL     1       2.955   2.721  19.248  0.00  0.00    +0.000 A 
ATOM      7 CL   UNL     1       3.701   1.379  18.466  0.00  0.00    +0.000 Cl
ATOM      8  C   UNL     1       2.104   2.495  20.333  0.00  0.00    +0.000 A 
ATOM      9  C   UNL     1       1.494   3.559  21.010  0.00  0.00    +0.000 A 
ATOM     10  C   UNL     1       1.774   4.839  20.530  0.00  0.00    +0.000 A 
ATOM     11  N   UNL     1       1.393   6.093  20.944  0.00  0.00    +0.000 N 
ATOM     12  H   UNL     1       2.285   8.871  19.496  0.00  0.00    +0.000 HD
ATOM     13  H   UNL     1       0.860   6.299  21.771  0.00  0.00    +0.000 HD
ENDROOT
BRANCH   1  17
ATOM     14  C   UNL     1      -0.746  11.018  22.325  0.00  0.00    +0.000 A 
ATOM     15  C   UNL     1      -0.570  11.144  20.949  0.00  0.00    +0.000 A 
ATOM     16  C   UNL     1       0.244  10.234  20.267  0.00  0.00    +0.000 A 
ATOM     17  C   UNL     1       0.875   9.164  20.929  0.00  0.00    +0.000 A 
ATOM     18  C   UNL     1       0.649   9.031  22.303  0.00  0.00    +0.000 A 
ATOM     19  C   UNL     1      -0.147   9.953  23.001  0.00  0.00    +0.000 A 
BRANCH  14  21
ATOM     20  N   UNL     1      -1.059  13.167  23.360  0.00  0.00    +0.000 NA
ATOM     21  C   UNL     1      -1.570  12.020  23.058  0.00  0.00    +0.000 C 
ATOM     22  N   UNL     1      -2.848  11.714  23.431  0.00  0.00    +0.000 N 
ATOM     23  H   UNL     1      -1.757  13.747  23.827  0.00  0.00    +0.000 HD
ATOM     24  H   UNL     1      -3.221  12.270  24.191  0.00  0.00    +0.000 HD
ATOM     25  H   UNL     1      -3.033  10.726  23.574  0.00  0.00    +0.000 HD
ENDBRANCH  14  21
ENDBRANCH   1  17
TORSDOF 2
ENDMDL
MODEL 8
REMARK VINA RESULT:      -7.2      1.052      1.455
REMARK  Name = 
REMARK  2 active torsions:
REMARK  status: ('A' for Active; 'I' for Inactive)
REMARK    1  A    between atoms: C_2  and  C_4
REMARK    2  A    between atoms: C_7  and  N_8
REMARK                            x       y       z     vdW  Elec       q    Type
REMARK                         _______ _______ _______ _____ _____    ______ ____
ROOT
ATOM      1  N   UNL     1       2.768   7.277  17.781  0.00  0.00    +0.000 N 
ATOM      2  C   UNL     1       2.155   8.241  18.491  0.00  0.00    +0.000 A 
ATOM      3  N   UNL     1       1.914   9.455  18.045  0.00  0.00    +0.000 NA
ATOM      4  C   UNL     1       1.256  10.108  19.055  0.00  0.00    +0.000 A 
ATOM      5  C   UNL     1       0.770  11.422  19.103  0.00  0.00    +0.000 A 
ATOM      6  C   UNL     1       0.148  11.848  20.279  0.00  0.00    +0.000 A 
ATOM      7 CL   UNL     1      -0.462  13.457  20.372  0.00  0.00    +0.000 Cl
ATOM      8  C   UNL     1       0.007  10.998  21.379  0.00  0.00    +0.000 A 
ATOM      9  C   UNL     1       0.468   9.676  21.338  0.00  0.00    +0.000 A 
ATOM     10  C   UNL     1       1.083   9.272  20.151  0.00  0.00    +0.000 A 
ATOM     11  N   UNL     1       1.618   8.075  19.741  0.00  0.00    +0.000 N 
ATOM     12  H   UNL     1       2.994   7.563  16.832  0.00  0.00    +0.000 HD
ATOM     13  H   UNL     1       1.586   7.212  20.256  0.00  0.00    +0.000 HD
ENDROOT
BRANCH   1  17
ATOM     14  C   UNL     1       3.970   3.353  18.820  0.00  0.00    +0.000 A 
ATOM     15  C   UNL     1       2.749   3.596  18.195  0.00  0.00    +0.000 A 
ATOM     16  C   UNL     1       2.391   4.904  17.854  0.00  0.00    +0.000 A 
ATOM     17  C   UNL     1       3.249   5.993  18.096  0.00  0.00    +0.000 A 
ATOM     18  C   UNL     1       4.489   5.721  18.684  0.00  0.00    +0.000 A 
ATOM     19  C   UNL     1       4.847   4.414  19.052  0.00  0.00    +0.000 A 
BRANCH  14  21
ATOM     20  N   UNL     1       5.030   1.779  20.296  0.00  0.00    +0.000 NA
ATOM     21  C   UNL     1       4.325   1.966  19.231  0.00  0.00    +0.000 C 
ATOM     22  N   UNL     1       3.931   0.903  18.468  0.00  0.00    +0.000 N 
ATOM     23  H   UNL     1       5.158   0.779  20.458  0.00  0.00    +0.000 HD
ATOM     24  H   UNL     1       4.468   0.055  18.599  0.00  0.00    +0.000 HD
ATOM     25  H   UNL     1       3.793   1.103  17.483  0.00  0.00    +0.000 HD
ENDBRANCH  14  21
ENDBRANCH   1  17
TORSDOF 2
ENDMDL
MODEL 9
REMARK VINA RESULT:      -7.2      1.477      1.921
REMARK  Name = 
REMARK  2 active torsions:
REMARK  status: ('A' for Active; 'I' for Inactive)
REMARK    1  A    between atoms: C_2  and  C_4
REMARK    2  A    between atoms: C_7  and  N_8
REMARK                            x       y       z     vdW  Elec       q    Type
REMARK                         _______ _______ _______ _____ _____    ______ ____
ROOT
ATOM      1  N   UNL     1       2.057   8.525  18.328  0.00  0.00    +0.000 N 
ATOM      2  C   UNL     1       1.420   9.090  19.370  0.00  0.00    +0.000 A 
ATOM      3  N   UNL     1       1.035  10.347  19.414  0.00  0.00    +0.000 NA
ATOM      4  C   UNL     1       0.407  10.511  20.622  0.00  0.00    +0.000 A 
ATOM      5  C   UNL     1      -0.189  11.654  21.172  0.00  0.00    +0.000 A 
ATOM      6  C   UNL     1      -0.748  11.551  22.448  0.00  0.00    +0.000 A 
ATOM      7 CL   UNL     1      -1.489  12.937  23.155  0.00  0.00    +0.000 Cl
ATOM      8  C   UNL     1      -0.721  10.350  23.163  0.00  0.00    +0.000 A 
ATOM      9  C   UNL     1      -0.148   9.195  22.616  0.00  0.00    +0.000 A 
ATOM     10  C   UNL     1       0.401   9.320  21.338  0.00  0.00    +0.000 A 
ATOM     11  N   UNL     1       1.005   8.423  20.492  0.00  0.00    +0.000 N 
ATOM     12  H   UNL     1       2.176   9.159  17.543  0.00  0.00    +0.000 HD
ATOM     13  H   UNL     1       1.093   7.435  20.653  0.00  0.00    +0.000 HD
ENDROOT
BRANCH   1  17
ATOM     14  C   UNL     1       4.005   4.864  17.479  0.00  0.00    +0.000 A 
ATOM     15  C   UNL     1       4.615   6.088  17.216  0.00  0.00    +0.000 A 
ATOM     16  C   UNL     1       3.947   7.277  17.523  0.00  0.00    +0.000 A 
ATOM     17  C   UNL     1       2.675   7.278  18.125  0.00  0.00    +0.000 A 
ATOM     18  C   UNL     1       2.100   6.038  18.421  0.00  0.00    +0.000 A 
ATOM     19  C   UNL     1       2.752   4.839  18.095  0.00  0.00    +0.000 A 
BRANCH  14  21
ATOM     20  N   UNL     1       5.691   3.638  16.280  0.00  0.00    +0.000 NA
ATOM     21  C   UNL     1       4.696   3.599  17.102  0.00  0.00    +0.000 C 
ATOM     22  N   UNL     1       4.260   2.405  17.603  0.00  0.00    +0.000 N 
ATOM     23  H   UNL     1       6.073   2.699  16.151  0.00  0.00    +0.000 HD
ATOM     24  H   UNL     1       4.530   1.588  17.070  0.00  0.00    +0.000 HD
ATOM     25  H   UNL     1       3.277   2.372  17.852  0.00  0.00    +0.000 HD
ENDBRANCH  14  21
ENDBRANCH   1  17
TORSDOF 2
ENDMDL
