MODEL 1
REMARK VINA RESULT:      -8.0      0.000      0.000
REMARK  Name = 
REMARK  7 active torsions:
REMARK  status: ('A' for Active; 'I' for Inactive)
REMARK    1  A    between atoms: C_2  and  C_3
REMARK    2  A    between atoms: N_11  and  C_12
REMARK    3  A    between atoms: C_12  and  C_13
REMARK    4  A    between atoms: C_13  and  N_14
REMARK    5  A    between atoms: C_17  and  N_18
REMARK    6  A    between atoms: N_18  and  C_19
REMARK    7  A    between atoms: C_19  and  C_20
REMARK                            x       y       z     vdW  Elec       q    Type
REMARK                         _______ _______ _______ _____ _____    ______ ____
ROOT
ATOM      1  N   UNL     1       2.784   2.792  18.862  0.00  0.00    +0.000 NA
ATOM      2  C   UNL     1       1.603   3.660  18.744  0.00  0.00    +0.000 C 
ATOM      3  C   UNL     1       0.855   3.778  20.072  0.00  0.00    +0.000 C 
ATOM      4  C   UNL     1       1.759   4.365  21.181  0.00  0.00    +0.000 C 
ATOM      5  C   UNL     1       2.926   3.377  21.338  0.00  0.00    +0.000 C 
ATOM      6  F   UNL     1       2.425   2.177  21.768  0.00  0.00    +0.000 F 
ATOM      7  C   UNL     1       3.652   3.153  20.008  0.00  0.00    +0.000 C 
ENDROOT
BRANCH   4   8
ATOM      8  N   UNL     1       2.218   5.773  20.942  0.00  0.00    +0.000 NA
ATOM      9  H   UNL     1       2.519   5.878  19.973  0.00  0.00    +0.000 HD
BRANCH   8  10
ATOM     10  C   UNL     1       1.099   6.696  21.187  0.00  0.00    +0.000 C 
BRANCH  10  11
ATOM     11  C   UNL     1       1.200   8.141  20.757  0.00  0.00    +0.000 A 
ATOM     12  C   UNL     1       0.904   9.245  21.552  0.00  0.00    +0.000 A 
ATOM     13  C   UNL     1       0.892  10.509  20.948  0.00  0.00    +0.000 A 
ATOM     14  C   UNL     1       1.236  10.642  19.608  0.00  0.00    +0.000 A 
ATOM     15  C   UNL     1       1.522   9.502  18.894  0.00  0.00    +0.000 A 
ATOM     16  N   UNL     1       1.494   8.270  19.432  0.00  0.00    +0.000 NA
ATOM     17  O   UNL     1       1.293  11.841  18.960  0.00  0.00    +0.000 OA
ATOM     18  C   UNL     1       0.262  12.679  19.468  0.00  0.00    +0.000 C 
ATOM     19  C   UNL     1       0.324  12.804  20.987  0.00  0.00    +0.000 C 
ATOM     20  O   UNL     1       0.487  11.573  21.709  0.00  0.00    +0.000 OA
ENDBRANCH  10  11
ENDBRANCH   8  10
ENDBRANCH   4   8
BRANCH   1  21
ATOM     21  C   UNL     1       3.543   2.771  17.590  0.00  0.00    +0.000 C 
BRANCH  21  22
ATOM     22  C   UNL     1       3.338   4.055  16.765  0.00  0.00    +0.000 C 
BRANCH  22  31
ATOM     23  C   UNL     1       5.991   3.784  13.348  0.00  0.00    +0.000 A 
ATOM     24  C   UNL     1       7.249   4.386  13.421  0.00  0.00    +0.000 A 
ATOM     25  C   UNL     1       7.590   5.167  14.529  0.00  0.00    +0.000 A 
ATOM     26  C   UNL     1       6.674   5.350  15.574  0.00  0.00    +0.000 A 
ATOM     27  C   UNL     1       7.019   6.206  16.708  0.00  0.00    +0.000 A 
ATOM     28  C   UNL     1       6.127   6.428  17.676  0.00  0.00    +0.000 A 
ATOM     29  C   UNL     1       4.798   5.782  17.673  0.00  0.00    +0.000 A 
ATOM     30  O   UNL     1       4.017   6.023  18.590  0.00  0.00    +0.000 OA
ATOM     31  N   UNL     1       4.529   4.892  16.635  0.00  0.00    +0.000 N 
ATOM     32  C   UNL     1       5.422   4.711  15.531  0.00  0.00    +0.000 A 
ATOM     33  C   UNL     1       5.088   3.937  14.407  0.00  0.00    +0.000 A 
BRANCH  23  35
ATOM     34  N   UNL     1       5.331   2.383  11.256  0.00  0.00    +0.000 NA
ATOM     35  C   UNL     1       5.625   3.010  12.193  0.00  0.00    +0.000 C 
ENDBRANCH  23  35
ENDBRANCH  22  31
ENDBRANCH  21  22
ENDBRANCH   1  21
TORSDOF 7
ENDMDL
MODEL 2
REMARK VINA RESULT:      -7.8      0.627      1.228
REMARK  Name = 
REMARK  7 active torsions:
REMARK  status: ('A' for Active; 'I' for Inactive)
REMARK    1  A    between atoms: C_2  and  C_3
REMARK    2  A    between atoms: N_11  and  C_12
REMARK    3  A    between atoms: C_12  and  C_13
REMARK    4  A    between atoms: C_13  and  N_14
REMARK    5  A    between atoms: C_17  and  N_18
REMARK    6  A    between atoms: N_18  and  C_19
REMARK    7  A    between atoms: C_19  and  C_20
REMARK                            x       y       z     vdW  Elec       q    Type
REMARK                         _______ _______ _______ _____ _____    ______ ____
ROOT
ATOM      1  N   UNL     1       2.719   2.764  18.976  0.00  0.00    +0.000 NA
ATOM      2  C   UNL     1       1.715   3.823  18.800  0.00  0.00    +0.000 C 
ATOM      3  C   UNL     1       0.822   3.964  20.033  0.00  0.00    +0.000 C 
ATOM      4  C   UNL     1       1.648   4.306  21.294  0.00  0.00    +0.000 C 
ATOM      5  C   UNL     1       2.614   3.129  21.495  0.00  0.00    +0.000 C 
ATOM      6  F   UNL     1       1.880   2.000  21.745  0.00  0.00    +0.000 F 
ATOM      7  C   UNL     1       3.470   2.888  20.248  0.00  0.00    +0.000 C 
ENDROOT
BRANCH   4   8
ATOM      8  N   UNL     1       2.348   5.632  21.249  0.00  0.00    +0.000 NA
ATOM      9  H   UNL     1       3.346   5.490  21.091  0.00  0.00    +0.000 HD
BRANCH   8  10
ATOM     10  C   UNL     1       1.808   6.430  20.137  0.00  0.00    +0.000 C 
BRANCH  10  11
ATOM     11  C   UNL     1       1.395   7.865  20.363  0.00  0.00    +0.000 A 
ATOM     12  C   UNL     1       1.247   8.830  19.372  0.00  0.00    +0.000 A 
ATOM     13  C   UNL     1       1.019  10.155  19.769  0.00  0.00    +0.000 A 
ATOM     14  C   UNL     1       0.879  10.461  21.118  0.00  0.00    +0.000 A 
ATOM     15  C   UNL     1       1.033   9.448  22.034  0.00  0.00    +0.000 A 
ATOM     16  N   UNL     1       1.301   8.177  21.687  0.00  0.00    +0.000 NA
ATOM     17  O   UNL     1       0.611  11.715  21.581  0.00  0.00    +0.000 OA
ATOM     18  C   UNL     1       1.278  12.657  20.751  0.00  0.00    +0.000 C 
ATOM     19  C   UNL     1       0.934  12.466  19.277  0.00  0.00    +0.000 C 
ATOM     20  O   UNL     1       0.990  11.115  18.793  0.00  0.00    +0.000 OA
ENDBRANCH  10  11
ENDBRANCH   8  10
ENDBRANCH   4   8
BRANCH   1  21
ATOM     21  C   UNL     1       3.630   2.713  17.809  0.00  0.00    +0.000 C 
BRANCH  21  22
ATOM     22  C   UNL     1       3.494   3.951  16.905  0.00  0.00    +0.000 C 
BRANCH  22  31
ATOM     23  C   UNL     1       5.844   3.789  13.267  0.00  0.00    +0.000 A 
ATOM     24  C   UNL     1       7.142   4.306  13.279  0.00  0.00    +0.000 A 
ATOM     25  C   UNL     1       7.621   4.975  14.409  0.00  0.00    +0.000 A 
ATOM     26  C   UNL     1       6.805   5.130  15.537  0.00  0.00    +0.000 A 
ATOM     27  C   UNL     1       7.295   5.871  16.698  0.00  0.00    +0.000 A 
ATOM     28  C   UNL     1       6.499   6.070  17.751  0.00  0.00    +0.000 A 
ATOM     29  C   UNL     1       5.134   5.509  17.812  0.00  0.00    +0.000 A 
ATOM     30  O   UNL     1       4.446   5.724  18.807  0.00  0.00    +0.000 OA
ATOM     31  N   UNL     1       4.725   4.721  16.738  0.00  0.00    +0.000 N 
ATOM     32  C   UNL     1       5.514   4.574  15.553  0.00  0.00    +0.000 A 
ATOM     33  C   UNL     1       5.041   3.913  14.406  0.00  0.00    +0.000 A 
BRANCH  23  35
ATOM     34  N   UNL     1       4.926   2.604  11.140  0.00  0.00    +0.000 NA
ATOM     35  C   UNL     1       5.338   3.133  12.093  0.00  0.00    +0.000 C 
ENDBRANCH  23  35
ENDBRANCH  22  31
ENDBRANCH  21  22
ENDBRANCH   1  21
TORSDOF 7
ENDMDL
MODEL 3
REMARK VINA RESULT:      -7.8      4.269      6.261
REMARK  Name = 
REMARK  7 active torsions:
REMARK  status: ('A' for Active; 'I' for Inactive)
REMARK    1  A    between atoms: C_2  and  C_3
REMARK    2  A    between atoms: N_11  and  C_12
REMARK    3  A    between atoms: C_12  and  C_13
REMARK    4  A    between atoms: C_13  and  N_14
REMARK    5  A    between atoms: C_17  and  N_18
REMARK    6  A    between atoms: N_18  and  C_19
REMARK    7  A    between atoms: C_19  and  C_20
REMARK                            x       y       z     vdW  Elec       q    Type
REMARK                         _______ _______ _______ _____ _____    ______ ____
ROOT
ATOM      1  N   UNL     1       1.839   8.987  19.307  0.00  0.00    +0.000 NA
ATOM      2  C   UNL     1       0.670   8.696  20.150  0.00  0.00    +0.000 C 
ATOM      3  C   UNL     1       0.056   9.974  20.722  0.00  0.00    +0.000 C 
ATOM      4  C   UNL     1      -0.402  10.935  19.601  0.00  0.00    +0.000 C 
ATOM      5  C   UNL     1       0.865  11.288  18.807  0.00  0.00    +0.000 C 
ATOM      6  F   UNL     1       1.724  11.959  19.635  0.00  0.00    +0.000 F 
ATOM      7  C   UNL     1       1.570  10.030  18.289  0.00  0.00    +0.000 C 
ENDROOT
BRANCH   4   8
ATOM      8  N   UNL     1      -1.506  10.408  18.730  0.00  0.00    +0.000 NA
ATOM      9  H   UNL     1      -2.112   9.794  19.276  0.00  0.00    +0.000 HD
BRANCH   8  10
ATOM     10  C   UNL     1      -2.309  11.535  18.230  0.00  0.00    +0.000 C 
BRANCH  10  11
ATOM     11  C   UNL     1      -3.714  11.751  18.744  0.00  0.00    +0.000 A 
ATOM     12  C   UNL     1      -4.054  12.441  19.904  0.00  0.00    +0.000 A 
ATOM     13  C   UNL     1      -5.390  12.408  20.324  0.00  0.00    +0.000 A 
ATOM     14  C   UNL     1      -6.345  11.756  19.551  0.00  0.00    +0.000 A 
ATOM     15  C   UNL     1      -5.927  11.104  18.416  0.00  0.00    +0.000 A 
ATOM     16  N   UNL     1      -4.645  11.076  18.012  0.00  0.00    +0.000 NA
ATOM     17  O   UNL     1      -7.671  11.718  19.868  0.00  0.00    +0.000 OA
ATOM     18  C   UNL     1      -7.797  11.645  21.282  0.00  0.00    +0.000 C 
ATOM     19  C   UNL     1      -7.036  12.766  21.983  0.00  0.00    +0.000 C 
ATOM     20  O   UNL     1      -5.693  12.990  21.526  0.00  0.00    +0.000 OA
ENDBRANCH  10  11
ENDBRANCH   8  10
ENDBRANCH   4   8
BRANCH   1  21
ATOM     21  C   UNL     1       2.355   7.744  18.688  0.00  0.00    +0.000 C 
BRANCH  21  22
ATOM     22  C   UNL     1       2.441   6.581  19.693  0.00  0.00    +0.000 C 
BRANCH  22  31
ATOM     23  C   UNL     1       5.755   5.613  17.074  0.00  0.00    +0.000 A 
ATOM     24  C   UNL     1       5.686   4.451  16.301  0.00  0.00    +0.000 A 
ATOM     25  C   UNL     1       4.624   3.558  16.468  0.00  0.00    +0.000 A 
ATOM     26  C   UNL     1       3.621   3.821  17.409  0.00  0.00    +0.000 A 
ATOM     27  C   UNL     1       2.538   2.861  17.613  0.00  0.00    +0.000 A 
ATOM     28  C   UNL     1       1.613   3.082  18.550  0.00  0.00    +0.000 A 
ATOM     29  C   UNL     1       1.610   4.314  19.365  0.00  0.00    +0.000 A 
ATOM     30  O   UNL     1       0.734   4.464  20.213  0.00  0.00    +0.000 OA
ATOM     31  N   UNL     1       2.592   5.261  19.085  0.00  0.00    +0.000 N 
ATOM     32  C   UNL     1       3.656   5.009  18.160  0.00  0.00    +0.000 A 
ATOM     33  C   UNL     1       4.735   5.894  17.990  0.00  0.00    +0.000 A 
BRANCH  23  35
ATOM     34  N   UNL     1       7.763   7.247  16.811  0.00  0.00    +0.000 NA
ATOM     35  C   UNL     1       6.865   6.514  16.929  0.00  0.00    +0.000 C 
ENDBRANCH  23  35
ENDBRANCH  22  31
ENDBRANCH  21  22
ENDBRANCH   1  21
TORSDOF 7
ENDMDL
MODEL 4
REMARK VINA RESULT:      -7.7      3.231      5.479
REMARK  Name = 
REMARK  7 active torsions:
REMARK  status: ('A' for Active; 'I' for Inactive)
REMARK    1  A    between atoms: C_2  and  C_3
REMARK    2  A    between atoms: N_11  and  C_12
REMARK    3  A    between atoms: C_12  and  C_13
REMARK    4  A    between atoms: C_13  and  N_14
REMARK    5  A    between atoms: C_17  and  N_18
REMARK    6  A    between atoms: N_18  and  C_19
REMARK    7  A    between atoms: C_19  and  C_20
REMARK                            x       y       z     vdW  Elec       q    Type
REMARK                         _______ _______ _______ _____ _____    ______ ____
ROOT
ATOM      1  N   UNL     1       1.042   8.249  19.782  0.00  0.00    +0.000 NA
ATOM      2  C   UNL     1       0.752   9.558  19.179  0.00  0.00    +0.000 C 
ATOM      3  C   UNL     1      -0.428  10.246  19.866  0.00  0.00    +0.000 C 
ATOM      4  C   UNL     1      -0.154  10.473  21.371  0.00  0.00    +0.000 C 
ATOM      5  C   UNL     1       0.045   9.075  21.976  0.00  0.00    +0.000 C 
ATOM      6  F   UNL     1      -1.124   8.373  21.843  0.00  0.00    +0.000 F 
ATOM      7  C   UNL     1       1.159   8.307  21.258  0.00  0.00    +0.000 C 
ENDROOT
BRANCH   4   8
ATOM      8  N   UNL     1       0.983  11.404  21.673  0.00  0.00    +0.000 NA
ATOM      9  H   UNL     1       1.854  11.013  21.313  0.00  0.00    +0.000 HD
BRANCH   8  10
ATOM     10  C   UNL     1       0.742  12.695  21.009  0.00  0.00    +0.000 C 
BRANCH  10  11
ATOM     11  C   UNL     1       1.906  13.574  20.615  0.00  0.00    +0.000 A 
ATOM     12  C   UNL     1       2.501  13.612  19.357  0.00  0.00    +0.000 A 
ATOM     13  C   UNL     1       3.676  14.360  19.205  0.00  0.00    +0.000 A 
ATOM     14  C   UNL     1       4.176  15.093  20.275  0.00  0.00    +0.000 A 
ATOM     15  C   UNL     1       3.525  15.006  21.483  0.00  0.00    +0.000 A 
ATOM     16  N   UNL     1       2.425  14.258  21.674  0.00  0.00    +0.000 NA
ATOM     17  O   UNL     1       5.286  15.881  20.195  0.00  0.00    +0.000 OA
ATOM     18  C   UNL     1       6.219  15.261  19.319  0.00  0.00    +0.000 C 
ATOM     19  C   UNL     1       5.602  14.939  17.962  0.00  0.00    +0.000 C 
ATOM     20  O   UNL     1       4.317  14.298  17.996  0.00  0.00    +0.000 OA
ENDBRANCH  10  11
ENDBRANCH   8  10
ENDBRANCH   4   8
BRANCH   1  21
ATOM     21  C   UNL     1       2.246   7.647  19.164  0.00  0.00    +0.000 C 
BRANCH  21  22
ATOM     22  C   UNL     1       2.728   6.394  19.917  0.00  0.00    +0.000 C 
BRANCH  22  31
ATOM     23  C   UNL     1       5.916   5.812  17.039  0.00  0.00    +0.000 A 
ATOM     24  C   UNL     1       5.790   4.796  16.090  0.00  0.00    +0.000 A 
ATOM     25  C   UNL     1       4.714   3.906  16.152  0.00  0.00    +0.000 A 
ATOM     26  C   UNL     1       3.754   4.028  17.165  0.00  0.00    +0.000 A 
ATOM     27  C   UNL     1       2.657   3.066  17.253  0.00  0.00    +0.000 A 
ATOM     28  C   UNL     1       1.773   3.145  18.251  0.00  0.00    +0.000 A 
ATOM     29  C   UNL     1       1.831   4.226  19.257  0.00  0.00    +0.000 A 
ATOM     30  O   UNL     1       0.991   4.250  20.153  0.00  0.00    +0.000 OA
ATOM     31  N   UNL     1       2.824   5.189  19.094  0.00  0.00    +0.000 N 
ATOM     32  C   UNL     1       3.846   5.075  18.098  0.00  0.00    +0.000 A 
ATOM     33  C   UNL     1       4.938   5.957  18.031  0.00  0.00    +0.000 A 
BRANCH  23  35
ATOM     34  N   UNL     1       7.952   7.432  16.963  0.00  0.00    +0.000 NA
ATOM     35  C   UNL     1       7.041   6.705  16.998  0.00  0.00    +0.000 C 
ENDBRANCH  23  35
ENDBRANCH  22  31
ENDBRANCH  21  22
ENDBRANCH   1  21
TORSDOF 7
ENDMDL
MODEL 5
REMARK VINA RESULT:      -7.7      3.601      6.102
REMARK  Name = 
REMARK  7 active torsions:
REMARK  status: ('A' for Active; 'I' for Inactive)
REMARK    1  A    between atoms: C_2  and  C_3
REMARK    2  A    between atoms: N_11  and  C_12
REMARK    3  A    between atoms: C_12  and  C_13
REMARK    4  A    between atoms: C_13  and  N_14
REMARK    5  A    between atoms: C_17  and  N_18
REMARK    6  A    between atoms: N_18  and  C_19
REMARK    7  A    between atoms: C_19  and  C_20
REMARK                            x       y       z     vdW  Elec       q    Type
REMARK                         _______ _______ _______ _____ _____    ______ ____
ROOT
ATOM      1  N   UNL     1       1.098   8.752  19.387  0.00  0.00    +0.000 NA
ATOM      2  C   UNL     1       0.760   9.714  18.328  0.00  0.00    +0.000 C 
ATOM      3  C   UNL     1      -0.327  10.690  18.779  0.00  0.00    +0.000 C 
ATOM      4  C   UNL     1       0.117  11.497  20.021  0.00  0.00    +0.000 C 
ATOM      5  C   UNL     1       0.364  10.461  21.128  0.00  0.00    +0.000 C 
ATOM      6  F   UNL     1      -0.821   9.835  21.411  0.00  0.00    +0.000 F 
ATOM      7  C   UNL     1       1.381   9.403  20.688  0.00  0.00    +0.000 C 
ENDROOT
BRANCH   4   8
ATOM      8  N   UNL     1       1.292  12.403  19.799  0.00  0.00    +0.000 NA
ATOM      9  H   UNL     1       1.391  12.602  18.803  0.00  0.00    +0.000 HD
BRANCH   8  10
ATOM     10  C   UNL     1       1.069  13.672  20.509  0.00  0.00    +0.000 C 
BRANCH  10  11
ATOM     11  C   UNL     1       1.119  14.981  19.756  0.00  0.00    +0.000 A 
ATOM     12  C   UNL     1       0.014  15.706  19.320  0.00  0.00    +0.000 A 
ATOM     13  C   UNL     1       0.237  16.815  18.492  0.00  0.00    +0.000 A 
ATOM     14  C   UNL     1       1.537  17.202  18.185  0.00  0.00    +0.000 A 
ATOM     15  C   UNL     1       2.574  16.435  18.661  0.00  0.00    +0.000 A 
ATOM     16  N   UNL     1       2.391  15.337  19.417  0.00  0.00    +0.000 NA
ATOM     17  O   UNL     1       1.838  18.293  17.425  0.00  0.00    +0.000 OA
ATOM     18  C   UNL     1       0.848  18.428  16.414  0.00  0.00    +0.000 C 
ATOM     19  C   UNL     1      -0.563  18.461  16.995  0.00  0.00    +0.000 C 
ATOM     20  O   UNL     1      -0.858  17.452  17.974  0.00  0.00    +0.000 OA
ENDBRANCH  10  11
ENDBRANCH   8  10
ENDBRANCH   4   8
BRANCH   1  21
ATOM     21  C   UNL     1       2.218   7.882  18.960  0.00  0.00    +0.000 C 
BRANCH  21  22
ATOM     22  C   UNL     1       2.371   6.641  19.858  0.00  0.00    +0.000 C 
BRANCH  22  31
ATOM     23  C   UNL     1       5.730   6.007  17.192  0.00  0.00    +0.000 A 
ATOM     24  C   UNL     1       5.700   4.919  16.318  0.00  0.00    +0.000 A 
ATOM     25  C   UNL     1       4.664   3.985  16.394  0.00  0.00    +0.000 A 
ATOM     26  C   UNL     1       3.647   4.133  17.346  0.00  0.00    +0.000 A 
ATOM     27  C   UNL     1       2.591   3.127  17.452  0.00  0.00    +0.000 A 
ATOM     28  C   UNL     1       1.653   3.237  18.396  0.00  0.00    +0.000 A 
ATOM     29  C   UNL     1       1.609   4.389  19.319  0.00  0.00    +0.000 A 
ATOM     30  O   UNL     1       0.723   4.437  20.169  0.00  0.00    +0.000 OA
ATOM     31  N   UNL     1       2.565   5.385  19.134  0.00  0.00    +0.000 N 
ATOM     32  C   UNL     1       3.642   5.249  18.201  0.00  0.00    +0.000 A 
ATOM     33  C   UNL     1       4.696   6.176  18.121  0.00  0.00    +0.000 A 
BRANCH  23  35
ATOM     34  N   UNL     1       7.691   7.715  17.097  0.00  0.00    +0.000 NA
ATOM     35  C   UNL     1       6.814   6.949  17.140  0.00  0.00    +0.000 C 
ENDBRANCH  23  35
ENDBRANCH  22  31
ENDBRANCH  21  22
ENDBRANCH   1  21
TORSDOF 7
ENDMDL
MODEL 6
REMARK VINA RESULT:      -7.7      4.163      6.027
REMARK  Name = 
REMARK  7 active torsions:
REMARK  status: ('A' for Active; 'I' for Inactive)
REMARK    1  A    between atoms: C_2  and  C_3
REMARK    2  A    between atoms: N_11  and  C_12
REMARK    3  A    between atoms: C_12  and  C_13
REMARK    4  A    between atoms: C_13  and  N_14
REMARK    5  A    between atoms: C_17  and  N_18
REMARK    6  A    between atoms: N_18  and  C_19
REMARK    7  A    between atoms: C_19  and  C_20
REMARK                            x       y       z     vdW  Elec       q    Type
REMARK                         _______ _______ _______ _____ _____    ______ ____
ROOT
ATOM      1  N   UNL     1       1.953   8.570  19.599  0.00  0.00    +0.000 NA
ATOM      2  C   UNL     1       0.833   8.808  20.521  0.00  0.00    +0.000 C 
ATOM      3  C   UNL     1       0.440  10.285  20.560  0.00  0.00    +0.000 C 
ATOM      4  C   UNL     1       0.014  10.795  19.164  0.00  0.00    +0.000 C 
ATOM      5  C   UNL     1       1.243  10.617  18.260  0.00  0.00    +0.000 C 
ATOM      6  F   UNL     1       2.250  11.418  18.732  0.00  0.00    +0.000 F 
ATOM      7  C   UNL     1       1.734   9.166  18.260  0.00  0.00    +0.000 C 
ENDROOT
BRANCH   4   8
ATOM      8  N   UNL     1      -1.218  10.147  18.604  0.00  0.00    +0.000 NA
ATOM      9  H   UNL     1      -1.792   9.782  19.365  0.00  0.00    +0.000 HD
BRANCH   8  10
ATOM     10  C   UNL     1      -2.003  11.151  17.868  0.00  0.00    +0.000 C 
BRANCH  10  11
ATOM     11  C   UNL     1      -3.386  11.531  18.344  0.00  0.00    +0.000 A 
ATOM     12  C   UNL     1      -3.677  12.218  19.518  0.00  0.00    +0.000 A 
ATOM     13  C   UNL     1      -5.021  12.344  19.893  0.00  0.00    +0.000 A 
ATOM     14  C   UNL     1      -6.022  11.850  19.065  0.00  0.00    +0.000 A 
ATOM     15  C   UNL     1      -5.651  11.189  17.919  0.00  0.00    +0.000 A 
ATOM     16  N   UNL     1      -4.368  11.008  17.556  0.00  0.00    +0.000 NA
ATOM     17  O   UNL     1      -7.353  11.973  19.337  0.00  0.00    +0.000 OA
ATOM     18  C   UNL     1      -7.541  11.868  20.742  0.00  0.00    +0.000 C 
ATOM     19  C   UNL     1      -6.668  12.856  21.511  0.00  0.00    +0.000 C 
ATOM     20  O   UNL     1      -5.291  12.919  21.107  0.00  0.00    +0.000 OA
ENDBRANCH  10  11
ENDBRANCH   8  10
ENDBRANCH   4   8
BRANCH   1  21
ATOM     21  C   UNL     1       2.251   7.121  19.507  0.00  0.00    +0.000 C 
BRANCH  21  22
ATOM     22  C   UNL     1       2.283   6.622  18.051  0.00  0.00    +0.000 C 
BRANCH  22  31
ATOM     23  C   UNL     1       6.548   6.594  17.277  0.00  0.00    +0.000 A 
ATOM     24  C   UNL     1       7.140   5.419  16.807  0.00  0.00    +0.000 A 
ATOM     25  C   UNL     1       6.390   4.244  16.712  0.00  0.00    +0.000 A 
ATOM     26  C   UNL     1       5.040   4.235  17.084  0.00  0.00    +0.000 A 
ATOM     27  C   UNL     1       4.272   2.992  17.027  0.00  0.00    +0.000 A 
ATOM     28  C   UNL     1       3.002   2.968  17.436  0.00  0.00    +0.000 A 
ATOM     29  C   UNL     1       2.311   4.189  17.900  0.00  0.00    +0.000 A 
ATOM     30  O   UNL     1       1.141   4.108  18.264  0.00  0.00    +0.000 OA
ATOM     31  N   UNL     1       3.031   5.381  17.850  0.00  0.00    +0.000 N 
ATOM     32  C   UNL     1       4.422   5.422  17.515  0.00  0.00    +0.000 A 
ATOM     33  C   UNL     1       5.190   6.595  17.616  0.00  0.00    +0.000 A 
BRANCH  23  35
ATOM     34  N   UNL     1       7.959   8.767  17.521  0.00  0.00    +0.000 NA
ATOM     35  C   UNL     1       7.327   7.794  17.410  0.00  0.00    +0.000 C 
ENDBRANCH  23  35
ENDBRANCH  22  31
ENDBRANCH  21  22
ENDBRANCH   1  21
TORSDOF 7
ENDMDL
MODEL 7
REMARK VINA RESULT:      -7.6      2.316      8.372
REMARK  Name = 
REMARK  7 active torsions:
REMARK  status: ('A' for Active; 'I' for Inactive)
REMARK    1  A    between atoms: C_2  and  C_3
REMARK    2  A    between atoms: N_11  and  C_12
REMARK    3  A    between atoms: C_12  and  C_13
REMARK    4  A    between atoms: C_13  and  N_14
REMARK    5  A    between atoms: C_17  and  N_18
REMARK    6  A    between atoms: N_18  and  C_19
REMARK    7  A    between atoms: C_19  and  C_20
REMARK                            x       y       z     vdW  Elec       q    Type
REMARK                         _______ _______ _______ _____ _____    ______ ____
ROOT
ATOM      1  N   UNL     1       1.271   4.163  20.475  0.00  0.00    +0.000 NA
ATOM      2  C   UNL     1       2.563   4.039  21.166  0.00  0.00    +0.000 C 
ATOM      3  C   UNL     1       3.157   2.640  21.005  0.00  0.00    +0.000 C 
ATOM      4  C   UNL     1       3.386   2.290  19.516  0.00  0.00    +0.000 C 
ATOM      5  C   UNL     1       1.999   2.335  18.857  0.00  0.00    +0.000 C 
ATOM      6  F   UNL     1       1.216   1.363  19.421  0.00  0.00    +0.000 F 
ATOM      7  C   UNL     1       1.321   3.692  19.071  0.00  0.00    +0.000 C 
ENDROOT
BRANCH   4   8
ATOM      8  N   UNL     1       4.393   3.151  18.812  0.00  0.00    +0.000 NA
ATOM      9  H   UNL     1       5.300   3.067  19.272  0.00  0.00    +0.000 HD
BRANCH   8  10
ATOM     10  C   UNL     1       4.531   2.697  17.420  0.00  0.00    +0.000 C 
BRANCH  10  11
ATOM     11  C   UNL     1       5.301   3.531  16.423  0.00  0.00    +0.000 A 
ATOM     12  C   UNL     1       5.218   3.419  15.038  0.00  0.00    +0.000 A 
ATOM     13  C   UNL     1       6.121   4.156  14.260  0.00  0.00    +0.000 A 
ATOM     14  C   UNL     1       7.021   5.020  14.874  0.00  0.00    +0.000 A 
ATOM     15  C   UNL     1       7.035   5.078  16.247  0.00  0.00    +0.000 A 
ATOM     16  N   UNL     1       6.214   4.347  17.023  0.00  0.00    +0.000 NA
ATOM     17  O   UNL     1       7.900   5.804  14.186  0.00  0.00    +0.000 OA
ATOM     18  C   UNL     1       8.341   5.091  13.038  0.00  0.00    +0.000 C 
ATOM     19  C   UNL     1       7.173   4.595  12.189  0.00  0.00    +0.000 C 
ATOM     20  O   UNL     1       6.109   3.951  12.907  0.00  0.00    +0.000 OA
ENDBRANCH  10  11
ENDBRANCH   8  10
ENDBRANCH   4   8
BRANCH   1  21
ATOM     21  C   UNL     1       0.765   5.552  20.566  0.00  0.00    +0.000 C 
BRANCH  21  22
ATOM     22  C   UNL     1       1.889   6.569  20.831  0.00  0.00    +0.000 C 
BRANCH  22  31
ATOM     23  C   UNL     1      -0.042  10.436  21.160  0.00  0.00    +0.000 A 
ATOM     24  C   UNL     1      -0.110  11.254  20.029  0.00  0.00    +0.000 A 
ATOM     25  C   UNL     1       0.544  10.881  18.852  0.00  0.00    +0.000 A 
ATOM     26  C   UNL     1       1.271   9.685  18.796  0.00  0.00    +0.000 A 
ATOM     27  C   UNL     1       1.992   9.323  17.577  0.00  0.00    +0.000 A 
ATOM     28  C   UNL     1       2.733   8.213  17.540  0.00  0.00    +0.000 A 
ATOM     29  C   UNL     1       2.806   7.288  18.690  0.00  0.00    +0.000 A 
ATOM     30  O   UNL     1       3.503   6.281  18.599  0.00  0.00    +0.000 OA
ATOM     31  N   UNL     1       2.031   7.601  19.804  0.00  0.00    +0.000 N 
ATOM     32  C   UNL     1       1.309   8.832  19.913  0.00  0.00    +0.000 A 
ATOM     33  C   UNL     1       0.655   9.224  21.094  0.00  0.00    +0.000 A 
BRANCH  23  35
ATOM     34  N   UNL     1      -1.201  11.160  23.374  0.00  0.00    +0.000 NA
ATOM     35  C   UNL     1      -0.683  10.836  22.382  0.00  0.00    +0.000 C 
ENDBRANCH  23  35
ENDBRANCH  22  31
ENDBRANCH  21  22
ENDBRANCH   1  21
TORSDOF 7
ENDMDL
MODEL 8
REMARK VINA RESULT:      -7.6      3.861      5.852
REMARK  Name = 
REMARK  7 active torsions:
REMARK  status: ('A' for Active; 'I' for Inactive)
REMARK    1  A    between atoms: C_2  and  C_3
REMARK    2  A    between atoms: N_11  and  C_12
REMARK    3  A    between atoms: C_12  and  C_13
REMARK    4  A    between atoms: C_13  and  N_14
REMARK    5  A    between atoms: C_17  and  N_18
REMARK    6  A    between atoms: N_18  and  C_19
REMARK    7  A    between atoms: C_19  and  C_20
REMARK                            x       y       z     vdW  Elec       q    Type
REMARK                         _______ _______ _______ _____ _____    ______ ____
ROOT
ATOM      1  N   UNL     1       1.823   7.820  19.936  0.00  0.00    +0.000 NA
ATOM      2  C   UNL     1       1.097   8.874  20.660  0.00  0.00    +0.000 C 
ATOM      3  C   UNL     1       1.386  10.258  20.078  0.00  0.00    +0.000 C 
ATOM      4  C   UNL     1       0.977  10.345  18.590  0.00  0.00    +0.000 C 
ATOM      5  C   UNL     1       1.829   9.295  17.859  0.00  0.00    +0.000 C 
ATOM      6  F   UNL     1       3.148   9.649  17.973  0.00  0.00    +0.000 F 
ATOM      7  C   UNL     1       1.644   7.901  18.467  0.00  0.00    +0.000 C 
ENDROOT
BRANCH   4   8
ATOM      8  N   UNL     1      -0.491  10.185  18.328  0.00  0.00    +0.000 NA
ATOM      9  H   UNL     1      -0.923   9.665  19.093  0.00  0.00    +0.000 HD
BRANCH   8  10
ATOM     10  C   UNL     1      -1.118  11.514  18.254  0.00  0.00    +0.000 C 
BRANCH  10  11
ATOM     11  C   UNL     1      -2.621  11.649  18.333  0.00  0.00    +0.000 A 
ATOM     12  C   UNL     1      -3.333  12.146  19.421  0.00  0.00    +0.000 A 
ATOM     13  C   UNL     1      -4.731  12.049  19.395  0.00  0.00    +0.000 A 
ATOM     14  C   UNL     1      -5.370  11.531  18.275  0.00  0.00    +0.000 A 
ATOM     15  C   UNL     1      -4.594  11.068  17.239  0.00  0.00    +0.000 A 
ATOM     16  N   UNL     1      -3.250  11.101  17.254  0.00  0.00    +0.000 NA
ATOM     17  O   UNL     1      -6.726  11.446  18.154  0.00  0.00    +0.000 OA
ATOM     18  C   UNL     1      -7.277  11.148  19.431  0.00  0.00    +0.000 C 
ATOM     19  C   UNL     1      -6.822  12.142  20.496  0.00  0.00    +0.000 C 
ATOM     20  O   UNL     1      -5.415  12.433  20.517  0.00  0.00    +0.000 OA
ENDBRANCH  10  11
ENDBRANCH   8  10
ENDBRANCH   4   8
BRANCH   1  21
ATOM     21  C   UNL     1       1.451   6.484  20.456  0.00  0.00    +0.000 C 
BRANCH  21  22
ATOM     22  C   UNL     1       2.671   5.559  20.623  0.00  0.00    +0.000 C 
BRANCH  22  31
ATOM     23  C   UNL     1       5.453   5.815  17.308  0.00  0.00    +0.000 A 
ATOM     24  C   UNL     1       5.303   4.935  16.234  0.00  0.00    +0.000 A 
ATOM     25  C   UNL     1       4.352   3.912  16.290  0.00  0.00    +0.000 A 
ATOM     26  C   UNL     1       3.542   3.763  17.422  0.00  0.00    +0.000 A 
ATOM     27  C   UNL     1       2.582   2.662  17.496  0.00  0.00    +0.000 A 
ATOM     28  C   UNL     1       1.849   2.483  18.597  0.00  0.00    +0.000 A 
ATOM     29  C   UNL     1       1.933   3.409  19.746  0.00  0.00    +0.000 A 
ATOM     30  O   UNL     1       1.234   3.195  20.733  0.00  0.00    +0.000 OA
ATOM     31  N   UNL     1       2.780   4.507  19.614  0.00  0.00    +0.000 N 
ATOM     32  C   UNL     1       3.652   4.670  18.491  0.00  0.00    +0.000 A 
ATOM     33  C   UNL     1       4.619   5.688  18.426  0.00  0.00    +0.000 A 
BRANCH  23  35
ATOM     34  N   UNL     1       7.269   7.677  17.235  0.00  0.00    +0.000 NA
ATOM     35  C   UNL     1       6.454   6.844  17.267  0.00  0.00    +0.000 C 
ENDBRANCH  23  35
ENDBRANCH  22  31
ENDBRANCH  21  22
ENDBRANCH   1  21
TORSDOF 7
ENDMDL
MODEL 9
REMARK VINA RESULT:      -7.6      4.124      6.331
REMARK  Name = 
REMARK  7 active torsions:
REMARK  status: ('A' for Active; 'I' for Inactive)
REMARK    1  A    between atoms: C_2  and  C_3
REMARK    2  A    between atoms: N_11  and  C_12
REMARK    3  A    between atoms: C_12  and  C_13
REMARK    4  A    between atoms: C_13  and  N_14
REMARK    5  A    between atoms: C_17  and  N_18
REMARK    6  A    between atoms: N_18  and  C_19
REMARK    7  A    between atoms: C_19  and  C_20
REMARK                            x       y       z     vdW  Elec       q    Type
REMARK                         _______ _______ _______ _____ _____    ______ ____
ROOT
ATOM      1  N   UNL     1       1.667   9.129  19.442  0.00  0.00    +0.000 NA
ATOM      2  C   UNL     1       0.606   8.941  20.443  0.00  0.00    +0.000 C 
ATOM      3  C   UNL     1       0.215  10.263  21.104  0.00  0.00    +0.000 C 
ATOM      4  C   UNL     1      -0.297  11.287  20.065  0.00  0.00    +0.000 C 
ATOM      5  C   UNL     1       0.873  11.525  19.099  0.00  0.00    +0.000 C 
ATOM      6  F   UNL     1       1.907  12.090  19.798  0.00  0.00    +0.000 F 
ATOM      7  C   UNL     1       1.364  10.213  18.478  0.00  0.00    +0.000 C 
ENDROOT
BRANCH   4   8
ATOM      8  N   UNL     1      -1.561  10.892  19.360  0.00  0.00    +0.000 NA
ATOM      9  H   UNL     1      -2.120  10.290  19.965  0.00  0.00    +0.000 HD
BRANCH   8  10
ATOM     10  C   UNL     1      -2.343  12.100  19.052  0.00  0.00    +0.000 C 
BRANCH  10  11
ATOM     11  C   UNL     1      -3.566  12.441  19.873  0.00  0.00    +0.000 A 
ATOM     12  C   UNL     1      -3.561  12.818  21.212  0.00  0.00    +0.000 A 
ATOM     13  C   UNL     1      -4.794  12.939  21.868  0.00  0.00    +0.000 A 
ATOM     14  C   UNL     1      -5.977  12.751  21.163  0.00  0.00    +0.000 A 
ATOM     15  C   UNL     1      -5.894  12.386  19.840  0.00  0.00    +0.000 A 
ATOM     16  N   UNL     1      -4.727  12.214  19.195  0.00  0.00    +0.000 NA
ATOM     17  O   UNL     1      -7.215  12.895  21.717  0.00  0.00    +0.000 OA
ATOM     18  C   UNL     1      -7.164  12.441  23.063  0.00  0.00    +0.000 C 
ATOM     19  C   UNL     1      -6.058  13.129  23.857  0.00  0.00    +0.000 C 
ATOM     20  O   UNL     1      -4.776  13.196  23.213  0.00  0.00    +0.000 OA
ENDBRANCH  10  11
ENDBRANCH   8  10
ENDBRANCH   4   8
BRANCH   1  21
ATOM     21  C   UNL     1       1.959   7.852  18.750  0.00  0.00    +0.000 C 
BRANCH  21  22
ATOM     22  C   UNL     1       2.273   6.711  19.734  0.00  0.00    +0.000 C 
BRANCH  22  31
ATOM     23  C   UNL     1       5.720   5.983  17.208  0.00  0.00    +0.000 A 
ATOM     24  C   UNL     1       5.741   4.837  16.410  0.00  0.00    +0.000 A 
ATOM     25  C   UNL     1       4.725   3.884  16.523  0.00  0.00    +0.000 A 
ATOM     26  C   UNL     1       3.679   4.071  17.435  0.00  0.00    +0.000 A 
ATOM     27  C   UNL     1       2.644   3.048  17.582  0.00  0.00    +0.000 A 
ATOM     28  C   UNL     1       1.678   3.197  18.491  0.00  0.00    +0.000 A 
ATOM     29  C   UNL     1       1.580   4.409  19.331  0.00  0.00    +0.000 A 
ATOM     30  O   UNL     1       0.670   4.492  20.151  0.00  0.00    +0.000 OA
ATOM     31  N   UNL     1       2.518   5.414  19.103  0.00  0.00    +0.000 N 
ATOM     32  C   UNL     1       3.623   5.242  18.211  0.00  0.00    +0.000 A 
ATOM     33  C   UNL     1       4.656   6.188  18.095  0.00  0.00    +0.000 A 
BRANCH  23  35
ATOM     34  N   UNL     1       7.646   7.725  17.048  0.00  0.00    +0.000 NA
ATOM     35  C   UNL     1       6.782   6.946  17.120  0.00  0.00    +0.000 C 
ENDBRANCH  23  35
ENDBRANCH  22  31
ENDBRANCH  21  22
ENDBRANCH   1  21
TORSDOF 7
ENDMDL
