MODEL 1
REMARK VINA RESULT:      -7.5      0.000      0.000
REMARK  Name = 
REMARK  5 active torsions:
REMARK  status: ('A' for Active; 'I' for Inactive)
REMARK    1  A    between atoms: C_1  and  C_2
REMARK    2  A    between atoms: C_2  and  N_3
REMARK    3  A    between atoms: N_3  and  C_4
REMARK    4  A    between atoms: C_4  and  C_5
REMARK    5  A    between atoms: N_9  and  C_10
REMARK                            x       y       z     vdW  Elec       q    Type
REMARK                         _______ _______ _______ _____ _____    ______ ____
ROOT
ATOM      1  N   UNL     1       2.090   7.385  19.443  0.00  0.00    +0.000 N 
ATOM      2  C   UNL     1       2.430   6.085  19.762  0.00  0.00    +0.000 A 
ATOM      3  N   UNL     1       3.506   5.547  19.157  0.00  0.00    +0.000 NA
ATOM      4  C   UNL     1       3.989   4.322  19.491  0.00  0.00    +0.000 A 
ATOM      5  N   UNL     1       5.160   3.851  18.885  0.00  0.00    +0.000 N 
ATOM      6  C   UNL     1       3.284   3.609  20.457  0.00  0.00    +0.000 A 
ATOM      7  C   UNL     1       3.327   2.359  21.105  0.00  0.00    +0.000 A 
ATOM      8  N   UNL     1       2.314   2.182  21.964  0.00  0.00    +0.000 NA
ATOM      9  N   UNL     1       1.617   3.333  21.854  0.00  0.00    +0.000 N 
ATOM     10  C   UNL     1       2.164   4.219  20.974  0.00  0.00    +0.000 A 
ATOM     11  N   UNL     1       1.696   5.439  20.684  0.00  0.00    +0.000 NA
ATOM     12  H   UNL     1       5.630   3.092  19.356  0.00  0.00    +0.000 HD
ATOM     13  H   UNL     1       0.772   3.458  22.398  0.00  0.00    +0.000 HD
ENDROOT
BRANCH   5  14
ATOM     14  C   UNL     1       5.660   4.180  17.613  0.00  0.00    +0.000 A 
ATOM     15  C   UNL     1       4.880   3.948  16.474  0.00  0.00    +0.000 A 
ATOM     16  C   UNL     1       5.389   4.210  15.195  0.00  0.00    +0.000 A 
ATOM     17  C   UNL     1       6.683   4.708  15.051  0.00  0.00    +0.000 A 
ATOM     18 CL   UNL     1       7.310   5.029  13.482  0.00  0.00    +0.000 Cl
ATOM     19  C   UNL     1       7.474   4.938  16.168  0.00  0.00    +0.000 A 
ATOM     20  C   UNL     1       6.965   4.662  17.438  0.00  0.00    +0.000 A 
ENDBRANCH   5  14
BRANCH   1  22
ATOM     21  C   UNL     1       2.003   9.285  17.846  0.00  0.00    +0.000 C 
ATOM     22  C   UNL     1       2.758   8.057  18.335  0.00  0.00    +0.000 C 
ENDBRANCH   1  22
BRANCH   1  23
ATOM     23  C   UNL     1       1.061   8.064  20.214  0.00  0.00    +0.000 C 
ATOM     24  C   UNL     1       1.628   8.662  21.496  0.00  0.00    +0.000 C 
ENDBRANCH   1  23
TORSDOF 3
ENDMDL
MODEL 2
REMARK VINA RESULT:      -7.3      0.111      1.030
REMARK  Name = 
REMARK  5 active torsions:
REMARK  status: ('A' for Active; 'I' for Inactive)
REMARK    1  A    between atoms: C_1  and  C_2
REMARK    2  A    between atoms: C_2  and  N_3
REMARK    3  A    between atoms: N_3  and  C_4
REMARK    4  A    between atoms: C_4  and  C_5
REMARK    5  A    between atoms: N_9  and  C_10
REMARK                            x       y       z     vdW  Elec       q    Type
REMARK                         _______ _______ _______ _____ _____    ______ ____
ROOT
ATOM      1  N   UNL     1       2.137   7.342  19.358  0.00  0.00    +0.000 N 
ATOM      2  C   UNL     1       2.473   6.053  19.719  0.00  0.00    +0.000 A 
ATOM      3  N   UNL     1       3.547   5.492  19.130  0.00  0.00    +0.000 NA
ATOM      4  C   UNL     1       4.027   4.278  19.503  0.00  0.00    +0.000 A 
ATOM      5  N   UNL     1       5.196   3.783  18.911  0.00  0.00    +0.000 N 
ATOM      6  C   UNL     1       3.322   3.598  20.493  0.00  0.00    +0.000 A 
ATOM      7  C   UNL     1       3.362   2.370  21.181  0.00  0.00    +0.000 A 
ATOM      8  N   UNL     1       2.351   2.223  22.047  0.00  0.00    +0.000 NA
ATOM      9  N   UNL     1       1.656   3.373  21.901  0.00  0.00    +0.000 N 
ATOM     10  C   UNL     1       2.204   4.228  20.991  0.00  0.00    +0.000 A 
ATOM     11  N   UNL     1       1.740   5.439  20.662  0.00  0.00    +0.000 NA
ATOM     12  H   UNL     1       5.665   3.039  19.406  0.00  0.00    +0.000 HD
ATOM     13  H   UNL     1       0.813   3.518  22.442  0.00  0.00    +0.000 HD
ENDROOT
BRANCH   5  14
ATOM     14  C   UNL     1       5.695   4.069  17.629  0.00  0.00    +0.000 A 
ATOM     15  C   UNL     1       6.918   4.736  17.487  0.00  0.00    +0.000 A 
ATOM     16  C   UNL     1       7.398   5.086  16.219  0.00  0.00    +0.000 A 
ATOM     17  C   UNL     1       6.656   4.765  15.083  0.00  0.00    +0.000 A 
ATOM     18 CL   UNL     1       7.243   5.195  13.524  0.00  0.00    +0.000 Cl
ATOM     19  C   UNL     1       5.439   4.109  15.203  0.00  0.00    +0.000 A 
ATOM     20  C   UNL     1       4.960   3.777  16.471  0.00  0.00    +0.000 A 
ENDBRANCH   5  14
BRANCH   1  22
ATOM     21  C   UNL     1       2.087   9.227  17.741  0.00  0.00    +0.000 C 
ATOM     22  C   UNL     1       2.805   7.976  18.228  0.00  0.00    +0.000 C 
ENDBRANCH   1  22
BRANCH   1  23
ATOM     23  C   UNL     1       1.111   8.049  20.108  0.00  0.00    +0.000 C 
ATOM     24  C   UNL     1       1.672   8.648  21.392  0.00  0.00    +0.000 C 
ENDBRANCH   1  23
TORSDOF 3
ENDMDL
MODEL 3
REMARK VINA RESULT:      -6.9      2.727      5.722
REMARK  Name = 
REMARK  5 active torsions:
REMARK  status: ('A' for Active; 'I' for Inactive)
REMARK    1  A    between atoms: C_1  and  C_2
REMARK    2  A    between atoms: C_2  and  N_3
REMARK    3  A    between atoms: N_3  and  C_4
REMARK    4  A    between atoms: C_4  and  C_5
REMARK    5  A    between atoms: N_9  and  C_10
REMARK                            x       y       z     vdW  Elec       q    Type
REMARK                         _______ _______ _______ _____ _____    ______ ____
ROOT
ATOM      1  N   UNL     1       6.312   5.663  17.621  0.00  0.00    +0.000 N 
ATOM      2  C   UNL     1       5.341   5.143  18.454  0.00  0.00    +0.000 A 
ATOM      3  N   UNL     1       4.210   5.854  18.626  0.00  0.00    +0.000 NA
ATOM      4  C   UNL     1       3.151   5.374  19.328  0.00  0.00    +0.000 A 
ATOM      5  N   UNL     1       1.972   6.125  19.403  0.00  0.00    +0.000 N 
ATOM      6  C   UNL     1       3.304   4.123  19.921  0.00  0.00    +0.000 A 
ATOM      7  C   UNL     1       2.579   3.233  20.737  0.00  0.00    +0.000 A 
ATOM      8  N   UNL     1       3.273   2.132  21.052  0.00  0.00    +0.000 NA
ATOM      9  N   UNL     1       4.457   2.331  20.433  0.00  0.00    +0.000 N 
ATOM     10  C   UNL     1       4.517   3.502  19.737  0.00  0.00    +0.000 A 
ATOM     11  N   UNL     1       5.556   3.943  19.018  0.00  0.00    +0.000 NA
ATOM     12  H   UNL     1       1.141   5.622  19.677  0.00  0.00    +0.000 HD
ATOM     13  H   UNL     1       5.190   1.638  20.524  0.00  0.00    +0.000 HD
ENDROOT
BRANCH   5  14
ATOM     14  C   UNL     1       1.837   7.522  19.321  0.00  0.00    +0.000 A 
ATOM     15  C   UNL     1       1.431   8.252  20.444  0.00  0.00    +0.000 A 
ATOM     16  C   UNL     1       1.230   9.636  20.362  0.00  0.00    +0.000 A 
ATOM     17  C   UNL     1       1.437  10.297  19.152  0.00  0.00    +0.000 A 
ATOM     18 CL   UNL     1       1.189  11.996  19.048  0.00  0.00    +0.000 Cl
ATOM     19  C   UNL     1       1.834   9.589  18.026  0.00  0.00    +0.000 A 
ATOM     20  C   UNL     1       2.019   8.209  18.112  0.00  0.00    +0.000 A 
ENDBRANCH   5  14
BRANCH   1  22
ATOM     21  C   UNL     1       7.398   7.890  17.447  0.00  0.00    +0.000 C 
ATOM     22  C   UNL     1       6.186   7.028  17.124  0.00  0.00    +0.000 C 
ENDBRANCH   1  22
BRANCH   1  23
ATOM     23  C   UNL     1       7.454   4.841  17.256  0.00  0.00    +0.000 C 
ATOM     24  C   UNL     1       7.372   4.383  15.805  0.00  0.00    +0.000 C 
ENDBRANCH   1  23
TORSDOF 3
ENDMDL
MODEL 4
REMARK VINA RESULT:      -6.9      3.133      6.508
REMARK  Name = 
REMARK  5 active torsions:
REMARK  status: ('A' for Active; 'I' for Inactive)
REMARK    1  A    between atoms: C_1  and  C_2
REMARK    2  A    between atoms: C_2  and  N_3
REMARK    3  A    between atoms: N_3  and  C_4
REMARK    4  A    between atoms: C_4  and  C_5
REMARK    5  A    between atoms: N_9  and  C_10
REMARK                            x       y       z     vdW  Elec       q    Type
REMARK                         _______ _______ _______ _____ _____    ______ ____
ROOT
ATOM      1  N   UNL     1       3.203   3.258  19.508  0.00  0.00    +0.000 N 
ATOM      2  C   UNL     1       3.659   4.035  18.463  0.00  0.00    +0.000 A 
ATOM      3  N   UNL     1       3.405   5.357  18.501  0.00  0.00    +0.000 NA
ATOM      4  C   UNL     1       3.913   6.220  17.583  0.00  0.00    +0.000 A 
ATOM      5  N   UNL     1       3.683   7.594  17.722  0.00  0.00    +0.000 N 
ATOM      6  C   UNL     1       4.670   5.669  16.552  0.00  0.00    +0.000 A 
ATOM      7  C   UNL     1       5.356   6.082  15.392  0.00  0.00    +0.000 A 
ATOM      8  N   UNL     1       5.901   5.061  14.718  0.00  0.00    +0.000 NA
ATOM      9  N   UNL     1       5.551   3.986  15.457  0.00  0.00    +0.000 N 
ATOM     10  C   UNL     1       4.824   4.302  16.567  0.00  0.00    +0.000 A 
ATOM     11  N   UNL     1       4.363   3.443  17.483  0.00  0.00    +0.000 NA
ATOM     12  H   UNL     1       4.299   8.203  17.204  0.00  0.00    +0.000 HD
ATOM     13  H   UNL     1       5.829   3.061  15.154  0.00  0.00    +0.000 HD
ENDROOT
BRANCH   5  14
ATOM     14  C   UNL     1       2.591   8.222  18.346  0.00  0.00    +0.000 A 
ATOM     15  C   UNL     1       1.918   9.263  17.696  0.00  0.00    +0.000 A 
ATOM     16  C   UNL     1       0.870   9.943  18.331  0.00  0.00    +0.000 A 
ATOM     17  C   UNL     1       0.488   9.579  19.622  0.00  0.00    +0.000 A 
ATOM     18 CL   UNL     1      -0.797  10.413  20.404  0.00  0.00    +0.000 Cl
ATOM     19  C   UNL     1       1.148   8.554  20.285  0.00  0.00    +0.000 A 
ATOM     20  C   UNL     1       2.200   7.892  19.652  0.00  0.00    +0.000 A 
ENDBRANCH   5  14
BRANCH   1  22
ATOM     21  C   UNL     1       0.852   3.417  20.294  0.00  0.00    +0.000 C 
ATOM     22  C   UNL     1       2.302   3.833  20.500  0.00  0.00    +0.000 C 
ENDBRANCH   1  22
BRANCH   1  23
ATOM     23  C   UNL     1       3.623   1.869  19.603  0.00  0.00    +0.000 C 
ATOM     24  C   UNL     1       4.775   1.700  20.586  0.00  0.00    +0.000 C 
ENDBRANCH   1  23
TORSDOF 3
ENDMDL
MODEL 5
REMARK VINA RESULT:      -6.6      3.119      6.522
REMARK  Name = 
REMARK  5 active torsions:
REMARK  status: ('A' for Active; 'I' for Inactive)
REMARK    1  A    between atoms: C_1  and  C_2
REMARK    2  A    between atoms: C_2  and  N_3
REMARK    3  A    between atoms: N_3  and  C_4
REMARK    4  A    between atoms: C_4  and  C_5
REMARK    5  A    between atoms: N_9  and  C_10
REMARK                            x       y       z     vdW  Elec       q    Type
REMARK                         _______ _______ _______ _____ _____    ______ ____
ROOT
ATOM      1  N   UNL     1       3.193   3.334  19.530  0.00  0.00    +0.000 N 
ATOM      2  C   UNL     1       3.655   4.088  18.470  0.00  0.00    +0.000 A 
ATOM      3  N   UNL     1       3.433   5.416  18.494  0.00  0.00    +0.000 NA
ATOM      4  C   UNL     1       3.949   6.256  17.560  0.00  0.00    +0.000 A 
ATOM      5  N   UNL     1       3.753   7.636  17.685  0.00  0.00    +0.000 N 
ATOM      6  C   UNL     1       4.681   5.675  16.527  0.00  0.00    +0.000 A 
ATOM      7  C   UNL     1       5.363   6.057  15.355  0.00  0.00    +0.000 A 
ATOM      8  N   UNL     1       5.876   5.016  14.687  0.00  0.00    +0.000 NA
ATOM      9  N   UNL     1       5.510   3.958  15.444  0.00  0.00    +0.000 N 
ATOM     10  C   UNL     1       4.804   4.305  16.558  0.00  0.00    +0.000 A 
ATOM     11  N   UNL     1       4.334   3.468  17.490  0.00  0.00    +0.000 NA
ATOM     12  H   UNL     1       4.377   8.224  17.152  0.00  0.00    +0.000 HD
ATOM     13  H   UNL     1       5.763   3.023  15.149  0.00  0.00    +0.000 HD
ENDROOT
BRANCH   5  14
ATOM     14  C   UNL     1       2.684   8.297  18.314  0.00  0.00    +0.000 A 
ATOM     15  C   UNL     1       2.277   7.907  19.595  0.00  0.00    +0.000 A 
ATOM     16  C   UNL     1       1.173   8.511  20.210  0.00  0.00    +0.000 A 
ATOM     17  C   UNL     1       0.470   9.514  19.543  0.00  0.00    +0.000 A 
ATOM     18 CL   UNL     1      -0.887  10.257  20.295  0.00  0.00    +0.000 Cl
ATOM     19  C   UNL     1       0.854   9.911  18.269  0.00  0.00    +0.000 A 
ATOM     20  C   UNL     1       1.946   9.294  17.658  0.00  0.00    +0.000 A 
ENDBRANCH   5  14
BRANCH   1  22
ATOM     21  C   UNL     1       1.092   3.095  20.832  0.00  0.00    +0.000 C 
ATOM     22  C   UNL     1       2.318   3.943  20.524  0.00  0.00    +0.000 C 
ENDBRANCH   1  22
BRANCH   1  23
ATOM     23  C   UNL     1       3.582   1.938  19.637  0.00  0.00    +0.000 C 
ATOM     24  C   UNL     1       4.765   1.758  20.581  0.00  0.00    +0.000 C 
ENDBRANCH   1  23
TORSDOF 3
ENDMDL
MODEL 6
REMARK VINA RESULT:      -6.6      2.689      5.648
REMARK  Name = 
REMARK  5 active torsions:
REMARK  status: ('A' for Active; 'I' for Inactive)
REMARK    1  A    between atoms: C_1  and  C_2
REMARK    2  A    between atoms: C_2  and  N_3
REMARK    3  A    between atoms: N_3  and  C_4
REMARK    4  A    between atoms: C_4  and  C_5
REMARK    5  A    between atoms: N_9  and  C_10
REMARK                            x       y       z     vdW  Elec       q    Type
REMARK                         _______ _______ _______ _____ _____    ______ ____
ROOT
ATOM      1  N   UNL     1       6.263   5.724  17.739  0.00  0.00    +0.000 N 
ATOM      2  C   UNL     1       5.252   5.229  18.537  0.00  0.00    +0.000 A 
ATOM      3  N   UNL     1       4.119   5.948  18.639  0.00  0.00    +0.000 NA
ATOM      4  C   UNL     1       3.025   5.490  19.303  0.00  0.00    +0.000 A 
ATOM      5  N   UNL     1       1.848   6.247  19.305  0.00  0.00    +0.000 N 
ATOM      6  C   UNL     1       3.143   4.253  19.931  0.00  0.00    +0.000 A 
ATOM      7  C   UNL     1       2.376   3.385  20.733  0.00  0.00    +0.000 A 
ATOM      8  N   UNL     1       3.049   2.288  21.106  0.00  0.00    +0.000 NA
ATOM      9  N   UNL     1       4.261   2.467  20.538  0.00  0.00    +0.000 N 
ATOM     10  C   UNL     1       4.360   3.621  19.819  0.00  0.00    +0.000 A 
ATOM     11  N   UNL     1       5.433   4.041  19.139  0.00  0.00    +0.000 NA
ATOM     12  H   UNL     1       1.002   5.754  19.551  0.00  0.00    +0.000 HD
ATOM     13  H   UNL     1       4.985   1.773  20.680  0.00  0.00    +0.000 HD
ENDROOT
BRANCH   5  14
ATOM     14  C   UNL     1       1.725   7.642  19.184  0.00  0.00    +0.000 A 
ATOM     15  C   UNL     1       2.038   8.270  17.972  0.00  0.00    +0.000 A 
ATOM     16  C   UNL     1       1.983   9.664  17.854  0.00  0.00    +0.000 A 
ATOM     17  C   UNL     1       1.611  10.440  18.952  0.00  0.00    +0.000 A 
ATOM     18 CL   UNL     1       1.544  12.152  18.810  0.00  0.00    +0.000 Cl
ATOM     19  C   UNL     1       1.303   9.837  20.164  0.00  0.00    +0.000 A 
ATOM     20  C   UNL     1       1.373   8.448  20.277  0.00  0.00    +0.000 A 
ENDBRANCH   5  14
BRANCH   1  22
ATOM     21  C   UNL     1       7.430   7.895  17.437  0.00  0.00    +0.000 C 
ATOM     22  C   UNL     1       6.168   7.077  17.204  0.00  0.00    +0.000 C 
ENDBRANCH   1  22
BRANCH   1  23
ATOM     23  C   UNL     1       7.417   4.889  17.447  0.00  0.00    +0.000 C 
ATOM     24  C   UNL     1       7.347   4.313  16.037  0.00  0.00    +0.000 C 
ENDBRANCH   1  23
TORSDOF 3
ENDMDL
MODEL 7
REMARK VINA RESULT:      -6.5      2.651      5.661
REMARK  Name = 
REMARK  5 active torsions:
REMARK  status: ('A' for Active; 'I' for Inactive)
REMARK    1  A    between atoms: C_1  and  C_2
REMARK    2  A    between atoms: C_2  and  N_3
REMARK    3  A    between atoms: N_3  and  C_4
REMARK    4  A    between atoms: C_4  and  C_5
REMARK    5  A    between atoms: N_9  and  C_10
REMARK                            x       y       z     vdW  Elec       q    Type
REMARK                         _______ _______ _______ _____ _____    ______ ____
ROOT
ATOM      1  N   UNL     1       5.434   5.342  17.589  0.00  0.00    +0.000 N 
ATOM      2  C   UNL     1       4.530   5.055  18.592  0.00  0.00    +0.000 A 
ATOM      3  N   UNL     1       3.535   5.934  18.815  0.00  0.00    +0.000 NA
ATOM      4  C   UNL     1       2.531   5.684  19.696  0.00  0.00    +0.000 A 
ATOM      5  N   UNL     1       1.479   6.600  19.826  0.00  0.00    +0.000 N 
ATOM      6  C   UNL     1       2.603   4.492  20.412  0.00  0.00    +0.000 A 
ATOM      7  C   UNL     1       1.890   3.802  21.412  0.00  0.00    +0.000 A 
ATOM      8  N   UNL     1       2.474   2.651  21.769  0.00  0.00    +0.000 NA
ATOM      9  N   UNL     1       3.576   2.614  20.989  0.00  0.00    +0.000 N 
ATOM     10  C   UNL     1       3.689   3.687  20.155  0.00  0.00    +0.000 A 
ATOM     11  N   UNL     1       4.665   3.900  19.265  0.00  0.00    +0.000 NA
ATOM     12  H   UNL     1       0.637   6.251  20.259  0.00  0.00    +0.000 HD
ATOM     13  H   UNL     1       4.220   1.836  21.071  0.00  0.00    +0.000 HD
ENDROOT
BRANCH   5  14
ATOM     14  C   UNL     1       1.515   7.985  19.594  0.00  0.00    +0.000 A 
ATOM     15  C   UNL     1       1.054   8.871  20.575  0.00  0.00    +0.000 A 
ATOM     16  C   UNL     1       1.022  10.250  20.335  0.00  0.00    +0.000 A 
ATOM     17  C   UNL     1       1.456  10.752  19.109  0.00  0.00    +0.000 A 
ATOM     18 CL   UNL     1       1.417  12.445  18.811  0.00  0.00    +0.000 Cl
ATOM     19  C   UNL     1       1.911   9.890  18.121  0.00  0.00    +0.000 A 
ATOM     20  C   UNL     1       1.926   8.516  18.362  0.00  0.00    +0.000 A 
ENDBRANCH   5  14
BRANCH   1  22
ATOM     21  C   UNL     1       5.123   6.581  15.459  0.00  0.00    +0.000 C 
ATOM     22  C   UNL     1       5.416   6.653  16.951  0.00  0.00    +0.000 C 
ENDBRANCH   1  22
BRANCH   1  23
ATOM     23  C   UNL     1       6.400   4.332  17.187  0.00  0.00    +0.000 C 
ATOM     24  C   UNL     1       7.787   4.636  17.738  0.00  0.00    +0.000 C 
ENDBRANCH   1  23
TORSDOF 3
ENDMDL
MODEL 8
REMARK VINA RESULT:      -6.4      5.182      8.124
REMARK  Name = 
REMARK  5 active torsions:
REMARK  status: ('A' for Active; 'I' for Inactive)
REMARK    1  A    between atoms: C_1  and  C_2
REMARK    2  A    between atoms: C_2  and  N_3
REMARK    3  A    between atoms: N_3  and  C_4
REMARK    4  A    between atoms: C_4  and  C_5
REMARK    5  A    between atoms: N_9  and  C_10
REMARK                            x       y       z     vdW  Elec       q    Type
REMARK                         _______ _______ _______ _____ _____    ______ ____
ROOT
ATOM      1  N   UNL     1      -3.255  11.021  17.490  0.00  0.00    +0.000 N 
ATOM      2  C   UNL     1      -2.591  11.392  18.642  0.00  0.00    +0.000 A 
ATOM      3  N   UNL     1      -1.341  10.925  18.828  0.00  0.00    +0.000 NA
ATOM      4  C   UNL     1      -0.565  11.327  19.868  0.00  0.00    +0.000 A 
ATOM      5  N   UNL     1       0.755  10.871  19.964  0.00  0.00    +0.000 N 
ATOM      6  C   UNL     1      -1.141  12.209  20.780  0.00  0.00    +0.000 A 
ATOM      7  C   UNL     1      -0.812  12.870  21.980  0.00  0.00    +0.000 A 
ATOM      8  N   UNL     1      -1.822  13.602  22.465  0.00  0.00    +0.000 NA
ATOM      9  N   UNL     1      -2.807  13.398  21.564  0.00  0.00    +0.000 N 
ATOM     10  C   UNL     1      -2.442  12.581  20.535  0.00  0.00    +0.000 A 
ATOM     11  N   UNL     1      -3.207  12.225  19.497  0.00  0.00    +0.000 NA
ATOM     12  H   UNL     1       1.367  11.403  20.565  0.00  0.00    +0.000 HD
ATOM     13  H   UNL     1      -3.710  13.835  21.704  0.00  0.00    +0.000 HD
ENDROOT
BRANCH   5  14
ATOM     14  C   UNL     1       1.284   9.666  19.471  0.00  0.00    +0.000 A 
ATOM     15  C   UNL     1       1.420   8.563  20.322  0.00  0.00    +0.000 A 
ATOM     16  C   UNL     1       2.005   7.375  19.865  0.00  0.00    +0.000 A 
ATOM     17  C   UNL     1       2.456   7.285  18.548  0.00  0.00    +0.000 A 
ATOM     18 CL   UNL     1       3.175   5.829  17.984  0.00  0.00    +0.000 Cl
ATOM     19  C   UNL     1       2.336   8.370  17.691  0.00  0.00    +0.000 A 
ATOM     20  C   UNL     1       1.765   9.555  18.158  0.00  0.00    +0.000 A 
ENDBRANCH   5  14
BRANCH   1  22
ATOM     21  C   UNL     1      -2.996  10.225  15.151  0.00  0.00    +0.000 C 
ATOM     22  C   UNL     1      -2.686   9.995  16.623  0.00  0.00    +0.000 C 
ENDBRANCH   1  22
BRANCH   1  23
ATOM     23  C   UNL     1      -4.520  11.656  17.158  0.00  0.00    +0.000 C 
ATOM     24  C   UNL     1      -5.691  10.953  17.834  0.00  0.00    +0.000 C 
ENDBRANCH   1  23
TORSDOF 3
ENDMDL
MODEL 9
REMARK VINA RESULT:      -6.3      2.954      5.929
REMARK  Name = 
REMARK  5 active torsions:
REMARK  status: ('A' for Active; 'I' for Inactive)
REMARK    1  A    between atoms: C_1  and  C_2
REMARK    2  A    between atoms: C_2  and  N_3
REMARK    3  A    between atoms: N_3  and  C_4
REMARK    4  A    between atoms: C_4  and  C_5
REMARK    5  A    between atoms: N_9  and  C_10
REMARK                            x       y       z     vdW  Elec       q    Type
REMARK                         _______ _______ _______ _____ _____    ______ ____
ROOT
ATOM      1  N   UNL     1       6.271   5.812  17.082  0.00  0.00    +0.000 N 
ATOM      2  C   UNL     1       5.175   5.165  17.614  0.00  0.00    +0.000 A 
ATOM      3  N   UNL     1       4.075   5.897  17.877  0.00  0.00    +0.000 NA
ATOM      4  C   UNL     1       2.910   5.333  18.289  0.00  0.00    +0.000 A 
ATOM      5  N   UNL     1       1.777   6.136  18.467  0.00  0.00    +0.000 N 
ATOM      6  C   UNL     1       2.913   3.955  18.488  0.00  0.00    +0.000 A 
ATOM      7  C   UNL     1       2.040   2.936  18.916  0.00  0.00    +0.000 A 
ATOM      8  N   UNL     1       2.623   1.730  18.952  0.00  0.00    +0.000 NA
ATOM      9  N   UNL     1       3.884   1.990  18.547  0.00  0.00    +0.000 N 
ATOM     10  C   UNL     1       4.101   3.303  18.248  0.00  0.00    +0.000 A 
ATOM     11  N   UNL     1       5.245   3.837  17.807  0.00  0.00    +0.000 NA
ATOM     12  H   UNL     1       0.890   5.655  18.490  0.00  0.00    +0.000 HD
ATOM     13  H   UNL     1       4.558   1.236  18.498  0.00  0.00    +0.000 HD
ENDROOT
BRANCH   5  14
ATOM     14  C   UNL     1       1.736   7.501  18.799  0.00  0.00    +0.000 A 
ATOM     15  C   UNL     1       1.582   7.892  20.135  0.00  0.00    +0.000 A 
ATOM     16  C   UNL     1       1.475   9.246  20.476  0.00  0.00    +0.000 A 
ATOM     17  C   UNL     1       1.525  10.219  19.478  0.00  0.00    +0.000 A 
ATOM     18 CL   UNL     1       1.392  11.882  19.893  0.00  0.00    +0.000 Cl
ATOM     19  C   UNL     1       1.670   9.851  18.147  0.00  0.00    +0.000 A 
ATOM     20  C   UNL     1       1.762   8.499  17.815  0.00  0.00    +0.000 A 
ENDBRANCH   5  14
BRANCH   1  22
ATOM     21  C   UNL     1       7.604   7.868  17.491  0.00  0.00    +0.000 C 
ATOM     22  C   UNL     1       6.289   7.269  17.011  0.00  0.00    +0.000 C 
ENDBRANCH   1  22
BRANCH   1  23
ATOM     23  C   UNL     1       7.400   5.031  16.603  0.00  0.00    +0.000 C 
ATOM     24  C   UNL     1       7.312   4.785  15.102  0.00  0.00    +0.000 C 
ENDBRANCH   1  23
TORSDOF 3
ENDMDL
