MODEL 1
REMARK VINA RESULT:      -8.1      0.000      0.000
REMARK  Name = 
REMARK  5 active torsions:
REMARK  status: ('A' for Active; 'I' for Inactive)
REMARK    1  A    between atoms: C_1  and  C_2
REMARK    2  A    between atoms: C_5  and  C_6
REMARK    3  A    between atoms: C_6  and  N_7
REMARK    4  A    between atoms: C_8  and  C_10
REMARK    5  A    between atoms: N_14  and  C_15
REMARK                            x       y       z     vdW  Elec       q    Type
REMARK                         _______ _______ _______ _____ _____    ______ ____
ROOT
ATOM      1  C   UNL     1       3.475   6.332  18.465  0.00  0.00    +0.000 A 
ATOM      2  N   UNL     1       3.342   7.375  17.648  0.00  0.00    +0.000 NA
ATOM      3  C   UNL     1       2.464   8.218  18.272  0.00  0.00    +0.000 A 
ATOM      4  C   UNL     1       2.039   7.695  19.472  0.00  0.00    +0.000 A 
ATOM      5  N   UNL     1       2.665   6.483  19.580  0.00  0.00    +0.000 N 
ATOM      6  C   UNL     1       2.519   5.530  20.654  0.00  0.00    +0.000 C 
ATOM      7  C   UNL     1       1.141   8.405  20.432  0.00  0.00    +0.000 C 
ATOM      8  C   UNL     1       0.451   9.622  19.745  0.00  0.00    +0.000 C 
ATOM      9  N   UNL     1       1.334  10.346  18.823  0.00  0.00    +0.000 N 
ATOM     10  C   UNL     1       1.711  11.645  19.040  0.00  0.00    +0.000 A 
ATOM     11  N   UNL     1       1.304  12.267  20.160  0.00  0.00    +0.000 NA
ATOM     12  C   UNL     1       1.688  13.546  20.342  0.00  0.00    +0.000 A 
ATOM     13  C   UNL     1       2.458  14.245  19.450  0.00  0.00    +0.000 A 
ATOM     14  C   UNL     1       2.821  13.542  18.334  0.00  0.00    +0.000 A 
ATOM     15  N   UNL     1       2.463  12.264  18.113  0.00  0.00    +0.000 NA
ATOM     16  C   UNL     1       2.022   9.566  17.778  0.00  0.00    +0.000 C 
ENDROOT
BRANCH   1  18
ATOM     17  N   UNL     1       5.662   5.625  17.872  0.00  0.00    +0.000 N 
ATOM     18  C   UNL     1       4.377   5.216  18.173  0.00  0.00    +0.000 C 
ATOM     19  O   UNL     1       4.047   4.035  18.201  0.00  0.00    +0.000 OA
ATOM     20  H   UNL     1       5.800   6.627  17.764  0.00  0.00    +0.000 HD
BRANCH  17  21
ATOM     21  C   UNL     1       6.703   4.715  17.455  0.00  0.00    +0.000 C 
BRANCH  21  26
ATOM     22  C   UNL     1       8.085   5.580  12.875  0.00  0.00    +0.000 C 
ATOM     23  C   UNL     1       7.256   4.922  13.907  0.00  0.00    +0.000 A 
ATOM     24  C   UNL     1       6.220   4.018  13.834  0.00  0.00    +0.000 A 
ATOM     25  C   UNL     1       5.822   3.763  15.167  0.00  0.00    +0.000 A 
ATOM     26  C   UNL     1       6.642   4.521  15.980  0.00  0.00    +0.000 A 
ATOM     27  O   UNL     1       7.521   5.233  15.209  0.00  0.00    +0.000 OA
ENDBRANCH  21  26
ENDBRANCH  17  21
ENDBRANCH   1  18
TORSDOF 3
ENDMDL
MODEL 2
REMARK VINA RESULT:      -7.7      0.925      1.162
REMARK  Name = 
REMARK  5 active torsions:
REMARK  status: ('A' for Active; 'I' for Inactive)
REMARK    1  A    between atoms: C_1  and  C_2
REMARK    2  A    between atoms: C_5  and  C_6
REMARK    3  A    between atoms: C_6  and  N_7
REMARK    4  A    between atoms: C_8  and  C_10
REMARK    5  A    between atoms: N_14  and  C_15
REMARK                            x       y       z     vdW  Elec       q    Type
REMARK                         _______ _______ _______ _____ _____    ______ ____
ROOT
ATOM      1  C   UNL     1       2.767   6.341  18.519  0.00  0.00    +0.000 A 
ATOM      2  N   UNL     1       2.585   7.415  17.753  0.00  0.00    +0.000 NA
ATOM      3  C   UNL     1       1.945   8.325  18.548  0.00  0.00    +0.000 A 
ATOM      4  C   UNL     1       1.714   7.814  19.805  0.00  0.00    +0.000 A 
ATOM      5  N   UNL     1       2.216   6.541  19.775  0.00  0.00    +0.000 N 
ATOM      6  C   UNL     1       2.186   5.577  20.849  0.00  0.00    +0.000 C 
ATOM      7  C   UNL     1       1.106   8.584  20.931  0.00  0.00    +0.000 C 
ATOM      8  C   UNL     1       0.426   9.886  20.407  0.00  0.00    +0.000 C 
ATOM      9  N   UNL     1       1.180  10.541  19.331  0.00  0.00    +0.000 N 
ATOM     10  C   UNL     1       1.728  11.787  19.479  0.00  0.00    +0.000 A 
ATOM     11  N   UNL     1       1.622  12.415  20.663  0.00  0.00    +0.000 NA
ATOM     12  C   UNL     1       2.169  13.642  20.774  0.00  0.00    +0.000 A 
ATOM     13  C   UNL     1       2.815  14.284  19.750  0.00  0.00    +0.000 A 
ATOM     14  C   UNL     1       2.871  13.580  18.579  0.00  0.00    +0.000 A 
ATOM     15  N   UNL     1       2.343  12.353  18.424  0.00  0.00    +0.000 NA
ATOM     16  C   UNL     1       1.558   9.725  18.164  0.00  0.00    +0.000 C 
ENDROOT
BRANCH   1  18
ATOM     17  N   UNL     1       4.815   5.154  18.348  0.00  0.00    +0.000 N 
ATOM     18  C   UNL     1       3.468   5.147  18.042  0.00  0.00    +0.000 C 
ATOM     19  O   UNL     1       2.929   4.221  17.443  0.00  0.00    +0.000 OA
ATOM     20  H   UNL     1       5.181   6.017  18.743  0.00  0.00    +0.000 HD
BRANCH  17  21
ATOM     21  C   UNL     1       5.732   4.133  17.899  0.00  0.00    +0.000 C 
BRANCH  21  26
ATOM     22  C   UNL     1       5.885   3.568  13.072  0.00  0.00    +0.000 C 
ATOM     23  C   UNL     1       6.297   4.194  14.347  0.00  0.00    +0.000 A 
ATOM     24  C   UNL     1       7.214   5.175  14.651  0.00  0.00    +0.000 A 
ATOM     25  C   UNL     1       7.165   5.342  16.055  0.00  0.00    +0.000 A 
ATOM     26  C   UNL     1       6.216   4.458  16.528  0.00  0.00    +0.000 A 
ATOM     27  O   UNL     1       5.683   3.752  15.483  0.00  0.00    +0.000 OA
ENDBRANCH  21  26
ENDBRANCH  17  21
ENDBRANCH   1  18
TORSDOF 3
ENDMDL
MODEL 3
REMARK VINA RESULT:      -7.5      2.696      4.111
REMARK  Name = 
REMARK  5 active torsions:
REMARK  status: ('A' for Active; 'I' for Inactive)
REMARK    1  A    between atoms: C_1  and  C_2
REMARK    2  A    between atoms: C_5  and  C_6
REMARK    3  A    between atoms: C_6  and  N_7
REMARK    4  A    between atoms: C_8  and  C_10
REMARK    5  A    between atoms: N_14  and  C_15
REMARK                            x       y       z     vdW  Elec       q    Type
REMARK                         _______ _______ _______ _____ _____    ______ ____
ROOT
ATOM      1  C   UNL     1       1.766   7.571  20.214  0.00  0.00    +0.000 A 
ATOM      2  N   UNL     1       1.427   8.107  21.384  0.00  0.00    +0.000 NA
ATOM      3  C   UNL     1       1.056   9.393  21.102  0.00  0.00    +0.000 A 
ATOM      4  C   UNL     1       1.177   9.663  19.758  0.00  0.00    +0.000 A 
ATOM      5  N   UNL     1       1.654   8.508  19.199  0.00  0.00    +0.000 N 
ATOM      6  C   UNL     1       1.979   8.293  17.809  0.00  0.00    +0.000 C 
ATOM      7  C   UNL     1       0.775  10.951  19.116  0.00  0.00    +0.000 C 
ATOM      8  C   UNL     1       0.569  12.063  20.189  0.00  0.00    +0.000 C 
ATOM      9  N   UNL     1      -0.066  11.572  21.418  0.00  0.00    +0.000 N 
ATOM     10  C   UNL     1      -1.300  12.006  21.824  0.00  0.00    +0.000 A 
ATOM     11  N   UNL     1      -1.980  12.869  21.050  0.00  0.00    +0.000 NA
ATOM     12  C   UNL     1      -3.191  13.279  21.480  0.00  0.00    +0.000 A 
ATOM     13  C   UNL     1      -3.757  12.874  22.660  0.00  0.00    +0.000 A 
ATOM     14  C   UNL     1      -2.996  12.003  23.391  0.00  0.00    +0.000 A 
ATOM     15  N   UNL     1      -1.786  11.565  22.999  0.00  0.00    +0.000 NA
ATOM     16  C   UNL     1       0.539  10.405  22.084  0.00  0.00    +0.000 C 
ENDROOT
BRANCH   1  18
ATOM     17  N   UNL     1       3.531   6.034  19.816  0.00  0.00    +0.000 N 
ATOM     18  C   UNL     1       2.183   6.173  20.083  0.00  0.00    +0.000 C 
ATOM     19  O   UNL     1       1.430   5.212  20.208  0.00  0.00    +0.000 OA
ATOM     20  H   UNL     1       4.040   6.892  19.619  0.00  0.00    +0.000 HD
BRANCH  17  21
ATOM     21  C   UNL     1       4.156   4.760  19.550  0.00  0.00    +0.000 C 
BRANCH  21  26
ATOM     22  C   UNL     1       6.998   4.548  15.610  0.00  0.00    +0.000 C 
ATOM     23  C   UNL     1       6.720   4.861  17.028  0.00  0.00    +0.000 A 
ATOM     24  C   UNL     1       7.500   5.371  18.041  0.00  0.00    +0.000 A 
ATOM     25  C   UNL     1       6.672   5.437  19.185  0.00  0.00    +0.000 A 
ATOM     26  C   UNL     1       5.429   4.969  18.805  0.00  0.00    +0.000 A 
ATOM     27  O   UNL     1       5.457   4.614  17.483  0.00  0.00    +0.000 OA
ENDBRANCH  21  26
ENDBRANCH  17  21
ENDBRANCH   1  18
TORSDOF 3
ENDMDL
MODEL 4
REMARK VINA RESULT:      -7.4      3.842      6.546
REMARK  Name = 
REMARK  5 active torsions:
REMARK  status: ('A' for Active; 'I' for Inactive)
REMARK    1  A    between atoms: C_1  and  C_2
REMARK    2  A    between atoms: C_5  and  C_6
REMARK    3  A    between atoms: C_6  and  N_7
REMARK    4  A    between atoms: C_8  and  C_10
REMARK    5  A    between atoms: N_14  and  C_15
REMARK                            x       y       z     vdW  Elec       q    Type
REMARK                         _______ _______ _______ _____ _____    ______ ____
ROOT
ATOM      1  C   UNL     1       0.846  10.155  19.910  0.00  0.00    +0.000 A 
ATOM      2  N   UNL     1       0.151   9.897  21.016  0.00  0.00    +0.000 NA
ATOM      3  C   UNL     1      -0.119  11.118  21.571  0.00  0.00    +0.000 A 
ATOM      4  C   UNL     1       0.420  12.137  20.819  0.00  0.00    +0.000 A 
ATOM      5  N   UNL     1       1.055  11.520  19.776  0.00  0.00    +0.000 N 
ATOM      6  C   UNL     1       1.805  12.160  18.722  0.00  0.00    +0.000 C 
ATOM      7  C   UNL     1       0.235  13.590  21.111  0.00  0.00    +0.000 C 
ATOM      8  C   UNL     1      -0.307  13.799  22.557  0.00  0.00    +0.000 C 
ATOM      9  N   UNL     1      -1.296  12.791  22.957  0.00  0.00    +0.000 N 
ATOM     10  C   UNL     1      -2.598  13.116  23.233  0.00  0.00    +0.000 A 
ATOM     11  N   UNL     1      -3.003  14.389  23.084  0.00  0.00    +0.000 NA
ATOM     12  C   UNL     1      -4.289  14.676  23.367  0.00  0.00    +0.000 A 
ATOM     13  C   UNL     1      -5.198  13.749  23.805  0.00  0.00    +0.000 A 
ATOM     14  C   UNL     1      -4.703  12.480  23.938  0.00  0.00    +0.000 A 
ATOM     15  N   UNL     1      -3.429  12.149  23.663  0.00  0.00    +0.000 NA
ATOM     16  C   UNL     1      -0.927  11.372  22.811  0.00  0.00    +0.000 C 
ENDROOT
BRANCH   1  18
ATOM     17  N   UNL     1       1.956   8.075  19.642  0.00  0.00    +0.000 N 
ATOM     18  C   UNL     1       1.291   9.099  18.998  0.00  0.00    +0.000 C 
ATOM     19  O   UNL     1       1.090   9.102  17.788  0.00  0.00    +0.000 OA
ATOM     20  H   UNL     1       2.169   8.226  20.625  0.00  0.00    +0.000 HD
BRANCH  17  21
ATOM     21  C   UNL     1       2.573   6.971  18.943  0.00  0.00    +0.000 C 
BRANCH  21  26
ATOM     22  C   UNL     1       1.108   2.342  18.680  0.00  0.00    +0.000 C 
ATOM     23  C   UNL     1       1.424   3.593  19.402  0.00  0.00    +0.000 A 
ATOM     24  C   UNL     1       1.352   3.947  20.731  0.00  0.00    +0.000 A 
ATOM     25  C   UNL     1       1.783   5.292  20.807  0.00  0.00    +0.000 A 
ATOM     26  C   UNL     1       2.100   5.682  19.521  0.00  0.00    +0.000 A 
ATOM     27  O   UNL     1       1.880   4.642  18.658  0.00  0.00    +0.000 OA
ENDBRANCH  21  26
ENDBRANCH  17  21
ENDBRANCH   1  18
TORSDOF 3
ENDMDL
MODEL 5
REMARK VINA RESULT:      -7.3      2.054      3.449
REMARK  Name = 
REMARK  5 active torsions:
REMARK  status: ('A' for Active; 'I' for Inactive)
REMARK    1  A    between atoms: C_1  and  C_2
REMARK    2  A    between atoms: C_5  and  C_6
REMARK    3  A    between atoms: C_6  and  N_7
REMARK    4  A    between atoms: C_8  and  C_10
REMARK    5  A    between atoms: N_14  and  C_15
REMARK                            x       y       z     vdW  Elec       q    Type
REMARK                         _______ _______ _______ _____ _____    ______ ____
ROOT
ATOM      1  C   UNL     1       5.103   5.911  17.073  0.00  0.00    +0.000 A 
ATOM      2  N   UNL     1       4.100   6.759  16.857  0.00  0.00    +0.000 NA
ATOM      3  C   UNL     1       3.308   6.679  17.970  0.00  0.00    +0.000 A 
ATOM      4  C   UNL     1       3.810   5.770  18.874  0.00  0.00    +0.000 A 
ATOM      5  N   UNL     1       4.940   5.264  18.289  0.00  0.00    +0.000 N 
ATOM      6  C   UNL     1       5.810   4.248  18.829  0.00  0.00    +0.000 C 
ATOM      7  C   UNL     1       3.224   5.509  20.223  0.00  0.00    +0.000 C 
ATOM      8  C   UNL     1       1.784   6.097  20.323  0.00  0.00    +0.000 C 
ATOM      9  N   UNL     1       1.638   7.391  19.646  0.00  0.00    +0.000 N 
ATOM     10  C   UNL     1       1.342   8.542  20.328  0.00  0.00    +0.000 A 
ATOM     11  N   UNL     1       1.231   8.502  21.667  0.00  0.00    +0.000 NA
ATOM     12  C   UNL     1       0.934   9.650  22.307  0.00  0.00    +0.000 A 
ATOM     13  C   UNL     1       0.731  10.847  21.671  0.00  0.00    +0.000 A 
ATOM     14  C   UNL     1       0.854  10.799  20.310  0.00  0.00    +0.000 A 
ATOM     15  N   UNL     1       1.152   9.677  19.630  0.00  0.00    +0.000 NA
ATOM     16  C   UNL     1       2.069   7.483  18.240  0.00  0.00    +0.000 C 
ENDROOT
BRANCH   1  18
ATOM     17  N   UNL     1       5.841   5.010  15.004  0.00  0.00    +0.000 N 
ATOM     18  C   UNL     1       6.203   5.738  16.121  0.00  0.00    +0.000 C 
ATOM     19  O   UNL     1       7.330   6.197  16.278  0.00  0.00    +0.000 OA
ATOM     20  H   UNL     1       4.919   4.581  15.028  0.00  0.00    +0.000 HD
BRANCH  17  21
ATOM     21  C   UNL     1       6.778   4.627  13.974  0.00  0.00    +0.000 C 
BRANCH  21  26
ATOM     22  C   UNL     1       6.498   0.905  10.859  0.00  0.00    +0.000 C 
ATOM     23  C   UNL     1       5.969   2.106  11.539  0.00  0.00    +0.000 A 
ATOM     24  C   UNL     1       4.780   2.792  11.431  0.00  0.00    +0.000 A 
ATOM     25  C   UNL     1       4.860   3.871  12.342  0.00  0.00    +0.000 A 
ATOM     26  C   UNL     1       6.092   3.780  12.959  0.00  0.00    +0.000 A 
ATOM     27  O   UNL     1       6.774   2.700  12.468  0.00  0.00    +0.000 OA
ENDBRANCH  21  26
ENDBRANCH  17  21
ENDBRANCH   1  18
TORSDOF 3
ENDMDL
MODEL 6
REMARK VINA RESULT:      -7.3      4.396      9.746
REMARK  Name = 
REMARK  5 active torsions:
REMARK  status: ('A' for Active; 'I' for Inactive)
REMARK    1  A    between atoms: C_1  and  C_2
REMARK    2  A    between atoms: C_5  and  C_6
REMARK    3  A    between atoms: C_6  and  N_7
REMARK    4  A    between atoms: C_8  and  C_10
REMARK    5  A    between atoms: N_14  and  C_15
REMARK                            x       y       z     vdW  Elec       q    Type
REMARK                         _______ _______ _______ _____ _____    ______ ____
ROOT
ATOM      1  C   UNL     1       0.730   9.307  21.356  0.00  0.00    +0.000 A 
ATOM      2  N   UNL     1       1.174   8.052  21.368  0.00  0.00    +0.000 NA
ATOM      3  C   UNL     1       1.711   7.843  20.128  0.00  0.00    +0.000 A 
ATOM      4  C   UNL     1       1.591   8.964  19.337  0.00  0.00    +0.000 A 
ATOM      5  N   UNL     1       0.943   9.886  20.114  0.00  0.00    +0.000 N 
ATOM      6  C   UNL     1       0.552  11.219  19.724  0.00  0.00    +0.000 C 
ATOM      7  C   UNL     1       2.148   9.087  17.957  0.00  0.00    +0.000 C 
ATOM      8  C   UNL     1       2.537   7.688  17.391  0.00  0.00    +0.000 C 
ATOM      9  N   UNL     1       3.134   6.801  18.397  0.00  0.00    +0.000 N 
ATOM     10  C   UNL     1       4.427   6.359  18.305  0.00  0.00    +0.000 A 
ATOM     11  N   UNL     1       5.198   6.791  17.292  0.00  0.00    +0.000 NA
ATOM     12  C   UNL     1       6.465   6.335  17.229  0.00  0.00    +0.000 A 
ATOM     13  C   UNL     1       7.003   5.454  18.129  0.00  0.00    +0.000 A 
ATOM     14  C   UNL     1       6.151   5.058  19.123  0.00  0.00    +0.000 A 
ATOM     15  N   UNL     1       4.881   5.490  19.226  0.00  0.00    +0.000 NA
ATOM     16  C   UNL     1       2.392   6.591  19.653  0.00  0.00    +0.000 C 
ENDROOT
BRANCH   1  18
ATOM     17  N   UNL     1      -0.925  10.779  22.209  0.00  0.00    +0.000 N 
ATOM     18  C   UNL     1       0.120   9.935  22.530  0.00  0.00    +0.000 C 
ATOM     19  O   UNL     1       0.479   9.734  23.686  0.00  0.00    +0.000 OA
ATOM     20  H   UNL     1      -1.065  10.962  21.219  0.00  0.00    +0.000 HD
BRANCH  17  21
ATOM     21  C   UNL     1      -1.618  11.584  23.187  0.00  0.00    +0.000 C 
BRANCH  21  26
ATOM     22  C   UNL     1      -6.272  12.979  22.992  0.00  0.00    +0.000 C 
ATOM     23  C   UNL     1      -4.899  12.867  22.456  0.00  0.00    +0.000 A 
ATOM     24  C   UNL     1      -4.322  13.278  21.275  0.00  0.00    +0.000 A 
ATOM     25  C   UNL     1      -2.967  12.877  21.335  0.00  0.00    +0.000 A 
ATOM     26  C   UNL     1      -2.791  12.248  22.552  0.00  0.00    +0.000 A 
ATOM     27  O   UNL     1      -3.975  12.241  23.241  0.00  0.00    +0.000 OA
ENDBRANCH  21  26
ENDBRANCH  17  21
ENDBRANCH   1  18
TORSDOF 3
ENDMDL
MODEL 7
REMARK VINA RESULT:      -7.2      2.602      3.897
REMARK  Name = 
REMARK  5 active torsions:
REMARK  status: ('A' for Active; 'I' for Inactive)
REMARK    1  A    between atoms: C_1  and  C_2
REMARK    2  A    between atoms: C_5  and  C_6
REMARK    3  A    between atoms: C_6  and  N_7
REMARK    4  A    between atoms: C_8  and  C_10
REMARK    5  A    between atoms: N_14  and  C_15
REMARK                            x       y       z     vdW  Elec       q    Type
REMARK                         _______ _______ _______ _____ _____    ______ ____
ROOT
ATOM      1  C   UNL     1       1.810   7.308  20.166  0.00  0.00    +0.000 A 
ATOM      2  N   UNL     1       1.462   7.829  21.341  0.00  0.00    +0.000 NA
ATOM      3  C   UNL     1       1.168   9.140  21.086  0.00  0.00    +0.000 A 
ATOM      4  C   UNL     1       1.345   9.441  19.754  0.00  0.00    +0.000 A 
ATOM      5  N   UNL     1       1.777   8.278  19.176  0.00  0.00    +0.000 N 
ATOM      6  C   UNL     1       2.134   8.085  17.791  0.00  0.00    +0.000 C 
ATOM      7  C   UNL     1       1.030  10.765  19.138  0.00  0.00    +0.000 C 
ATOM      8  C   UNL     1       0.849  11.856  20.237  0.00  0.00    +0.000 C 
ATOM      9  N   UNL     1       0.151  11.366  21.431  0.00  0.00    +0.000 N 
ATOM     10  C   UNL     1      -1.072  11.853  21.813  0.00  0.00    +0.000 A 
ATOM     11  N   UNL     1      -1.681  12.772  21.045  0.00  0.00    +0.000 NA
ATOM     12  C   UNL     1      -2.882  13.233  21.451  0.00  0.00    +0.000 A 
ATOM     13  C   UNL     1      -3.505  12.826  22.601  0.00  0.00    +0.000 A 
ATOM     14  C   UNL     1      -2.814  11.896  23.328  0.00  0.00    +0.000 A 
ATOM     15  N   UNL     1      -1.616  11.406  22.959  0.00  0.00    +0.000 NA
ATOM     16  C   UNL     1       0.673  10.151  22.081  0.00  0.00    +0.000 C 
ENDROOT
BRANCH   1  18
ATOM     17  N   UNL     1       3.520   5.670  20.012  0.00  0.00    +0.000 N 
ATOM     18  C   UNL     1       2.157   5.895  20.006  0.00  0.00    +0.000 C 
ATOM     19  O   UNL     1       1.336   4.990  19.892  0.00  0.00    +0.000 OA
ATOM     20  H   UNL     1       4.111   6.497  19.996  0.00  0.00    +0.000 HD
BRANCH  17  21
ATOM     21  C   UNL     1       4.107   4.372  19.773  0.00  0.00    +0.000 C 
BRANCH  21  26
ATOM     22  C   UNL     1       7.300   4.700  16.120  0.00  0.00    +0.000 C 
ATOM     23  C   UNL     1       5.965   4.424  16.693  0.00  0.00    +0.000 A 
ATOM     24  C   UNL     1       4.768   4.045  16.128  0.00  0.00    +0.000 A 
ATOM     25  C   UNL     1       3.841   3.945  17.191  0.00  0.00    +0.000 A 
ATOM     26  C   UNL     1       4.526   4.263  18.348  0.00  0.00    +0.000 A 
ATOM     27  O   UNL     1       5.828   4.559  18.044  0.00  0.00    +0.000 OA
ENDBRANCH  21  26
ENDBRANCH  17  21
ENDBRANCH   1  18
TORSDOF 3
ENDMDL
MODEL 8
REMARK VINA RESULT:      -7.1      3.047      4.478
REMARK  Name = 
REMARK  5 active torsions:
REMARK  status: ('A' for Active; 'I' for Inactive)
REMARK    1  A    between atoms: C_1  and  C_2
REMARK    2  A    between atoms: C_5  and  C_6
REMARK    3  A    between atoms: C_6  and  N_7
REMARK    4  A    between atoms: C_8  and  C_10
REMARK    5  A    between atoms: N_14  and  C_15
REMARK                            x       y       z     vdW  Elec       q    Type
REMARK                         _______ _______ _______ _____ _____    ______ ____
ROOT
ATOM      1  C   UNL     1       1.428   8.146  20.383  0.00  0.00    +0.000 A 
ATOM      2  N   UNL     1       1.081   8.660  21.561  0.00  0.00    +0.000 NA
ATOM      3  C   UNL     1       0.613   9.915  21.288  0.00  0.00    +0.000 A 
ATOM      4  C   UNL     1       0.681  10.191  19.941  0.00  0.00    +0.000 A 
ATOM      5  N   UNL     1       1.225   9.072  19.371  0.00  0.00    +0.000 N 
ATOM      6  C   UNL     1       1.530   8.878  17.974  0.00  0.00    +0.000 C 
ATOM      7  C   UNL     1       0.174  11.446  19.309  0.00  0.00    +0.000 C 
ATOM      8  C   UNL     1      -0.084  12.542  20.386  0.00  0.00    +0.000 C 
ATOM      9  N   UNL     1      -0.653  12.010  21.631  0.00  0.00    +0.000 N 
ATOM     10  C   UNL     1      -1.905  12.355  22.067  0.00  0.00    +0.000 A 
ATOM     11  N   UNL     1      -2.663  13.167  21.310  0.00  0.00    +0.000 NA
ATOM     12  C   UNL     1      -3.888  13.491  21.769  0.00  0.00    +0.000 A 
ATOM     13  C   UNL     1      -4.396  13.049  22.963  0.00  0.00    +0.000 A 
ATOM     14  C   UNL     1      -3.558  12.236  23.675  0.00  0.00    +0.000 A 
ATOM     15  N   UNL     1      -2.330  11.884  23.253  0.00  0.00    +0.000 NA
ATOM     16  C   UNL     1       0.049  10.890  22.282  0.00  0.00    +0.000 C 
ENDROOT
BRANCH   1  18
ATOM     17  N   UNL     1       3.201   6.733  19.679  0.00  0.00    +0.000 N 
ATOM     18  C   UNL     1       1.940   6.781  20.242  0.00  0.00    +0.000 C 
ATOM     19  O   UNL     1       1.332   5.775  20.594  0.00  0.00    +0.000 OA
ATOM     20  H   UNL     1       3.565   7.611  19.320  0.00  0.00    +0.000 HD
BRANCH  17  21
ATOM     21  C   UNL     1       3.871   5.496  19.351  0.00  0.00    +0.000 C 
BRANCH  21  26
ATOM     22  C   UNL     1       5.959   3.644  15.370  0.00  0.00    +0.000 C 
ATOM     23  C   UNL     1       5.382   4.742  16.175  0.00  0.00    +0.000 A 
ATOM     24  C   UNL     1       5.219   6.088  15.936  0.00  0.00    +0.000 A 
ATOM     25  C   UNL     1       4.607   6.625  17.092  0.00  0.00    +0.000 A 
ATOM     26  C   UNL     1       4.425   5.575  17.970  0.00  0.00    +0.000 A 
ATOM     27  O   UNL     1       4.900   4.420  17.410  0.00  0.00    +0.000 OA
ENDBRANCH  21  26
ENDBRANCH  17  21
ENDBRANCH   1  18
TORSDOF 3
ENDMDL
MODEL 9
REMARK VINA RESULT:      -7.1      5.026      7.367
REMARK  Name = 
REMARK  5 active torsions:
REMARK  status: ('A' for Active; 'I' for Inactive)
REMARK    1  A    between atoms: C_1  and  C_2
REMARK    2  A    between atoms: C_5  and  C_6
REMARK    3  A    between atoms: C_6  and  N_7
REMARK    4  A    between atoms: C_8  and  C_10
REMARK    5  A    between atoms: N_14  and  C_15
REMARK                            x       y       z     vdW  Elec       q    Type
REMARK                         _______ _______ _______ _____ _____    ______ ____
ROOT
ATOM      1  C   UNL     1      -0.108  10.589  21.963  0.00  0.00    +0.000 A 
ATOM      2  N   UNL     1      -0.839  10.924  23.024  0.00  0.00    +0.000 NA
ATOM      3  C   UNL     1      -1.706  11.886  22.580  0.00  0.00    +0.000 A 
ATOM      4  C   UNL     1      -1.505  12.160  21.246  0.00  0.00    +0.000 A 
ATOM      5  N   UNL     1      -0.470  11.351  20.862  0.00  0.00    +0.000 N 
ATOM      6  C   UNL     1       0.137  11.290  19.555  0.00  0.00    +0.000 C 
ATOM      7  C   UNL     1      -2.341  13.103  20.444  0.00  0.00    +0.000 C 
ATOM      8  C   UNL     1      -3.203  14.008  21.375  0.00  0.00    +0.000 C 
ATOM      9  N   UNL     1      -3.734  13.297  22.545  0.00  0.00    +0.000 N 
ATOM     10  C   UNL     1      -5.077  13.113  22.739  0.00  0.00    +0.000 A 
ATOM     11  N   UNL     1      -5.941  13.549  21.806  0.00  0.00    +0.000 NA
ATOM     12  C   UNL     1      -7.256  13.356  22.029  0.00  0.00    +0.000 A 
ATOM     13  C   UNL     1      -7.758  12.752  23.152  0.00  0.00    +0.000 A 
ATOM     14  C   UNL     1      -6.813  12.347  24.054  0.00  0.00    +0.000 A 
ATOM     15  N   UNL     1      -5.491  12.516  23.871  0.00  0.00    +0.000 NA
ATOM     16  C   UNL     1      -2.780  12.556  23.389  0.00  0.00    +0.000 C 
ENDROOT
BRANCH   1  18
ATOM     17  N   UNL     1       0.754   8.580  21.039  0.00  0.00    +0.000 N 
ATOM     18  C   UNL     1       0.916   9.544  22.015  0.00  0.00    +0.000 C 
ATOM     19  O   UNL     1       1.838   9.518  22.825  0.00  0.00    +0.000 OA
ATOM     20  H   UNL     1      -0.103   8.633  20.495  0.00  0.00    +0.000 HD
BRANCH  17  21
ATOM     21  C   UNL     1       1.581   7.399  20.950  0.00  0.00    +0.000 C 
BRANCH  21  26
ATOM     22  C   UNL     1       3.979   5.146  17.370  0.00  0.00    +0.000 C 
ATOM     23  C   UNL     1       3.296   6.305  17.982  0.00  0.00    +0.000 A 
ATOM     24  C   UNL     1       3.064   7.590  17.544  0.00  0.00    +0.000 A 
ATOM     25  C   UNL     1       2.362   8.243  18.584  0.00  0.00    +0.000 A 
ATOM     26  C   UNL     1       2.199   7.318  19.597  0.00  0.00    +0.000 A 
ATOM     27  O   UNL     1       2.772   6.130  19.230  0.00  0.00    +0.000 OA
ENDBRANCH  21  26
ENDBRANCH  17  21
ENDBRANCH   1  18
TORSDOF 3
ENDMDL
