MODEL 1
REMARK VINA RESULT:      -7.7      0.000      0.000
REMARK  Name = 
REMARK  11 active torsions:
REMARK  status: ('A' for Active; 'I' for Inactive)
REMARK    1  A    between atoms: C_1  and  O_2
REMARK    2  A    between atoms: O_2  and  C_3
REMARK    3  A    between atoms: C_6  and  C_7
REMARK    4  A    between atoms: C_7  and  N_8
REMARK    5  A    between atoms: N_8  and  C_9
REMARK    6  A    between atoms: C_14  and  C_15
REMARK    7  A    between atoms: C_18  and  N_19
REMARK    8  A    between atoms: N_19  and  C_20
REMARK    9  A    between atoms: N_19  and  C_21
REMARK   10  A    between atoms: C_24  and  O_25
REMARK   11  A    between atoms: O_25  and  C_26
REMARK                            x       y       z     vdW  Elec       q    Type
REMARK                         _______ _______ _______ _____ _____    ______ ____
ROOT
ATOM      1  C   UNL     1       3.472   3.723  19.433  0.00  0.00    +0.000 A 
ATOM      2  N   UNL     1       3.488   2.384  19.235  0.00  0.00    +0.000 NA
ATOM      3  C   UNL     1       2.342   1.776  18.909  0.00  0.00    +0.000 A 
ATOM      4  N   UNL     1       1.153   2.375  18.787  0.00  0.00    +0.000 NA
ATOM      5  C   UNL     1       1.163   3.703  18.992  0.00  0.00    +0.000 A 
ATOM      6  C   UNL     1       2.278   4.470  19.323  0.00  0.00    +0.000 A 
ENDROOT
BRANCH   6   7
ATOM      7  C   UNL     1       2.141   5.940  19.409  0.00  0.00    +0.000 A 
ATOM      8  C   UNL     1       2.368   6.844  18.366  0.00  0.00    +0.000 A 
ATOM      9  C   UNL     1       2.071   8.223  18.515  0.00  0.00    +0.000 A 
ATOM     10  C   UNL     1       1.478   8.748  19.675  0.00  0.00    +0.000 A 
ATOM     11  C   UNL     1       1.365   7.842  20.720  0.00  0.00    +0.000 A 
ATOM     12  C   UNL     1       1.783   6.514  20.612  0.00  0.00    +0.000 A 
BRANCH  10  13
ATOM     13  N   UNL     1       1.073  10.066  19.808  0.00  0.00    +0.000 N 
ATOM     14  C   UNL     1       0.573  10.843  18.679  0.00  0.00    +0.000 C 
ATOM     15  C   UNL     1       0.875  10.703  21.114  0.00  0.00    +0.000 C 
ENDBRANCH  10  13
ENDBRANCH   6   7
BRANCH   1  16
ATOM     16  N   UNL     1       4.763   4.171  19.622  0.00  0.00    +0.000 N 
ATOM     17  H   UNL     1       4.913   4.177  20.629  0.00  0.00    +0.000 HD
BRANCH  16  18
ATOM     18  C   UNL     1       5.442   5.290  18.974  0.00  0.00    +0.000 C 
BRANCH  18  22
ATOM     19  C   UNL     1       6.643   4.676  14.861  0.00  0.00    +0.000 A 
ATOM     20  C   UNL     1       5.613   3.919  15.398  0.00  0.00    +0.000 A 
ATOM     21  C   UNL     1       5.343   3.979  16.765  0.00  0.00    +0.000 A 
ATOM     22  C   UNL     1       5.999   4.907  17.598  0.00  0.00    +0.000 A 
ATOM     23  C   UNL     1       7.090   5.617  17.059  0.00  0.00    +0.000 A 
ATOM     24  C   UNL     1       7.404   5.490  15.693  0.00  0.00    +0.000 A 
BRANCH  19  26
ATOM     25  C   UNL     1       6.111   3.492  12.871  0.00  0.00    +0.000 C 
ATOM     26  O   UNL     1       6.766   4.587  13.495  0.00  0.00    +0.000 OA
ENDBRANCH  19  26
BRANCH  23  27
ATOM     27  O   UNL     1       7.762   6.435  17.928  0.00  0.00    +0.000 OA
ATOM     28  C   UNL     1       7.757   7.832  17.640  0.00  0.00    +0.000 C 
ENDBRANCH  23  27
ENDBRANCH  18  22
ENDBRANCH  16  18
ENDBRANCH   1  16
TORSDOF 7
ENDMDL
MODEL 2
REMARK VINA RESULT:      -7.5      0.825      1.045
REMARK  Name = 
REMARK  11 active torsions:
REMARK  status: ('A' for Active; 'I' for Inactive)
REMARK    1  A    between atoms: C_1  and  O_2
REMARK    2  A    between atoms: O_2  and  C_3
REMARK    3  A    between atoms: C_6  and  C_7
REMARK    4  A    between atoms: C_7  and  N_8
REMARK    5  A    between atoms: N_8  and  C_9
REMARK    6  A    between atoms: C_14  and  C_15
REMARK    7  A    between atoms: C_18  and  N_19
REMARK    8  A    between atoms: N_19  and  C_20
REMARK    9  A    between atoms: N_19  and  C_21
REMARK   10  A    between atoms: C_24  and  O_25
REMARK   11  A    between atoms: O_25  and  C_26
REMARK                            x       y       z     vdW  Elec       q    Type
REMARK                         _______ _______ _______ _____ _____    ______ ____
ROOT
ATOM      1  C   UNL     1       3.845   3.706  19.179  0.00  0.00    +0.000 A 
ATOM      2  N   UNL     1       3.948   2.386  18.896  0.00  0.00    +0.000 NA
ATOM      3  C   UNL     1       2.903   1.774  18.328  0.00  0.00    +0.000 A 
ATOM      4  N   UNL     1       1.732   2.349  18.035  0.00  0.00    +0.000 NA
ATOM      5  C   UNL     1       1.654   3.659  18.329  0.00  0.00    +0.000 A 
ATOM      6  C   UNL     1       2.661   4.428  18.907  0.00  0.00    +0.000 A 
ENDROOT
BRANCH   6   7
ATOM      7  C   UNL     1       2.454   5.883  19.067  0.00  0.00    +0.000 A 
ATOM      8  C   UNL     1       2.639   6.849  18.072  0.00  0.00    +0.000 A 
ATOM      9  C   UNL     1       2.276   8.203  18.290  0.00  0.00    +0.000 A 
ATOM     10  C   UNL     1       1.657   8.640  19.472  0.00  0.00    +0.000 A 
ATOM     11  C   UNL     1       1.585   7.677  20.470  0.00  0.00    +0.000 A 
ATOM     12  C   UNL     1       2.067   6.377  20.295  0.00  0.00    +0.000 A 
BRANCH  10  13
ATOM     13  N   UNL     1       1.188   9.928  19.670  0.00  0.00    +0.000 N 
ATOM     14  C   UNL     1       0.738  10.399  20.975  0.00  0.00    +0.000 C 
ATOM     15  C   UNL     1       1.337  10.985  18.665  0.00  0.00    +0.000 C 
ENDBRANCH  10  13
ENDBRANCH   6   7
BRANCH   1  16
ATOM     16  N   UNL     1       5.063   4.172  19.628  0.00  0.00    +0.000 N 
ATOM     17  H   UNL     1       4.952   4.330  20.628  0.00  0.00    +0.000 HD
BRANCH  16  18
ATOM     18  C   UNL     1       5.932   5.178  19.022  0.00  0.00    +0.000 C 
BRANCH  18  22
ATOM     19  C   UNL     1       5.653   4.640  14.736  0.00  0.00    +0.000 A 
ATOM     20  C   UNL     1       5.815   3.536  15.560  0.00  0.00    +0.000 A 
ATOM     21  C   UNL     1       6.089   3.712  16.916  0.00  0.00    +0.000 A 
ATOM     22  C   UNL     1       6.059   4.992  17.506  0.00  0.00    +0.000 A 
ATOM     23  C   UNL     1       5.966   6.107  16.650  0.00  0.00    +0.000 A 
ATOM     24  C   UNL     1       5.767   5.919  15.270  0.00  0.00    +0.000 A 
BRANCH  19  26
ATOM     25  C   UNL     1       6.259   3.568  12.703  0.00  0.00    +0.000 C 
ATOM     26  O   UNL     1       5.318   4.339  13.438  0.00  0.00    +0.000 OA
ENDBRANCH  19  26
BRANCH  23  27
ATOM     27  O   UNL     1       6.039   7.335  17.254  0.00  0.00    +0.000 OA
ATOM     28  C   UNL     1       7.335   7.914  17.394  0.00  0.00    +0.000 C 
ENDBRANCH  23  27
ENDBRANCH  18  22
ENDBRANCH  16  18
ENDBRANCH   1  16
TORSDOF 7
ENDMDL
MODEL 3
REMARK VINA RESULT:      -7.5      1.112      1.318
REMARK  Name = 
REMARK  11 active torsions:
REMARK  status: ('A' for Active; 'I' for Inactive)
REMARK    1  A    between atoms: C_1  and  O_2
REMARK    2  A    between atoms: O_2  and  C_3
REMARK    3  A    between atoms: C_6  and  C_7
REMARK    4  A    between atoms: C_7  and  N_8
REMARK    5  A    between atoms: N_8  and  C_9
REMARK    6  A    between atoms: C_14  and  C_15
REMARK    7  A    between atoms: C_18  and  N_19
REMARK    8  A    between atoms: N_19  and  C_20
REMARK    9  A    between atoms: N_19  and  C_21
REMARK   10  A    between atoms: C_24  and  O_25
REMARK   11  A    between atoms: O_25  and  C_26
REMARK                            x       y       z     vdW  Elec       q    Type
REMARK                         _______ _______ _______ _____ _____    ______ ____
ROOT
ATOM      1  C   UNL     1       3.444   5.010  19.792  0.00  0.00    +0.000 A 
ATOM      2  N   UNL     1       3.538   3.680  20.025  0.00  0.00    +0.000 NA
ATOM      3  C   UNL     1       2.457   3.037  20.480  0.00  0.00    +0.000 A 
ATOM      4  N   UNL     1       1.278   3.602  20.760  0.00  0.00    +0.000 NA
ATOM      5  C   UNL     1       1.212   4.923  20.523  0.00  0.00    +0.000 A 
ATOM      6  C   UNL     1       2.247   5.720  20.039  0.00  0.00    +0.000 A 
ENDROOT
BRANCH   6   7
ATOM      7  C   UNL     1       1.978   7.141  19.730  0.00  0.00    +0.000 A 
ATOM      8  C   UNL     1       2.204   7.766  18.499  0.00  0.00    +0.000 A 
ATOM      9  C   UNL     1       1.779   9.100  18.267  0.00  0.00    +0.000 A 
ATOM     10  C   UNL     1       1.059   9.841  19.219  0.00  0.00    +0.000 A 
ATOM     11  C   UNL     1       0.947   9.225  20.458  0.00  0.00    +0.000 A 
ATOM     12  C   UNL     1       1.485   7.963  20.721  0.00  0.00    +0.000 A 
BRANCH  10  13
ATOM     13  N   UNL     1       0.533  11.100  18.982  0.00  0.00    +0.000 N 
ATOM     14  C   UNL     1       1.380  12.267  18.762  0.00  0.00    +0.000 C 
ATOM     15  C   UNL     1      -0.886  11.320  18.687  0.00  0.00    +0.000 C 
ENDBRANCH  10  13
ENDBRANCH   6   7
BRANCH   1  16
ATOM     16  N   UNL     1       4.610   5.453  19.203  0.00  0.00    +0.000 N 
ATOM     17  H   UNL     1       4.328   5.957  18.365  0.00  0.00    +0.000 HD
BRANCH  16  18
ATOM     18  C   UNL     1       5.858   4.724  18.993  0.00  0.00    +0.000 C 
BRANCH  18  22
ATOM     19  C   UNL     1       6.268   4.573  14.687  0.00  0.00    +0.000 A 
ATOM     20  C   UNL     1       5.408   3.694  15.328  0.00  0.00    +0.000 A 
ATOM     21  C   UNL     1       5.406   3.611  16.721  0.00  0.00    +0.000 A 
ATOM     22  C   UNL     1       6.157   4.509  17.506  0.00  0.00    +0.000 A 
ATOM     23  C   UNL     1       7.080   5.345  16.846  0.00  0.00    +0.000 A 
ATOM     24  C   UNL     1       7.128   5.365  15.440  0.00  0.00    +0.000 A 
BRANCH  19  26
ATOM     25  C   UNL     1       6.186   3.369  12.640  0.00  0.00    +0.000 C 
ATOM     26  O   UNL     1       6.128   4.615  13.321  0.00  0.00    +0.000 OA
ENDBRANCH  19  26
BRANCH  23  27
ATOM     27  O   UNL     1       7.860   6.132  17.652  0.00  0.00    +0.000 OA
ATOM     28  C   UNL     1       7.636   7.539  17.597  0.00  0.00    +0.000 C 
ENDBRANCH  23  27
ENDBRANCH  18  22
ENDBRANCH  16  18
ENDBRANCH   1  16
TORSDOF 7
ENDMDL
MODEL 4
REMARK VINA RESULT:      -7.5      1.507      1.751
REMARK  Name = 
REMARK  11 active torsions:
REMARK  status: ('A' for Active; 'I' for Inactive)
REMARK    1  A    between atoms: C_1  and  O_2
REMARK    2  A    between atoms: O_2  and  C_3
REMARK    3  A    between atoms: C_6  and  C_7
REMARK    4  A    between atoms: C_7  and  N_8
REMARK    5  A    between atoms: N_8  and  C_9
REMARK    6  A    between atoms: C_14  and  C_15
REMARK    7  A    between atoms: C_18  and  N_19
REMARK    8  A    between atoms: N_19  and  C_20
REMARK    9  A    between atoms: N_19  and  C_21
REMARK   10  A    between atoms: C_24  and  O_25
REMARK   11  A    between atoms: O_25  and  C_26
REMARK                            x       y       z     vdW  Elec       q    Type
REMARK                         _______ _______ _______ _____ _____    ______ ____
ROOT
ATOM      1  C   UNL     1       3.432   4.214  19.577  0.00  0.00    +0.000 A 
ATOM      2  N   UNL     1       3.527   2.939  20.021  0.00  0.00    +0.000 NA
ATOM      3  C   UNL     1       2.766   2.568  21.056  0.00  0.00    +0.000 A 
ATOM      4  N   UNL     1       1.925   3.363  21.725  0.00  0.00    +0.000 NA
ATOM      5  C   UNL     1       1.851   4.624  21.267  0.00  0.00    +0.000 A 
ATOM      6  C   UNL     1       2.570   5.148  20.195  0.00  0.00    +0.000 A 
ENDROOT
BRANCH   6   7
ATOM      7  C   UNL     1       2.293   6.530  19.748  0.00  0.00    +0.000 A 
ATOM      8  C   UNL     1       2.500   7.028  18.458  0.00  0.00    +0.000 A 
ATOM      9  C   UNL     1       2.069   8.331  18.098  0.00  0.00    +0.000 A 
ATOM     10  C   UNL     1       1.359   9.163  18.980  0.00  0.00    +0.000 A 
ATOM     11  C   UNL     1       1.265   8.675  20.276  0.00  0.00    +0.000 A 
ATOM     12  C   UNL     1       1.810   7.447  20.658  0.00  0.00    +0.000 A 
BRANCH  10  13
ATOM     13  N   UNL     1       0.826  10.391  18.625  0.00  0.00    +0.000 N 
ATOM     14  C   UNL     1      -0.610  10.604  18.485  0.00  0.00    +0.000 C 
ATOM     15  C   UNL     1       1.623  11.622  18.607  0.00  0.00    +0.000 C 
ENDBRANCH  10  13
ENDBRANCH   6   7
BRANCH   1  16
ATOM     16  N   UNL     1       4.187   4.355  18.431  0.00  0.00    +0.000 N 
ATOM     17  H   UNL     1       4.151   5.344  18.191  0.00  0.00    +0.000 HD
BRANCH  16  18
ATOM     18  C   UNL     1       4.192   3.515  17.235  0.00  0.00    +0.000 C 
BRANCH  18  22
ATOM     19  C   UNL     1       7.278   5.005  14.591  0.00  0.00    +0.000 A 
ATOM     20  C   UNL     1       6.176   4.348  14.063  0.00  0.00    +0.000 A 
ATOM     21  C   UNL     1       5.274   3.707  14.912  0.00  0.00    +0.000 A 
ATOM     22  C   UNL     1       5.372   3.835  16.311  0.00  0.00    +0.000 A 
ATOM     23  C   UNL     1       6.532   4.440  16.836  0.00  0.00    +0.000 A 
ATOM     24  C   UNL     1       7.477   5.017  15.967  0.00  0.00    +0.000 A 
BRANCH  19  26
ATOM     25  C   UNL     1       7.760   5.395  12.297  0.00  0.00    +0.000 C 
ATOM     26  O   UNL     1       8.054   5.656  13.662  0.00  0.00    +0.000 OA
ENDBRANCH  19  26
BRANCH  23  27
ATOM     27  O   UNL     1       6.635   4.457  18.202  0.00  0.00    +0.000 OA
ATOM     28  C   UNL     1       7.739   5.165  18.761  0.00  0.00    +0.000 C 
ENDBRANCH  23  27
ENDBRANCH  18  22
ENDBRANCH  16  18
ENDBRANCH   1  16
TORSDOF 7
ENDMDL
MODEL 5
REMARK VINA RESULT:      -7.5      1.603      3.041
REMARK  Name = 
REMARK  11 active torsions:
REMARK  status: ('A' for Active; 'I' for Inactive)
REMARK    1  A    between atoms: C_1  and  O_2
REMARK    2  A    between atoms: O_2  and  C_3
REMARK    3  A    between atoms: C_6  and  C_7
REMARK    4  A    between atoms: C_7  and  N_8
REMARK    5  A    between atoms: N_8  and  C_9
REMARK    6  A    between atoms: C_14  and  C_15
REMARK    7  A    between atoms: C_18  and  N_19
REMARK    8  A    between atoms: N_19  and  C_20
REMARK    9  A    between atoms: N_19  and  C_21
REMARK   10  A    between atoms: C_24  and  O_25
REMARK   11  A    between atoms: O_25  and  C_26
REMARK                            x       y       z     vdW  Elec       q    Type
REMARK                         _______ _______ _______ _____ _____    ______ ____
ROOT
ATOM      1  C   UNL     1       3.167   3.941  19.292  0.00  0.00    +0.000 A 
ATOM      2  N   UNL     1       3.217   2.670  19.757  0.00  0.00    +0.000 NA
ATOM      3  C   UNL     1       2.669   2.408  20.948  0.00  0.00    +0.000 A 
ATOM      4  N   UNL     1       2.092   3.307  21.752  0.00  0.00    +0.000 NA
ATOM      5  C   UNL     1       2.059   4.561  21.270  0.00  0.00    +0.000 A 
ATOM      6  C   UNL     1       2.574   4.979  20.045  0.00  0.00    +0.000 A 
ENDROOT
BRANCH   6   7
ATOM      7  C   UNL     1       2.360   6.377  19.613  0.00  0.00    +0.000 A 
ATOM      8  C   UNL     1       2.517   6.863  18.311  0.00  0.00    +0.000 A 
ATOM      9  C   UNL     1       2.149   8.192  17.976  0.00  0.00    +0.000 A 
ATOM     10  C   UNL     1       1.553   9.067  18.899  0.00  0.00    +0.000 A 
ATOM     11  C   UNL     1       1.511   8.584  20.200  0.00  0.00    +0.000 A 
ATOM     12  C   UNL     1       1.997   7.322  20.550  0.00  0.00    +0.000 A 
BRANCH  10  13
ATOM     13  N   UNL     1       1.080  10.328  18.576  0.00  0.00    +0.000 N 
ATOM     14  C   UNL     1       1.972  11.420  18.201  0.00  0.00    +0.000 C 
ATOM     15  C   UNL     1      -0.341  10.601  18.341  0.00  0.00    +0.000 C 
ENDBRANCH  10  13
ENDBRANCH   6   7
BRANCH   1  16
ATOM     16  N   UNL     1       3.658   3.974  18.004  0.00  0.00    +0.000 N 
ATOM     17  H   UNL     1       3.071   3.343  17.463  0.00  0.00    +0.000 HD
BRANCH  16  18
ATOM     18  C   UNL     1       5.049   3.923  17.557  0.00  0.00    +0.000 C 
BRANCH  18  22
ATOM     19  C   UNL     1       7.720   7.246  18.302  0.00  0.00    +0.000 A 
ATOM     20  C   UNL     1       7.610   6.229  19.237  0.00  0.00    +0.000 A 
ATOM     21  C   UNL     1       6.622   5.253  19.094  0.00  0.00    +0.000 A 
ATOM     22  C   UNL     1       5.822   5.191  17.935  0.00  0.00    +0.000 A 
ATOM     23  C   UNL     1       5.893   6.268  17.029  0.00  0.00    +0.000 A 
ATOM     24  C   UNL     1       6.841   7.289  17.225  0.00  0.00    +0.000 A 
BRANCH  19  26
ATOM     25  C   UNL     1       8.525   9.482  18.270  0.00  0.00    +0.000 C 
ATOM     26  O   UNL     1       8.773   8.104  18.513  0.00  0.00    +0.000 OA
ENDBRANCH  19  26
BRANCH  23  27
ATOM     27  O   UNL     1       5.029   6.217  15.967  0.00  0.00    +0.000 OA
ATOM     28  C   UNL     1       5.517   5.634  14.761  0.00  0.00    +0.000 C 
ENDBRANCH  23  27
ENDBRANCH  18  22
ENDBRANCH  16  18
ENDBRANCH   1  16
TORSDOF 7
ENDMDL
MODEL 6
REMARK VINA RESULT:      -7.3      1.391      2.877
REMARK  Name = 
REMARK  11 active torsions:
REMARK  status: ('A' for Active; 'I' for Inactive)
REMARK    1  A    between atoms: C_1  and  O_2
REMARK    2  A    between atoms: O_2  and  C_3
REMARK    3  A    between atoms: C_6  and  C_7
REMARK    4  A    between atoms: C_7  and  N_8
REMARK    5  A    between atoms: N_8  and  C_9
REMARK    6  A    between atoms: C_14  and  C_15
REMARK    7  A    between atoms: C_18  and  N_19
REMARK    8  A    between atoms: N_19  and  C_20
REMARK    9  A    between atoms: N_19  and  C_21
REMARK   10  A    between atoms: C_24  and  O_25
REMARK   11  A    between atoms: O_25  and  C_26
REMARK                            x       y       z     vdW  Elec       q    Type
REMARK                         _______ _______ _______ _____ _____    ______ ____
ROOT
ATOM      1  C   UNL     1       2.616   4.238  19.038  0.00  0.00    +0.000 A 
ATOM      2  N   UNL     1       2.750   2.914  19.284  0.00  0.00    +0.000 NA
ATOM      3  C   UNL     1       2.561   2.477  20.534  0.00  0.00    +0.000 A 
ATOM      4  N   UNL     1       2.274   3.245  21.590  0.00  0.00    +0.000 NA
ATOM      5  C   UNL     1       2.150   4.557  21.320  0.00  0.00    +0.000 A 
ATOM      6  C   UNL     1       2.305   5.152  20.070  0.00  0.00    +0.000 A 
ENDROOT
BRANCH   6   7
ATOM      7  C   UNL     1       2.027   6.597  19.921  0.00  0.00    +0.000 A 
ATOM      8  C   UNL     1       2.184   7.342  18.749  0.00  0.00    +0.000 A 
ATOM      9  C   UNL     1       1.755   8.693  18.677  0.00  0.00    +0.000 A 
ATOM     10  C   UNL     1       1.095   9.334  19.738  0.00  0.00    +0.000 A 
ATOM     11  C   UNL     1       1.051   8.597  20.914  0.00  0.00    +0.000 A 
ATOM     12  C   UNL     1       1.596   7.315  21.018  0.00  0.00    +0.000 A 
BRANCH  10  13
ATOM     13  N   UNL     1       0.564  10.611  19.660  0.00  0.00    +0.000 N 
ATOM     14  C   UNL     1       1.020  11.696  20.522  0.00  0.00    +0.000 C 
ATOM     15  C   UNL     1      -0.305  11.039  18.559  0.00  0.00    +0.000 C 
ENDBRANCH  10  13
ENDBRANCH   6   7
BRANCH   1  16
ATOM     16  N   UNL     1       2.714   4.462  17.681  0.00  0.00    +0.000 N 
ATOM     17  H   UNL     1       1.787   4.288  17.300  0.00  0.00    +0.000 HD
BRANCH  16  18
ATOM     18  C   UNL     1       3.761   4.026  16.760  0.00  0.00    +0.000 C 
BRANCH  18  22
ATOM     19  C   UNL     1       7.135   6.736  16.820  0.00  0.00    +0.000 A 
ATOM     20  C   UNL     1       5.946   7.103  17.432  0.00  0.00    +0.000 A 
ATOM     21  C   UNL     1       4.803   6.321  17.260  0.00  0.00    +0.000 A 
ATOM     22  C   UNL     1       4.862   5.079  16.598  0.00  0.00    +0.000 A 
ATOM     23  C   UNL     1       6.053   4.752  15.919  0.00  0.00    +0.000 A 
ATOM     24  C   UNL     1       7.179   5.589  16.035  0.00  0.00    +0.000 A 
BRANCH  19  26
ATOM     25  C   UNL     1       7.906   8.781  17.754  0.00  0.00    +0.000 C 
ATOM     26  O   UNL     1       8.205   7.545  17.119  0.00  0.00    +0.000 OA
ENDBRANCH  19  26
BRANCH  23  27
ATOM     27  O   UNL     1       6.037   3.583  15.206  0.00  0.00    +0.000 OA
ATOM     28  C   UNL     1       6.138   3.686  13.788  0.00  0.00    +0.000 C 
ENDBRANCH  23  27
ENDBRANCH  18  22
ENDBRANCH  16  18
ENDBRANCH   1  16
TORSDOF 7
ENDMDL
MODEL 7
REMARK VINA RESULT:      -7.2      2.112      3.089
REMARK  Name = 
REMARK  11 active torsions:
REMARK  status: ('A' for Active; 'I' for Inactive)
REMARK    1  A    between atoms: C_1  and  O_2
REMARK    2  A    between atoms: O_2  and  C_3
REMARK    3  A    between atoms: C_6  and  C_7
REMARK    4  A    between atoms: C_7  and  N_8
REMARK    5  A    between atoms: N_8  and  C_9
REMARK    6  A    between atoms: C_14  and  C_15
REMARK    7  A    between atoms: C_18  and  N_19
REMARK    8  A    between atoms: N_19  and  C_20
REMARK    9  A    between atoms: N_19  and  C_21
REMARK   10  A    between atoms: C_24  and  O_25
REMARK   11  A    between atoms: O_25  and  C_26
REMARK                            x       y       z     vdW  Elec       q    Type
REMARK                         _______ _______ _______ _____ _____    ______ ____
ROOT
ATOM      1  C   UNL     1       3.601   4.393  19.862  0.00  0.00    +0.000 A 
ATOM      2  N   UNL     1       3.628   3.071  20.151  0.00  0.00    +0.000 NA
ATOM      3  C   UNL     1       2.480   2.470  20.483  0.00  0.00    +0.000 A 
ATOM      4  N   UNL     1       1.291   3.071  20.588  0.00  0.00    +0.000 NA
ATOM      5  C   UNL     1       1.292   4.384  20.300  0.00  0.00    +0.000 A 
ATOM      6  C   UNL     1       2.402   5.138  19.927  0.00  0.00    +0.000 A 
ENDROOT
BRANCH   6   7
ATOM      7  C   UNL     1       2.215   6.552  19.538  0.00  0.00    +0.000 A 
ATOM      8  C   UNL     1       2.450   7.088  18.268  0.00  0.00    +0.000 A 
ATOM      9  C   UNL     1       2.104   8.430  17.964  0.00  0.00    +0.000 A 
ATOM     10  C   UNL     1       1.453   9.270  18.882  0.00  0.00    +0.000 A 
ATOM     11  C   UNL     1       1.331   8.737  20.158  0.00  0.00    +0.000 A 
ATOM     12  C   UNL     1       1.796   7.462  20.487  0.00  0.00    +0.000 A 
BRANCH  10  13
ATOM     13  N   UNL     1       1.000  10.544  18.580  0.00  0.00    +0.000 N 
ATOM     14  C   UNL     1      -0.415  10.896  18.621  0.00  0.00    +0.000 C 
ATOM     15  C   UNL     1       1.904  11.690  18.441  0.00  0.00    +0.000 C 
ENDBRANCH  10  13
ENDBRANCH   6   7
BRANCH   1  16
ATOM     16  N   UNL     1       4.845   4.787  19.416  0.00  0.00    +0.000 N 
ATOM     17  H   UNL     1       5.053   5.659  19.898  0.00  0.00    +0.000 HD
BRANCH  16  18
ATOM     18  C   UNL     1       5.361   4.796  18.049  0.00  0.00    +0.000 C 
BRANCH  18  22
ATOM     19  C   UNL     1       7.850   8.332  17.857  0.00  0.00    +0.000 A 
ATOM     20  C   UNL     1       6.751   8.217  17.019  0.00  0.00    +0.000 A 
ATOM     21  C   UNL     1       6.054   7.010  16.944  0.00  0.00    +0.000 A 
ATOM     22  C   UNL     1       6.351   5.942  17.813  0.00  0.00    +0.000 A 
ATOM     23  C   UNL     1       7.511   6.043  18.606  0.00  0.00    +0.000 A 
ATOM     24  C   UNL     1       8.253   7.239  18.617  0.00  0.00    +0.000 A 
BRANCH  19  26
ATOM     25  C   UNL     1       9.123   9.925  19.078  0.00  0.00    +0.000 C 
ATOM     26  O   UNL     1       8.408   9.587  17.897  0.00  0.00    +0.000 OA
ENDBRANCH  19  26
BRANCH  23  27
ATOM     27  O   UNL     1       7.818   4.944  19.364  0.00  0.00    +0.000 OA
ATOM     28  C   UNL     1       8.611   5.160  20.530  0.00  0.00    +0.000 C 
ENDBRANCH  23  27
ENDBRANCH  18  22
ENDBRANCH  16  18
ENDBRANCH   1  16
TORSDOF 7
ENDMDL
MODEL 8
REMARK VINA RESULT:      -7.1      5.067      9.795
REMARK  Name = 
REMARK  11 active torsions:
REMARK  status: ('A' for Active; 'I' for Inactive)
REMARK    1  A    between atoms: C_1  and  O_2
REMARK    2  A    between atoms: O_2  and  C_3
REMARK    3  A    between atoms: C_6  and  C_7
REMARK    4  A    between atoms: C_7  and  N_8
REMARK    5  A    between atoms: N_8  and  C_9
REMARK    6  A    between atoms: C_14  and  C_15
REMARK    7  A    between atoms: C_18  and  N_19
REMARK    8  A    between atoms: N_19  and  C_20
REMARK    9  A    between atoms: N_19  and  C_21
REMARK   10  A    between atoms: C_24  and  O_25
REMARK   11  A    between atoms: O_25  and  C_26
REMARK                            x       y       z     vdW  Elec       q    Type
REMARK                         _______ _______ _______ _____ _____    ______ ____
ROOT
ATOM      1  C   UNL     1      -0.335  10.205  20.419  0.00  0.00    +0.000 A 
ATOM      2  N   UNL     1      -0.910  10.978  21.370  0.00  0.00    +0.000 NA
ATOM      3  C   UNL     1      -0.495  10.843  22.635  0.00  0.00    +0.000 A 
ATOM      4  N   UNL     1       0.432   9.978  23.059  0.00  0.00    +0.000 NA
ATOM      5  C   UNL     1       0.984   9.220  22.096  0.00  0.00    +0.000 A 
ATOM      6  C   UNL     1       0.664   9.260  20.741  0.00  0.00    +0.000 A 
ENDROOT
BRANCH   6   7
ATOM      7  C   UNL     1       1.443   8.435  19.793  0.00  0.00    +0.000 A 
ATOM      8  C   UNL     1       1.824   8.814  18.502  0.00  0.00    +0.000 A 
ATOM      9  C   UNL     1       2.691   8.002  17.726  0.00  0.00    +0.000 A 
ATOM     10  C   UNL     1       3.266   6.820  18.222  0.00  0.00    +0.000 A 
ATOM     11  C   UNL     1       2.784   6.427  19.463  0.00  0.00    +0.000 A 
ATOM     12  C   UNL     1       1.827   7.163  20.165  0.00  0.00    +0.000 A 
BRANCH  10  13
ATOM     13  N   UNL     1       4.203   6.067  17.533  0.00  0.00    +0.000 N 
ATOM     14  C   UNL     1       5.168   6.672  16.622  0.00  0.00    +0.000 C 
ATOM     15  C   UNL     1       4.466   4.659  17.845  0.00  0.00    +0.000 C 
ENDBRANCH  10  13
ENDBRANCH   6   7
BRANCH   1  16
ATOM     16  N   UNL     1      -0.799  10.590  19.178  0.00  0.00    +0.000 N 
ATOM     17  H   UNL     1      -0.058  10.363  18.519  0.00  0.00    +0.000 HD
BRANCH  16  18
ATOM     18  C   UNL     1      -1.486  11.825  18.806  0.00  0.00    +0.000 C 
BRANCH  18  22
ATOM     19  C   UNL     1      -5.758  11.793  18.111  0.00  0.00    +0.000 A 
ATOM     20  C   UNL     1      -5.249  12.407  19.245  0.00  0.00    +0.000 A 
ATOM     21  C   UNL     1      -3.900  12.264  19.570  0.00  0.00    +0.000 A 
ATOM     22  C   UNL     1      -3.002  11.629  18.690  0.00  0.00    +0.000 A 
ATOM     23  C   UNL     1      -3.540  10.947  17.581  0.00  0.00    +0.000 A 
ATOM     24  C   UNL     1      -4.917  11.034  17.304  0.00  0.00    +0.000 A 
BRANCH  19  26
ATOM     25  C   UNL     1      -7.599  13.265  18.415  0.00  0.00    +0.000 C 
ATOM     26  O   UNL     1      -7.081  12.064  17.859  0.00  0.00    +0.000 OA
ENDBRANCH  19  26
BRANCH  23  27
ATOM     27  O   UNL     1      -2.644  10.261  16.805  0.00  0.00    +0.000 OA
ATOM     28  C   UNL     1      -2.702  10.479  15.397  0.00  0.00    +0.000 C 
ENDBRANCH  23  27
ENDBRANCH  18  22
ENDBRANCH  16  18
ENDBRANCH   1  16
TORSDOF 7
ENDMDL
MODEL 9
REMARK VINA RESULT:      -7.1      2.965      7.342
REMARK  Name = 
REMARK  11 active torsions:
REMARK  status: ('A' for Active; 'I' for Inactive)
REMARK    1  A    between atoms: C_1  and  O_2
REMARK    2  A    between atoms: O_2  and  C_3
REMARK    3  A    between atoms: C_6  and  C_7
REMARK    4  A    between atoms: C_7  and  N_8
REMARK    5  A    between atoms: N_8  and  C_9
REMARK    6  A    between atoms: C_14  and  C_15
REMARK    7  A    between atoms: C_18  and  N_19
REMARK    8  A    between atoms: N_19  and  C_20
REMARK    9  A    between atoms: N_19  and  C_21
REMARK   10  A    between atoms: C_24  and  O_25
REMARK   11  A    between atoms: O_25  and  C_26
REMARK                            x       y       z     vdW  Elec       q    Type
REMARK                         _______ _______ _______ _____ _____    ______ ____
ROOT
ATOM      1  C   UNL     1       6.199   4.437  18.303  0.00  0.00    +0.000 A 
ATOM      2  N   UNL     1       6.512   4.886  19.541  0.00  0.00    +0.000 NA
ATOM      3  C   UNL     1       7.379   5.899  19.649  0.00  0.00    +0.000 A 
ATOM      4  N   UNL     1       7.999   6.502  18.629  0.00  0.00    +0.000 NA
ATOM      5  C   UNL     1       7.673   6.036  17.411  0.00  0.00    +0.000 A 
ATOM      6  C   UNL     1       6.780   5.000  17.145  0.00  0.00    +0.000 A 
ENDROOT
BRANCH   6   7
ATOM      7  C   UNL     1       6.448   4.679  15.740  0.00  0.00    +0.000 A 
ATOM      8  C   UNL     1       7.338   4.715  14.662  0.00  0.00    +0.000 A 
ATOM      9  C   UNL     1       6.951   4.253  13.377  0.00  0.00    +0.000 A 
ATOM     10  C   UNL     1       5.695   3.677  13.128  0.00  0.00    +0.000 A 
ATOM     11  C   UNL     1       4.808   3.754  14.193  0.00  0.00    +0.000 A 
ATOM     12  C   UNL     1       5.152   4.333  15.417  0.00  0.00    +0.000 A 
BRANCH  10  13
ATOM     13  N   UNL     1       5.328   3.113  11.916  0.00  0.00    +0.000 N 
ATOM     14  C   UNL     1       6.022   1.959  11.355  0.00  0.00    +0.000 C 
ATOM     15  C   UNL     1       4.080   3.461  11.229  0.00  0.00    +0.000 C 
ENDBRANCH  10  13
ENDBRANCH   6   7
BRANCH   1  16
ATOM     16  N   UNL     1       5.197   3.493  18.400  0.00  0.00    +0.000 N 
ATOM     17  H   UNL     1       5.459   2.740  17.768  0.00  0.00    +0.000 HD
BRANCH  16  18
ATOM     18  C   UNL     1       3.751   3.699  18.417  0.00  0.00    +0.000 C 
BRANCH  18  22
ATOM     19  C   UNL     1       2.132   7.632  19.221  0.00  0.00    +0.000 A 
ATOM     20  C   UNL     1       2.903   7.423  18.087  0.00  0.00    +0.000 A 
ATOM     21  C   UNL     1       3.578   6.214  17.916  0.00  0.00    +0.000 A 
ATOM     22  C   UNL     1       3.377   5.135  18.800  0.00  0.00    +0.000 A 
ATOM     23  C   UNL     1       2.653   5.381  19.983  0.00  0.00    +0.000 A 
ATOM     24  C   UNL     1       2.040   6.632  20.184  0.00  0.00    +0.000 A 
BRANCH  19  26
ATOM     25  C   UNL     1       1.389   9.539  18.013  0.00  0.00    +0.000 C 
ATOM     26  O   UNL     1       1.462   8.831  19.244  0.00  0.00    +0.000 OA
ENDBRANCH  19  26
BRANCH  23  27
ATOM     27  O   UNL     1       2.564   4.334  20.862  0.00  0.00    +0.000 OA
ATOM     28  C   UNL     1       1.313   3.654  20.937  0.00  0.00    +0.000 C 
ENDBRANCH  23  27
ENDBRANCH  18  22
ENDBRANCH  16  18
ENDBRANCH   1  16
TORSDOF 7
ENDMDL
