MODEL 1
REMARK VINA RESULT:      -8.0      0.000      0.000
REMARK  Name = 
REMARK  9 active torsions:
REMARK  status: ('A' for Active; 'I' for Inactive)
REMARK    1  A    between atoms: C_1  and  C_2
REMARK    2  A    between atoms: C_6  and  C_7
REMARK    3  A    between atoms: C_13  and  C_14
REMARK    4  A    between atoms: C_18  and  N_19
REMARK    5  A    between atoms: N_19  and  C_20
REMARK    6  A    between atoms: C_20  and  C_21
REMARK    7  A    between atoms: C_21  and  N_22
REMARK    8  A    between atoms: N_22  and  C_23
REMARK    9  A    between atoms: N_22  and  C_24
REMARK                            x       y       z     vdW  Elec       q    Type
REMARK                         _______ _______ _______ _____ _____    ______ ____
ROOT
ATOM      1  C   UNL     1       4.425   4.067  18.336  0.00  0.00    +0.000 A 
ATOM      2  C   UNL     1       4.343   2.868  19.022  0.00  0.00    +0.000 A 
ATOM      3  N   UNL     1       3.431   3.006  20.032  0.00  0.00    +0.000 N 
ATOM      4  C   UNL     1       2.909   4.277  20.031  0.00  0.00    +0.000 A 
ATOM      5  C   UNL     1       1.975   4.867  20.888  0.00  0.00    +0.000 A 
ATOM      6  C   UNL     1       1.629   6.204  20.655  0.00  0.00    +0.000 A 
ATOM      7  C   UNL     1       2.164   6.947  19.588  0.00  0.00    +0.000 A 
ATOM      8  C   UNL     1       3.095   6.303  18.748  0.00  0.00    +0.000 A 
ATOM      9  C   UNL     1       3.497   4.964  18.970  0.00  0.00    +0.000 A 
ATOM     10  H   UNL     1       3.183   2.284  20.695  0.00  0.00    +0.000 HD
ENDROOT
BRANCH   1  16
ATOM     11  C   UNL     1       5.404   3.793  13.434  0.00  0.00    +0.000 C 
ATOM     12  C   UNL     1       5.832   4.173  14.820  0.00  0.00    +0.000 A 
ATOM     13  C   UNL     1       7.102   4.705  15.061  0.00  0.00    +0.000 A 
ATOM     14  C   UNL     1       7.495   5.018  16.361  0.00  0.00    +0.000 A 
ATOM     15  C   UNL     1       6.624   4.793  17.429  0.00  0.00    +0.000 A 
ATOM     16  C   UNL     1       5.337   4.284  17.214  0.00  0.00    +0.000 A 
ATOM     17  C   UNL     1       4.954   3.976  15.899  0.00  0.00    +0.000 A 
ENDBRANCH   1  16
BRANCH   7  18
ATOM     18  C   UNL     1       1.799   8.362  19.350  0.00  0.00    +0.000 A 
ATOM     19  C   UNL     1       2.242   9.090  18.250  0.00  0.00    +0.000 A 
ATOM     20  N   UNL     1       1.848  10.357  17.986  0.00  0.00    +0.000 NA
ATOM     21  C   UNL     1       0.979  10.875  18.887  0.00  0.00    +0.000 A 
ATOM     22  C   UNL     1       0.552  10.208  20.037  0.00  0.00    +0.000 A 
ATOM     23  N   UNL     1       0.962   8.938  20.262  0.00  0.00    +0.000 NA
BRANCH  22  24
ATOM     24  N   UNL     1      -0.404  10.811  20.876  0.00  0.00    +0.000 N 
ATOM     25  H   UNL     1      -0.339  11.831  20.813  0.00  0.00    +0.000 HD
BRANCH  24  26
ATOM     26  C   UNL     1      -0.302  10.445  22.293  0.00  0.00    +0.000 C 
BRANCH  26  27
ATOM     27  C   UNL     1      -1.378  11.208  23.110  0.00  0.00    +0.000 C 
BRANCH  27  28
ATOM     28  N   UNL     1      -1.801  12.498  22.500  0.00  0.00    +0.000 NA
ATOM     29  C   UNL     1      -3.260  12.651  22.523  0.00  0.00    +0.000 C 
ATOM     30  C   UNL     1      -1.191  13.611  23.238  0.00  0.00    +0.000 C 
ENDBRANCH  27  28
ENDBRANCH  26  27
ENDBRANCH  24  26
ENDBRANCH  22  24
ENDBRANCH   7  18
TORSDOF 6
ENDMDL
MODEL 2
REMARK VINA RESULT:      -7.9      2.136      3.341
REMARK  Name = 
REMARK  9 active torsions:
REMARK  status: ('A' for Active; 'I' for Inactive)
REMARK    1  A    between atoms: C_1  and  C_2
REMARK    2  A    between atoms: C_6  and  C_7
REMARK    3  A    between atoms: C_13  and  C_14
REMARK    4  A    between atoms: C_18  and  N_19
REMARK    5  A    between atoms: N_19  and  C_20
REMARK    6  A    between atoms: C_20  and  C_21
REMARK    7  A    between atoms: C_21  and  N_22
REMARK    8  A    between atoms: N_22  and  C_23
REMARK    9  A    between atoms: N_22  and  C_24
REMARK                            x       y       z     vdW  Elec       q    Type
REMARK                         _______ _______ _______ _____ _____    ______ ____
ROOT
ATOM      1  C   UNL     1       4.300   4.302  18.473  0.00  0.00    +0.000 A 
ATOM      2  C   UNL     1       4.169   2.945  18.707  0.00  0.00    +0.000 A 
ATOM      3  N   UNL     1       3.134   2.753  19.582  0.00  0.00    +0.000 N 
ATOM      4  C   UNL     1       2.580   3.959  19.935  0.00  0.00    +0.000 A 
ATOM      5  C   UNL     1       1.529   4.245  20.812  0.00  0.00    +0.000 A 
ATOM      6  C   UNL     1       1.175   5.589  20.991  0.00  0.00    +0.000 A 
ATOM      7  C   UNL     1       1.816   6.635  20.306  0.00  0.00    +0.000 A 
ATOM      8  C   UNL     1       2.864   6.293  19.427  0.00  0.00    +0.000 A 
ATOM      9  C   UNL     1       3.275   4.951  19.243  0.00  0.00    +0.000 A 
ATOM     10  H   UNL     1       2.827   1.856  19.933  0.00  0.00    +0.000 HD
ENDROOT
BRANCH   1  16
ATOM     11  C   UNL     1       7.782   7.791  17.596  0.00  0.00    +0.000 C 
ATOM     12  C   UNL     1       7.054   6.552  17.167  0.00  0.00    +0.000 A 
ATOM     13  C   UNL     1       7.333   5.942  15.940  0.00  0.00    +0.000 A 
ATOM     14  C   UNL     1       6.621   4.811  15.543  0.00  0.00    +0.000 A 
ATOM     15  C   UNL     1       5.621   4.289  16.365  0.00  0.00    +0.000 A 
ATOM     16  C   UNL     1       5.337   4.866  17.610  0.00  0.00    +0.000 A 
ATOM     17  C   UNL     1       6.065   6.002  17.998  0.00  0.00    +0.000 A 
ENDBRANCH   1  16
BRANCH   7  18
ATOM     18  C   UNL     1       1.442   8.054  20.504  0.00  0.00    +0.000 A 
ATOM     19  C   UNL     1       1.488   8.690  21.742  0.00  0.00    +0.000 A 
ATOM     20  N   UNL     1       1.225  10.005  21.915  0.00  0.00    +0.000 NA
ATOM     21  C   UNL     1       0.902  10.669  20.778  0.00  0.00    +0.000 A 
ATOM     22  C   UNL     1       0.784  10.064  19.525  0.00  0.00    +0.000 A 
ATOM     23  N   UNL     1       1.064   8.746  19.391  0.00  0.00    +0.000 NA
BRANCH  22  24
ATOM     24  N   UNL     1       0.508  10.856  18.395  0.00  0.00    +0.000 N 
ATOM     25  H   UNL     1       1.126  11.673  18.374  0.00  0.00    +0.000 HD
BRANCH  24  26
ATOM     26  C   UNL     1      -0.874  11.342  18.303  0.00  0.00    +0.000 C 
BRANCH  26  27
ATOM     27  C   UNL     1      -1.707  10.387  17.408  0.00  0.00    +0.000 C 
BRANCH  27  28
ATOM     28  N   UNL     1      -2.598  11.085  16.441  0.00  0.00    +0.000 NA
ATOM     29  C   UNL     1      -2.829  10.273  15.241  0.00  0.00    +0.000 C 
ATOM     30  C   UNL     1      -3.887  11.370  17.083  0.00  0.00    +0.000 C 
ENDBRANCH  27  28
ENDBRANCH  26  27
ENDBRANCH  24  26
ENDBRANCH  22  24
ENDBRANCH   7  18
TORSDOF 6
ENDMDL
MODEL 3
REMARK VINA RESULT:      -7.8      0.860      1.040
REMARK  Name = 
REMARK  9 active torsions:
REMARK  status: ('A' for Active; 'I' for Inactive)
REMARK    1  A    between atoms: C_1  and  C_2
REMARK    2  A    between atoms: C_6  and  C_7
REMARK    3  A    between atoms: C_13  and  C_14
REMARK    4  A    between atoms: C_18  and  N_19
REMARK    5  A    between atoms: N_19  and  C_20
REMARK    6  A    between atoms: C_20  and  C_21
REMARK    7  A    between atoms: C_21  and  N_22
REMARK    8  A    between atoms: N_22  and  C_23
REMARK    9  A    between atoms: N_22  and  C_24
REMARK                            x       y       z     vdW  Elec       q    Type
REMARK                         _______ _______ _______ _____ _____    ______ ____
ROOT
ATOM      1  C   UNL     1       4.413   3.977  18.404  0.00  0.00    +0.000 A 
ATOM      2  C   UNL     1       4.322   2.756  19.049  0.00  0.00    +0.000 A 
ATOM      3  N   UNL     1       3.394   2.861  20.049  0.00  0.00    +0.000 N 
ATOM      4  C   UNL     1       2.871   4.131  20.081  0.00  0.00    +0.000 A 
ATOM      5  C   UNL     1       1.923   4.692  20.942  0.00  0.00    +0.000 A 
ATOM      6  C   UNL     1       1.578   6.036  20.746  0.00  0.00    +0.000 A 
ATOM      7  C   UNL     1       2.128   6.813  19.712  0.00  0.00    +0.000 A 
ATOM      8  C   UNL     1       3.074   6.197  18.867  0.00  0.00    +0.000 A 
ATOM      9  C   UNL     1       3.474   4.852  19.051  0.00  0.00    +0.000 A 
ATOM     10  H   UNL     1       3.137   2.118  20.685  0.00  0.00    +0.000 HD
ENDROOT
BRANCH   1  16
ATOM     11  C   UNL     1       5.450   3.907  13.506  0.00  0.00    +0.000 C 
ATOM     12  C   UNL     1       5.866   4.218  14.913  0.00  0.00    +0.000 A 
ATOM     13  C   UNL     1       7.139   4.721  15.193  0.00  0.00    +0.000 A 
ATOM     14  C   UNL     1       7.520   4.971  16.510  0.00  0.00    +0.000 A 
ATOM     15  C   UNL     1       6.632   4.711  17.556  0.00  0.00    +0.000 A 
ATOM     16  C   UNL     1       5.342   4.230  17.303  0.00  0.00    +0.000 A 
ATOM     17  C   UNL     1       4.971   3.986  15.971  0.00  0.00    +0.000 A 
ENDBRANCH   1  16
BRANCH   7  18
ATOM     18  C   UNL     1       1.765   8.234  19.514  0.00  0.00    +0.000 A 
ATOM     19  C   UNL     1       2.024   8.932  18.338  0.00  0.00    +0.000 A 
ATOM     20  N   UNL     1       1.623  10.206  18.122  0.00  0.00    +0.000 NA
ATOM     21  C   UNL     1       0.944  10.764  19.153  0.00  0.00    +0.000 A 
ATOM     22  C   UNL     1       0.712  10.128  20.375  0.00  0.00    +0.000 A 
ATOM     23  N   UNL     1       1.122   8.849  20.549  0.00  0.00    +0.000 NA
BRANCH  22  24
ATOM     24  N   UNL     1      -0.061  10.772  21.358  0.00  0.00    +0.000 N 
ATOM     25  H   UNL     1      -1.056  10.574  21.213  0.00  0.00    +0.000 HD
BRANCH  24  26
ATOM     26  C   UNL     1       0.098  12.230  21.412  0.00  0.00    +0.000 C 
BRANCH  26  27
ATOM     27  C   UNL     1      -0.843  12.820  22.494  0.00  0.00    +0.000 C 
BRANCH  27  28
ATOM     28  N   UNL     1      -0.412  14.146  23.016  0.00  0.00    +0.000 NA
ATOM     29  C   UNL     1      -0.340  15.147  21.945  0.00  0.00    +0.000 C 
ATOM     30  C   UNL     1      -1.362  14.603  24.037  0.00  0.00    +0.000 C 
ENDBRANCH  27  28
ENDBRANCH  26  27
ENDBRANCH  24  26
ENDBRANCH  22  24
ENDBRANCH   7  18
TORSDOF 6
ENDMDL
MODEL 4
REMARK VINA RESULT:      -7.7      1.556      2.301
REMARK  Name = 
REMARK  9 active torsions:
REMARK  status: ('A' for Active; 'I' for Inactive)
REMARK    1  A    between atoms: C_1  and  C_2
REMARK    2  A    between atoms: C_6  and  C_7
REMARK    3  A    between atoms: C_13  and  C_14
REMARK    4  A    between atoms: C_18  and  N_19
REMARK    5  A    between atoms: N_19  and  C_20
REMARK    6  A    between atoms: C_20  and  C_21
REMARK    7  A    between atoms: C_21  and  N_22
REMARK    8  A    between atoms: N_22  and  C_23
REMARK    9  A    between atoms: N_22  and  C_24
REMARK                            x       y       z     vdW  Elec       q    Type
REMARK                         _______ _______ _______ _____ _____    ______ ____
ROOT
ATOM      1  C   UNL     1       4.056   4.121  18.257  0.00  0.00    +0.000 A 
ATOM      2  C   UNL     1       3.891   2.770  18.506  0.00  0.00    +0.000 A 
ATOM      3  N   UNL     1       2.912   2.619  19.451  0.00  0.00    +0.000 N 
ATOM      4  C   UNL     1       2.429   3.847  19.836  0.00  0.00    +0.000 A 
ATOM      5  C   UNL     1       1.453   4.173  20.782  0.00  0.00    +0.000 A 
ATOM      6  C   UNL     1       1.164   5.530  20.979  0.00  0.00    +0.000 A 
ATOM      7  C   UNL     1       1.795   6.550  20.247  0.00  0.00    +0.000 A 
ATOM      8  C   UNL     1       2.766   6.167  19.299  0.00  0.00    +0.000 A 
ATOM      9  C   UNL     1       3.112   4.810  19.094  0.00  0.00    +0.000 A 
ATOM     10  H   UNL     1       2.596   1.735  19.826  0.00  0.00    +0.000 HD
ENDROOT
BRANCH   1  16
ATOM     11  C   UNL     1       6.252   4.017  13.759  0.00  0.00    +0.000 C 
ATOM     12  C   UNL     1       6.130   4.621  15.127  0.00  0.00    +0.000 A 
ATOM     13  C   UNL     1       6.975   5.657  15.533  0.00  0.00    +0.000 A 
ATOM     14  C   UNL     1       6.871   6.181  16.821  0.00  0.00    +0.000 A 
ATOM     15  C   UNL     1       5.928   5.665  17.712  0.00  0.00    +0.000 A 
ATOM     16  C   UNL     1       5.053   4.643  17.323  0.00  0.00    +0.000 A 
ATOM     17  C   UNL     1       5.167   4.128  16.022  0.00  0.00    +0.000 A 
ENDBRANCH   1  16
BRANCH   7  18
ATOM     18  C   UNL     1       1.489   7.982  20.464  0.00  0.00    +0.000 A 
ATOM     19  C   UNL     1       1.436   8.569  21.726  0.00  0.00    +0.000 A 
ATOM     20  N   UNL     1       1.236   9.892  21.926  0.00  0.00    +0.000 NA
ATOM     21  C   UNL     1       1.085  10.616  20.790  0.00  0.00    +0.000 A 
ATOM     22  C   UNL     1       1.071  10.066  19.506  0.00  0.00    +0.000 A 
ATOM     23  N   UNL     1       1.282   8.738  19.347  0.00  0.00    +0.000 NA
BRANCH  22  24
ATOM     24  N   UNL     1       0.973  10.915  18.388  0.00  0.00    +0.000 N 
ATOM     25  H   UNL     1       1.906  11.148  18.036  0.00  0.00    +0.000 HD
BRANCH  24  26
ATOM     26  C   UNL     1       0.262  12.176  18.630  0.00  0.00    +0.000 C 
BRANCH  26  27
ATOM     27  C   UNL     1      -1.186  12.074  18.082  0.00  0.00    +0.000 C 
BRANCH  27  28
ATOM     28  N   UNL     1      -2.185  11.620  19.088  0.00  0.00    +0.000 NA
ATOM     29  C   UNL     1      -2.190  12.490  20.271  0.00  0.00    +0.000 C 
ATOM     30  C   UNL     1      -3.523  11.623  18.485  0.00  0.00    +0.000 C 
ENDBRANCH  27  28
ENDBRANCH  26  27
ENDBRANCH  24  26
ENDBRANCH  22  24
ENDBRANCH   7  18
TORSDOF 6
ENDMDL
MODEL 5
REMARK VINA RESULT:      -7.6      1.916      3.061
REMARK  Name = 
REMARK  9 active torsions:
REMARK  status: ('A' for Active; 'I' for Inactive)
REMARK    1  A    between atoms: C_1  and  C_2
REMARK    2  A    between atoms: C_6  and  C_7
REMARK    3  A    between atoms: C_13  and  C_14
REMARK    4  A    between atoms: C_18  and  N_19
REMARK    5  A    between atoms: N_19  and  C_20
REMARK    6  A    between atoms: C_20  and  C_21
REMARK    7  A    between atoms: C_21  and  N_22
REMARK    8  A    between atoms: N_22  and  C_23
REMARK    9  A    between atoms: N_22  and  C_24
REMARK                            x       y       z     vdW  Elec       q    Type
REMARK                         _______ _______ _______ _____ _____    ______ ____
ROOT
ATOM      1  C   UNL     1       4.103   4.044  18.225  0.00  0.00    +0.000 A 
ATOM      2  C   UNL     1       3.936   2.702  18.519  0.00  0.00    +0.000 A 
ATOM      3  N   UNL     1       2.963   2.585  19.475  0.00  0.00    +0.000 N 
ATOM      4  C   UNL     1       2.487   3.826  19.822  0.00  0.00    +0.000 A 
ATOM      5  C   UNL     1       1.518   4.186  20.764  0.00  0.00    +0.000 A 
ATOM      6  C   UNL     1       1.234   5.550  20.919  0.00  0.00    +0.000 A 
ATOM      7  C   UNL     1       1.863   6.543  20.149  0.00  0.00    +0.000 A 
ATOM      8  C   UNL     1       2.826   6.126  19.208  0.00  0.00    +0.000 A 
ATOM      9  C   UNL     1       3.167   4.762  19.045  0.00  0.00    +0.000 A 
ATOM     10  H   UNL     1       2.647   1.715  19.880  0.00  0.00    +0.000 HD
ENDROOT
BRANCH   1  16
ATOM     11  C   UNL     1       6.158   3.897  13.661  0.00  0.00    +0.000 C 
ATOM     12  C   UNL     1       6.105   4.488  15.039  0.00  0.00    +0.000 A 
ATOM     13  C   UNL     1       7.008   5.481  15.432  0.00  0.00    +0.000 A 
ATOM     14  C   UNL     1       6.965   5.992  16.728  0.00  0.00    +0.000 A 
ATOM     15  C   UNL     1       6.026   5.508  17.641  0.00  0.00    +0.000 A 
ATOM     16  C   UNL     1       5.094   4.532  17.267  0.00  0.00    +0.000 A 
ATOM     17  C   UNL     1       5.147   4.029  15.957  0.00  0.00    +0.000 A 
ENDBRANCH   1  16
BRANCH   7  18
ATOM     18  C   UNL     1       1.563   7.983  20.322  0.00  0.00    +0.000 A 
ATOM     19  C   UNL     1       1.297   8.564  21.558  0.00  0.00    +0.000 A 
ATOM     20  N   UNL     1       1.102   9.892  21.732  0.00  0.00    +0.000 NA
ATOM     21  C   UNL     1       1.179  10.625  20.595  0.00  0.00    +0.000 A 
ATOM     22  C   UNL     1       1.383  10.082  19.325  0.00  0.00    +0.000 A 
ATOM     23  N   UNL     1       1.583   8.750  19.193  0.00  0.00    +0.000 NA
BRANCH  22  24
ATOM     24  N   UNL     1       1.514  10.939  18.216  0.00  0.00    +0.000 N 
ATOM     25  H   UNL     1       2.421  10.797  17.762  0.00  0.00    +0.000 HD
BRANCH  24  26
ATOM     26  C   UNL     1       1.389  12.369  18.522  0.00  0.00    +0.000 C 
BRANCH  26  27
ATOM     27  C   UNL     1       2.669  13.117  18.064  0.00  0.00    +0.000 C 
BRANCH  27  28
ATOM     28  N   UNL     1       2.599  14.594  18.230  0.00  0.00    +0.000 NA
ATOM     29  C   UNL     1       2.262  14.965  19.609  0.00  0.00    +0.000 C 
ATOM     30  C   UNL     1       3.895  15.188  17.877  0.00  0.00    +0.000 C 
ENDBRANCH  27  28
ENDBRANCH  26  27
ENDBRANCH  24  26
ENDBRANCH  22  24
ENDBRANCH   7  18
TORSDOF 6
ENDMDL
MODEL 6
REMARK VINA RESULT:      -7.6      2.589      4.851
REMARK  Name = 
REMARK  9 active torsions:
REMARK  status: ('A' for Active; 'I' for Inactive)
REMARK    1  A    between atoms: C_1  and  C_2
REMARK    2  A    between atoms: C_6  and  C_7
REMARK    3  A    between atoms: C_13  and  C_14
REMARK    4  A    between atoms: C_18  and  N_19
REMARK    5  A    between atoms: N_19  and  C_20
REMARK    6  A    between atoms: C_20  and  C_21
REMARK    7  A    between atoms: C_21  and  N_22
REMARK    8  A    between atoms: N_22  and  C_23
REMARK    9  A    between atoms: N_22  and  C_24
REMARK                            x       y       z     vdW  Elec       q    Type
REMARK                         _______ _______ _______ _____ _____    ______ ____
ROOT
ATOM      1  C   UNL     1       2.788   6.089  18.876  0.00  0.00    +0.000 A 
ATOM      2  C   UNL     1       3.466   6.120  17.670  0.00  0.00    +0.000 A 
ATOM      3  N   UNL     1       3.355   7.377  17.141  0.00  0.00    +0.000 N 
ATOM      4  C   UNL     1       2.612   8.179  17.974  0.00  0.00    +0.000 A 
ATOM      5  C   UNL     1       2.227   9.515  17.828  0.00  0.00    +0.000 A 
ATOM      6  C   UNL     1       1.450  10.085  18.845  0.00  0.00    +0.000 A 
ATOM      7  C   UNL     1       1.078   9.373  19.998  0.00  0.00    +0.000 A 
ATOM      8  C   UNL     1       1.499   8.032  20.101  0.00  0.00    +0.000 A 
ATOM      9  C   UNL     1       2.256   7.409  19.080  0.00  0.00    +0.000 A 
ATOM     10  H   UNL     1       3.749   7.675  16.259  0.00  0.00    +0.000 HD
ENDROOT
BRANCH   1  16
ATOM     11  C   UNL     1       4.691   1.749  20.494  0.00  0.00    +0.000 C 
ATOM     12  C   UNL     1       3.587   2.766  20.510  0.00  0.00    +0.000 A 
ATOM     13  C   UNL     1       2.435   2.564  21.274  0.00  0.00    +0.000 A 
ATOM     14  C   UNL     1       1.405   3.503  21.248  0.00  0.00    +0.000 A 
ATOM     15  C   UNL     1       1.517   4.644  20.451  0.00  0.00    +0.000 A 
ATOM     16  C   UNL     1       2.671   4.883  19.695  0.00  0.00    +0.000 A 
ATOM     17  C   UNL     1       3.702   3.930  19.733  0.00  0.00    +0.000 A 
ENDBRANCH   1  16
BRANCH   7  18
ATOM     18  C   UNL     1       0.251   9.979  21.067  0.00  0.00    +0.000 A 
ATOM     19  C   UNL     1       0.367   9.634  22.410  0.00  0.00    +0.000 A 
ATOM     20  N   UNL     1      -0.328  10.241  23.400  0.00  0.00    +0.000 NA
ATOM     21  C   UNL     1      -1.163  11.222  22.980  0.00  0.00    +0.000 A 
ATOM     22  C   UNL     1      -1.360  11.564  21.640  0.00  0.00    +0.000 A 
ATOM     23  N   UNL     1      -0.639  10.939  20.680  0.00  0.00    +0.000 NA
BRANCH  22  24
ATOM     24  N   UNL     1      -2.202  12.644  21.315  0.00  0.00    +0.000 N 
ATOM     25  H   UNL     1      -3.078  12.581  21.842  0.00  0.00    +0.000 HD
BRANCH  24  26
ATOM     26  C   UNL     1      -2.544  12.755  19.893  0.00  0.00    +0.000 C 
BRANCH  26  27
ATOM     27  C   UNL     1      -3.996  12.260  19.663  0.00  0.00    +0.000 C 
BRANCH  27  28
ATOM     28  N   UNL     1      -4.170  11.445  18.429  0.00  0.00    +0.000 NA
ATOM     29  C   UNL     1      -5.189  12.023  17.544  0.00  0.00    +0.000 C 
ATOM     30  C   UNL     1      -2.894  11.370  17.707  0.00  0.00    +0.000 C 
ENDBRANCH  27  28
ENDBRANCH  26  27
ENDBRANCH  24  26
ENDBRANCH  22  24
ENDBRANCH   7  18
TORSDOF 6
ENDMDL
MODEL 7
REMARK VINA RESULT:      -7.6      1.478      1.832
REMARK  Name = 
REMARK  9 active torsions:
REMARK  status: ('A' for Active; 'I' for Inactive)
REMARK    1  A    between atoms: C_1  and  C_2
REMARK    2  A    between atoms: C_6  and  C_7
REMARK    3  A    between atoms: C_13  and  C_14
REMARK    4  A    between atoms: C_18  and  N_19
REMARK    5  A    between atoms: N_19  and  C_20
REMARK    6  A    between atoms: C_20  and  C_21
REMARK    7  A    between atoms: C_21  and  N_22
REMARK    8  A    between atoms: N_22  and  C_23
REMARK    9  A    between atoms: N_22  and  C_24
REMARK                            x       y       z     vdW  Elec       q    Type
REMARK                         _______ _______ _______ _____ _____    ______ ____
ROOT
ATOM      1  C   UNL     1       4.403   4.071  18.344  0.00  0.00    +0.000 A 
ATOM      2  C   UNL     1       4.296   2.891  19.059  0.00  0.00    +0.000 A 
ATOM      3  N   UNL     1       3.375   3.069  20.056  0.00  0.00    +0.000 N 
ATOM      4  C   UNL     1       2.874   4.348  20.017  0.00  0.00    +0.000 A 
ATOM      5  C   UNL     1       1.941   4.974  20.849  0.00  0.00    +0.000 A 
ATOM      6  C   UNL     1       1.618   6.310  20.578  0.00  0.00    +0.000 A 
ATOM      7  C   UNL     1       2.175   7.016  19.498  0.00  0.00    +0.000 A 
ATOM      8  C   UNL     1       3.105   6.337  18.685  0.00  0.00    +0.000 A 
ATOM      9  C   UNL     1       3.484   4.998  18.945  0.00  0.00    +0.000 A 
ATOM     10  H   UNL     1       3.109   2.369  20.734  0.00  0.00    +0.000 HD
ENDROOT
BRANCH   1  16
ATOM     11  C   UNL     1       5.355   3.867  13.433  0.00  0.00    +0.000 C 
ATOM     12  C   UNL     1       5.814   4.166  14.830  0.00  0.00    +0.000 A 
ATOM     13  C   UNL     1       7.124   4.582  15.083  0.00  0.00    +0.000 A 
ATOM     14  C   UNL     1       7.542   4.821  16.391  0.00  0.00    +0.000 A 
ATOM     15  C   UNL     1       6.655   4.637  17.454  0.00  0.00    +0.000 A 
ATOM     16  C   UNL     1       5.330   4.244  17.226  0.00  0.00    +0.000 A 
ATOM     17  C   UNL     1       4.923   4.010  15.904  0.00  0.00    +0.000 A 
ENDBRANCH   1  16
BRANCH   7  18
ATOM     18  C   UNL     1       1.835   8.430  19.221  0.00  0.00    +0.000 A 
ATOM     19  C   UNL     1       2.169   9.078  18.034  0.00  0.00    +0.000 A 
ATOM     20  N   UNL     1       1.791  10.343  17.743  0.00  0.00    +0.000 NA
ATOM     21  C   UNL     1       1.056  10.947  18.708  0.00  0.00    +0.000 A 
ATOM     22  C   UNL     1       0.747  10.363  19.938  0.00  0.00    +0.000 A 
ATOM     23  N   UNL     1       1.136   9.091  20.189  0.00  0.00    +0.000 NA
BRANCH  22  24
ATOM     24  N   UNL     1      -0.079  11.052  20.846  0.00  0.00    +0.000 N 
ATOM     25  H   UNL     1      -0.976  10.567  20.949  0.00  0.00    +0.000 HD
BRANCH  24  26
ATOM     26  C   UNL     1      -0.366  12.445  20.486  0.00  0.00    +0.000 C 
BRANCH  26  27
ATOM     27  C   UNL     1       0.550  13.396  21.299  0.00  0.00    +0.000 C 
BRANCH  27  28
ATOM     28  N   UNL     1       1.511  14.171  20.467  0.00  0.00    +0.000 NA
ATOM     29  C   UNL     1       1.392  15.614  20.712  0.00  0.00    +0.000 C 
ATOM     30  C   UNL     1       2.881  13.744  20.776  0.00  0.00    +0.000 C 
ENDBRANCH  27  28
ENDBRANCH  26  27
ENDBRANCH  24  26
ENDBRANCH  22  24
ENDBRANCH   7  18
TORSDOF 6
ENDMDL
MODEL 8
REMARK VINA RESULT:      -7.6      2.354      5.227
REMARK  Name = 
REMARK  9 active torsions:
REMARK  status: ('A' for Active; 'I' for Inactive)
REMARK    1  A    between atoms: C_1  and  C_2
REMARK    2  A    between atoms: C_6  and  C_7
REMARK    3  A    between atoms: C_13  and  C_14
REMARK    4  A    between atoms: C_18  and  N_19
REMARK    5  A    between atoms: N_19  and  C_20
REMARK    6  A    between atoms: C_20  and  C_21
REMARK    7  A    between atoms: C_21  and  N_22
REMARK    8  A    between atoms: N_22  and  C_23
REMARK    9  A    between atoms: N_22  and  C_24
REMARK                            x       y       z     vdW  Elec       q    Type
REMARK                         _______ _______ _______ _____ _____    ______ ____
ROOT
ATOM      1  C   UNL     1       6.433   4.367  13.883  0.00  0.00    +0.000 A 
ATOM      2  C   UNL     1       7.664   4.967  13.683  0.00  0.00    +0.000 A 
ATOM      3  N   UNL     1       8.006   5.647  14.820  0.00  0.00    +0.000 N 
ATOM      4  C   UNL     1       7.021   5.512  15.769  0.00  0.00    +0.000 A 
ATOM      5  C   UNL     1       6.933   6.050  17.057  0.00  0.00    +0.000 A 
ATOM      6  C   UNL     1       5.791   5.749  17.812  0.00  0.00    +0.000 A 
ATOM      7  C   UNL     1       4.766   4.917  17.331  0.00  0.00    +0.000 A 
ATOM      8  C   UNL     1       4.908   4.394  16.029  0.00  0.00    +0.000 A 
ATOM      9  C   UNL     1       6.028   4.701  15.221  0.00  0.00    +0.000 A 
ATOM     10  H   UNL     1       8.853   6.185  14.945  0.00  0.00    +0.000 HD
ENDROOT
BRANCH   1  16
ATOM     11  C   UNL     1       6.218   0.327  10.934  0.00  0.00    +0.000 C 
ATOM     12  C   UNL     1       5.616   1.615  11.412  0.00  0.00    +0.000 A 
ATOM     13  C   UNL     1       4.423   2.097  10.865  0.00  0.00    +0.000 A 
ATOM     14  C   UNL     1       3.897   3.314  11.297  0.00  0.00    +0.000 A 
ATOM     15  C   UNL     1       4.565   4.059  12.270  0.00  0.00    +0.000 A 
ATOM     16  C   UNL     1       5.749   3.588  12.852  0.00  0.00    +0.000 A 
ATOM     17  C   UNL     1       6.265   2.359  12.409  0.00  0.00    +0.000 A 
ENDBRANCH   1  16
BRANCH   7  18
ATOM     18  C   UNL     1       3.559   4.609  18.132  0.00  0.00    +0.000 A 
ATOM     19  C   UNL     1       2.884   3.394  18.057  0.00  0.00    +0.000 A 
ATOM     20  N   UNL     1       1.830   3.077  18.844  0.00  0.00    +0.000 NA
ATOM     21  C   UNL     1       1.470   4.046  19.720  0.00  0.00    +0.000 A 
ATOM     22  C   UNL     1       2.077   5.302  19.791  0.00  0.00    +0.000 A 
ATOM     23  N   UNL     1       3.135   5.578  18.993  0.00  0.00    +0.000 NA
BRANCH  22  24
ATOM     24  N   UNL     1       1.671   6.214  20.783  0.00  0.00    +0.000 N 
ATOM     25  H   UNL     1       0.705   6.024  21.067  0.00  0.00    +0.000 HD
BRANCH  24  26
ATOM     26  C   UNL     1       1.749   7.627  20.394  0.00  0.00    +0.000 C 
BRANCH  26  27
ATOM     27  C   UNL     1       1.387   8.525  21.606  0.00  0.00    +0.000 C 
BRANCH  27  28
ATOM     28  N   UNL     1      -0.032   8.975  21.625  0.00  0.00    +0.000 NA
ATOM     29  C   UNL     1      -0.399   9.539  22.929  0.00  0.00    +0.000 C 
ATOM     30  C   UNL     1      -0.237   9.993  20.587  0.00  0.00    +0.000 C 
ENDBRANCH  27  28
ENDBRANCH  26  27
ENDBRANCH  24  26
ENDBRANCH  22  24
ENDBRANCH   7  18
TORSDOF 6
ENDMDL
MODEL 9
REMARK VINA RESULT:      -7.6      2.586      4.665
REMARK  Name = 
REMARK  9 active torsions:
REMARK  status: ('A' for Active; 'I' for Inactive)
REMARK    1  A    between atoms: C_1  and  C_2
REMARK    2  A    between atoms: C_6  and  C_7
REMARK    3  A    between atoms: C_13  and  C_14
REMARK    4  A    between atoms: C_18  and  N_19
REMARK    5  A    between atoms: N_19  and  C_20
REMARK    6  A    between atoms: C_20  and  C_21
REMARK    7  A    between atoms: C_21  and  N_22
REMARK    8  A    between atoms: N_22  and  C_23
REMARK    9  A    between atoms: N_22  and  C_24
REMARK                            x       y       z     vdW  Elec       q    Type
REMARK                         _______ _______ _______ _____ _____    ______ ____
ROOT
ATOM      1  C   UNL     1       2.774   6.286  18.891  0.00  0.00    +0.000 A 
ATOM      2  C   UNL     1       3.457   6.363  17.691  0.00  0.00    +0.000 A 
ATOM      3  N   UNL     1       3.314   7.629  17.190  0.00  0.00    +0.000 N 
ATOM      4  C   UNL     1       2.543   8.390  18.036  0.00  0.00    +0.000 A 
ATOM      5  C   UNL     1       2.120   9.717  17.918  0.00  0.00    +0.000 A 
ATOM      6  C   UNL     1       1.321  10.241  18.943  0.00  0.00    +0.000 A 
ATOM      7  C   UNL     1       0.962   9.493  20.077  0.00  0.00    +0.000 A 
ATOM      8  C   UNL     1       1.422   8.162  20.151  0.00  0.00    +0.000 A 
ATOM      9  C   UNL     1       2.202   7.584  19.122  0.00  0.00    +0.000 A 
ATOM     10  H   UNL     1       3.704   7.958  16.318  0.00  0.00    +0.000 HD
ENDROOT
BRANCH   1  16
ATOM     11  C   UNL     1       4.675   1.852  20.233  0.00  0.00    +0.000 C 
ATOM     12  C   UNL     1       3.604   2.895  20.363  0.00  0.00    +0.000 A 
ATOM     13  C   UNL     1       2.508   2.698  21.207  0.00  0.00    +0.000 A 
ATOM     14  C   UNL     1       1.504   3.663  21.287  0.00  0.00    +0.000 A 
ATOM     15  C   UNL     1       1.587   4.824  20.517  0.00  0.00    +0.000 A 
ATOM     16  C   UNL     1       2.687   5.058  19.681  0.00  0.00    +0.000 A 
ATOM     17  C   UNL     1       3.691   4.079  19.613  0.00  0.00    +0.000 A 
ENDBRANCH   1  16
BRANCH   7  18
ATOM     18  C   UNL     1       0.112  10.050  21.153  0.00  0.00    +0.000 A 
ATOM     19  C   UNL     1       0.153   9.599  22.469  0.00  0.00    +0.000 A 
ATOM     20  N   UNL     1      -0.562  10.157  23.472  0.00  0.00    +0.000 NA
ATOM     21  C   UNL     1      -1.339  11.202  23.096  0.00  0.00    +0.000 A 
ATOM     22  C   UNL     1      -1.460  11.653  21.779  0.00  0.00    +0.000 A 
ATOM     23  N   UNL     1      -0.721  11.073  20.805  0.00  0.00    +0.000 NA
BRANCH  22  24
ATOM     24  N   UNL     1      -2.244  12.789  21.504  0.00  0.00    +0.000 N 
ATOM     25  H   UNL     1      -1.871  13.290  20.692  0.00  0.00    +0.000 HD
BRANCH  24  26
ATOM     26  C   UNL     1      -2.349  13.750  22.609  0.00  0.00    +0.000 C 
BRANCH  26  27
ATOM     27  C   UNL     1      -3.841  13.985  22.959  0.00  0.00    +0.000 C 
BRANCH  27  28
ATOM     28  N   UNL     1      -4.626  12.733  23.139  0.00  0.00    +0.000 NA
ATOM     29  C   UNL     1      -4.796  12.405  24.559  0.00  0.00    +0.000 C 
ATOM     30  C   UNL     1      -5.949  12.892  22.522  0.00  0.00    +0.000 C 
ENDBRANCH  27  28
ENDBRANCH  26  27
ENDBRANCH  24  26
ENDBRANCH  22  24
ENDBRANCH   7  18
TORSDOF 6
ENDMDL
