MODEL 1
REMARK VINA RESULT:      -6.6      0.000      0.000
REMARK  Name = 
REMARK  9 active torsions:
REMARK  status: ('A' for Active; 'I' for Inactive)
REMARK    1  A    between atoms: C_1  and  C_2
REMARK    2  A    between atoms: N_7  and  C_8
REMARK    3  A    between atoms: C_8  and  C_9
REMARK    4  A    between atoms: C_9  and  O_10
REMARK    5  A    between atoms: C_9  and  C_11
REMARK    6  A    between atoms: C_11  and  O_12
REMARK    7  A    between atoms: O_12  and  C_13
REMARK    8  A    between atoms: C_13  and  C_14
REMARK    9  A    between atoms: C_13  and  C_15
REMARK                            x       y       z     vdW  Elec       q    Type
REMARK                         _______ _______ _______ _____ _____    ______ ____
ROOT
ATOM      1  C   UNL     1       7.908   6.141  18.671  0.00  0.00    +0.000 C 
ATOM      2  C   UNL     1       6.986   5.277  17.874  0.00  0.00    +0.000 A 
ATOM      3  C   UNL     1       7.072   5.121  16.543  0.00  0.00    +0.000 A 
ATOM      4  C   UNL     1       6.129   4.299  15.820  0.00  0.00    +0.000 A 
ATOM      5 BR   UNL     1       6.341   4.126  13.975  0.00  0.00    +0.000 Br
ATOM      6  C   UNL     1       5.127   3.712  16.482  0.00  0.00    +0.000 A 
ATOM      7  N   UNL     1       4.983   3.857  17.855  0.00  0.00    +0.000 N 
ATOM      8  C   UNL     1       5.895   4.571  18.629  0.00  0.00    +0.000 A 
ATOM      9  O   UNL     1       5.820   4.658  19.854  0.00  0.00    +0.000 OA
ENDROOT
BRANCH   7  10
ATOM     10  C   UNL     1       3.836   3.234  18.519  0.00  0.00    +0.000 C 
BRANCH  10  11
ATOM     11  C   UNL     1       2.570   3.190  17.639  0.00  0.00    +0.000 C 
BRANCH  11  12
ATOM     12  O   UNL     1       2.149   1.852  17.353  0.00  0.00    +0.000 OA
ATOM     13  H   UNL     1       2.632   1.243  17.946  0.00  0.00    +0.000 HD
ENDBRANCH  11  12
BRANCH  11  14
ATOM     14  C   UNL     1       1.418   3.921  18.339  0.00  0.00    +0.000 C 
BRANCH  14  15
ATOM     15  O   UNL     1       0.827   3.064  19.313  0.00  0.00    +0.000 OA
BRANCH  15  16
ATOM     16  C   UNL     1       0.872   3.569  20.649  0.00  0.00    +0.000 C 
ATOM     17  C   UNL     1       1.669   2.651  21.571  0.00  0.00    +0.000 C 
ATOM     18  C   UNL     1       1.545   4.937  20.572  0.00  0.00    +0.000 C 
ENDBRANCH  15  16
ENDBRANCH  14  15
ENDBRANCH  11  14
ENDBRANCH  10  11
ENDBRANCH   7  10
TORSDOF 6
ENDMDL
MODEL 2
REMARK VINA RESULT:      -6.5      1.214      1.387
REMARK  Name = 
REMARK  9 active torsions:
REMARK  status: ('A' for Active; 'I' for Inactive)
REMARK    1  A    between atoms: C_1  and  C_2
REMARK    2  A    between atoms: N_7  and  C_8
REMARK    3  A    between atoms: C_8  and  C_9
REMARK    4  A    between atoms: C_9  and  O_10
REMARK    5  A    between atoms: C_9  and  C_11
REMARK    6  A    between atoms: C_11  and  O_12
REMARK    7  A    between atoms: O_12  and  C_13
REMARK    8  A    between atoms: C_13  and  C_14
REMARK    9  A    between atoms: C_13  and  C_15
REMARK                            x       y       z     vdW  Elec       q    Type
REMARK                         _______ _______ _______ _____ _____    ______ ____
ROOT
ATOM      1  C   UNL     1       7.733   7.105  18.018  0.00  0.00    +0.000 C 
ATOM      2  C   UNL     1       6.962   5.926  17.519  0.00  0.00    +0.000 A 
ATOM      3  C   UNL     1       6.849   5.602  16.221  0.00  0.00    +0.000 A 
ATOM      4  C   UNL     1       6.060   4.469  15.795  0.00  0.00    +0.000 A 
ATOM      5 BR   UNL     1       5.978   4.085  13.972  0.00  0.00    +0.000 Br
ATOM      6  C   UNL     1       5.397   3.751  16.708  0.00  0.00    +0.000 A 
ATOM      7  N   UNL     1       5.466   4.056  18.060  0.00  0.00    +0.000 N 
ATOM      8  C   UNL     1       6.265   5.085  18.552  0.00  0.00    +0.000 A 
ATOM      9  O   UNL     1       6.390   5.331  19.751  0.00  0.00    +0.000 OA
ENDROOT
BRANCH   7  10
ATOM     10  C   UNL     1       4.677   3.266  19.008  0.00  0.00    +0.000 C 
BRANCH  10  11
ATOM     11  C   UNL     1       3.794   2.199  18.329  0.00  0.00    +0.000 C 
BRANCH  11  12
ATOM     12  O   UNL     1       4.337   0.880  18.453  0.00  0.00    +0.000 OA
ATOM     13  H   UNL     1       5.305   0.954  18.566  0.00  0.00    +0.000 HD
ENDBRANCH  11  12
BRANCH  11  14
ATOM     14  C   UNL     1       2.392   2.206  18.948  0.00  0.00    +0.000 C 
BRANCH  14  15
ATOM     15  O   UNL     1       2.491   2.373  20.360  0.00  0.00    +0.000 OA
BRANCH  15  16
ATOM     16  C   UNL     1       1.525   3.268  20.918  0.00  0.00    +0.000 C 
ATOM     17  C   UNL     1       2.122   4.648  21.179  0.00  0.00    +0.000 C 
ATOM     18  C   UNL     1       0.396   3.376  19.897  0.00  0.00    +0.000 C 
ENDBRANCH  15  16
ENDBRANCH  14  15
ENDBRANCH  11  14
ENDBRANCH  10  11
ENDBRANCH   7  10
TORSDOF 6
ENDMDL
MODEL 3
REMARK VINA RESULT:      -6.3      1.528      1.791
REMARK  Name = 
REMARK  9 active torsions:
REMARK  status: ('A' for Active; 'I' for Inactive)
REMARK    1  A    between atoms: C_1  and  C_2
REMARK    2  A    between atoms: N_7  and  C_8
REMARK    3  A    between atoms: C_8  and  C_9
REMARK    4  A    between atoms: C_9  and  O_10
REMARK    5  A    between atoms: C_9  and  C_11
REMARK    6  A    between atoms: C_11  and  O_12
REMARK    7  A    between atoms: O_12  and  C_13
REMARK    8  A    between atoms: C_13  and  C_14
REMARK    9  A    between atoms: C_13  and  C_15
REMARK                            x       y       z     vdW  Elec       q    Type
REMARK                         _______ _______ _______ _____ _____    ______ ____
ROOT
ATOM      1  C   UNL     1       7.511   7.095  17.524  0.00  0.00    +0.000 C 
ATOM      2  C   UNL     1       6.702   5.995  16.918  0.00  0.00    +0.000 A 
ATOM      3  C   UNL     1       6.874   5.544  15.666  0.00  0.00    +0.000 A 
ATOM      4  C   UNL     1       6.036   4.499  15.121  0.00  0.00    +0.000 A 
ATOM      5 BR   UNL     1       6.363   3.924  13.378  0.00  0.00    +0.000 Br
ATOM      6  C   UNL     1       5.046   3.997  15.866  0.00  0.00    +0.000 A 
ATOM      7  N   UNL     1       4.816   4.442  17.160  0.00  0.00    +0.000 N 
ATOM      8  C   UNL     1       5.627   5.391  17.777  0.00  0.00    +0.000 A 
ATOM      9  O   UNL     1       5.478   5.752  18.944  0.00  0.00    +0.000 OA
ENDROOT
BRANCH   7  10
ATOM     10  C   UNL     1       3.683   3.893  17.909  0.00  0.00    +0.000 C 
BRANCH  10  11
ATOM     11  C   UNL     1       4.027   2.601  18.679  0.00  0.00    +0.000 C 
BRANCH  11  12
ATOM     12  O   UNL     1       5.162   2.761  19.536  0.00  0.00    +0.000 OA
ATOM     13  H   UNL     1       5.090   2.117  20.268  0.00  0.00    +0.000 HD
ENDBRANCH  11  12
BRANCH  11  14
ATOM     14  C   UNL     1       2.832   2.166  19.534  0.00  0.00    +0.000 C 
BRANCH  14  15
ATOM     15  O   UNL     1       2.913   2.777  20.819  0.00  0.00    +0.000 OA
BRANCH  15  16
ATOM     16  C   UNL     1       1.811   3.632  21.136  0.00  0.00    +0.000 C 
ATOM     17  C   UNL     1       2.168   5.103  20.947  0.00  0.00    +0.000 C 
ATOM     18  C   UNL     1       0.678   3.247  20.189  0.00  0.00    +0.000 C 
ENDBRANCH  15  16
ENDBRANCH  14  15
ENDBRANCH  11  14
ENDBRANCH  10  11
ENDBRANCH   7  10
TORSDOF 6
ENDMDL
MODEL 4
REMARK VINA RESULT:      -6.2      0.742      1.129
REMARK  Name = 
REMARK  9 active torsions:
REMARK  status: ('A' for Active; 'I' for Inactive)
REMARK    1  A    between atoms: C_1  and  C_2
REMARK    2  A    between atoms: N_7  and  C_8
REMARK    3  A    between atoms: C_8  and  C_9
REMARK    4  A    between atoms: C_9  and  O_10
REMARK    5  A    between atoms: C_9  and  C_11
REMARK    6  A    between atoms: C_11  and  O_12
REMARK    7  A    between atoms: O_12  and  C_13
REMARK    8  A    between atoms: C_13  and  C_14
REMARK    9  A    between atoms: C_13  and  C_15
REMARK                            x       y       z     vdW  Elec       q    Type
REMARK                         _______ _______ _______ _____ _____    ______ ____
ROOT
ATOM      1  C   UNL     1       7.462   7.006  17.687  0.00  0.00    +0.000 C 
ATOM      2  C   UNL     1       6.758   5.836  17.082  0.00  0.00    +0.000 A 
ATOM      3  C   UNL     1       6.853   5.495  15.787  0.00  0.00    +0.000 A 
ATOM      4  C   UNL     1       6.119   4.372  15.249  0.00  0.00    +0.000 A 
ATOM      5 BR   UNL     1       6.329   3.964  13.442  0.00  0.00    +0.000 Br
ATOM      6  C   UNL     1       5.300   3.680  16.048  0.00  0.00    +0.000 A 
ATOM      7  N   UNL     1       5.154   4.003  17.390  0.00  0.00    +0.000 N 
ATOM      8  C   UNL     1       5.883   5.023  17.995  0.00  0.00    +0.000 A 
ATOM      9  O   UNL     1       5.815   5.283  19.196  0.00  0.00    +0.000 OA
ENDROOT
BRANCH   7  10
ATOM     10  C   UNL     1       4.203   3.242  18.203  0.00  0.00    +0.000 C 
BRANCH  10  11
ATOM     11  C   UNL     1       2.850   3.004  17.501  0.00  0.00    +0.000 C 
BRANCH  11  12
ATOM     12  O   UNL     1       2.285   1.728  17.821  0.00  0.00    +0.000 OA
ATOM     13  H   UNL     1       1.995   1.301  16.991  0.00  0.00    +0.000 HD
ENDBRANCH  11  12
BRANCH  11  14
ATOM     14  C   UNL     1       1.849   4.092  17.905  0.00  0.00    +0.000 C 
BRANCH  14  15
ATOM     15  O   UNL     1       1.150   3.690  19.079  0.00  0.00    +0.000 OA
BRANCH  15  16
ATOM     16  C   UNL     1       1.842   3.963  20.301  0.00  0.00    +0.000 C 
ATOM     17  C   UNL     1       1.593   5.390  20.780  0.00  0.00    +0.000 C 
ATOM     18  C   UNL     1       1.311   2.970  21.330  0.00  0.00    +0.000 C 
ENDBRANCH  15  16
ENDBRANCH  14  15
ENDBRANCH  11  14
ENDBRANCH  10  11
ENDBRANCH   7  10
TORSDOF 6
ENDMDL
MODEL 5
REMARK VINA RESULT:      -6.2      3.739      6.121
REMARK  Name = 
REMARK  9 active torsions:
REMARK  status: ('A' for Active; 'I' for Inactive)
REMARK    1  A    between atoms: C_1  and  C_2
REMARK    2  A    between atoms: N_7  and  C_8
REMARK    3  A    between atoms: C_8  and  C_9
REMARK    4  A    between atoms: C_9  and  O_10
REMARK    5  A    between atoms: C_9  and  C_11
REMARK    6  A    between atoms: C_11  and  O_12
REMARK    7  A    between atoms: O_12  and  C_13
REMARK    8  A    between atoms: C_13  and  C_14
REMARK    9  A    between atoms: C_13  and  C_15
REMARK                            x       y       z     vdW  Elec       q    Type
REMARK                         _______ _______ _______ _____ _____    ______ ____
ROOT
ATOM      1  C   UNL     1       7.602   5.540  19.904  0.00  0.00    +0.000 C 
ATOM      2  C   UNL     1       6.540   5.327  18.875  0.00  0.00    +0.000 A 
ATOM      3  C   UNL     1       5.240   5.596  19.076  0.00  0.00    +0.000 A 
ATOM      4  C   UNL     1       4.252   5.336  18.054  0.00  0.00    +0.000 A 
ATOM      5 BR   UNL     1       2.473   5.762  18.418  0.00  0.00    +0.000 Br
ATOM      6  C   UNL     1       4.632   4.779  16.900  0.00  0.00    +0.000 A 
ATOM      7  N   UNL     1       5.960   4.465  16.650  0.00  0.00    +0.000 N 
ATOM      8  C   UNL     1       6.978   4.755  17.556  0.00  0.00    +0.000 A 
ATOM      9  O   UNL     1       8.168   4.543  17.326  0.00  0.00    +0.000 OA
ENDROOT
BRANCH   7  10
ATOM     10  C   UNL     1       6.310   3.808  15.389  0.00  0.00    +0.000 C 
BRANCH  10  11
ATOM     11  C   UNL     1       6.644   4.800  14.255  0.00  0.00    +0.000 C 
BRANCH  11  12
ATOM     12  O   UNL     1       7.847   5.534  14.507  0.00  0.00    +0.000 OA
ATOM     13  H   UNL     1       8.572   5.123  13.996  0.00  0.00    +0.000 HD
ENDBRANCH  11  12
BRANCH  11  14
ATOM     14  C   UNL     1       6.805   4.047  12.929  0.00  0.00    +0.000 C 
BRANCH  14  15
ATOM     15  O   UNL     1       5.741   3.111  12.777  0.00  0.00    +0.000 OA
BRANCH  15  16
ATOM     16  C   UNL     1       5.487   2.721  11.424  0.00  0.00    +0.000 C 
ATOM     17  C   UNL     1       5.787   1.242  11.199  0.00  0.00    +0.000 C 
ATOM     18  C   UNL     1       4.009   2.997  11.165  0.00  0.00    +0.000 C 
ENDBRANCH  15  16
ENDBRANCH  14  15
ENDBRANCH  11  14
ENDBRANCH  10  11
ENDBRANCH   7  10
TORSDOF 6
ENDMDL
MODEL 6
REMARK VINA RESULT:      -6.2      1.455      2.012
REMARK  Name = 
REMARK  9 active torsions:
REMARK  status: ('A' for Active; 'I' for Inactive)
REMARK    1  A    between atoms: C_1  and  C_2
REMARK    2  A    between atoms: N_7  and  C_8
REMARK    3  A    between atoms: C_8  and  C_9
REMARK    4  A    between atoms: C_9  and  O_10
REMARK    5  A    between atoms: C_9  and  C_11
REMARK    6  A    between atoms: C_11  and  O_12
REMARK    7  A    between atoms: O_12  and  C_13
REMARK    8  A    between atoms: C_13  and  C_14
REMARK    9  A    between atoms: C_13  and  C_15
REMARK                            x       y       z     vdW  Elec       q    Type
REMARK                         _______ _______ _______ _____ _____    ______ ____
ROOT
ATOM      1  C   UNL     1       7.777   6.228  18.715  0.00  0.00    +0.000 C 
ATOM      2  C   UNL     1       6.903   5.330  17.902  0.00  0.00    +0.000 A 
ATOM      3  C   UNL     1       6.981   5.220  16.566  0.00  0.00    +0.000 A 
ATOM      4  C   UNL     1       6.084   4.360  15.829  0.00  0.00    +0.000 A 
ATOM      5 BR   UNL     1       6.281   4.258  13.977  0.00  0.00    +0.000 Br
ATOM      6  C   UNL     1       5.132   3.688  16.485  0.00  0.00    +0.000 A 
ATOM      7  N   UNL     1       4.998   3.781  17.863  0.00  0.00    +0.000 N 
ATOM      8  C   UNL     1       5.872   4.530  18.647  0.00  0.00    +0.000 A 
ATOM      9  O   UNL     1       5.809   4.574  19.875  0.00  0.00    +0.000 OA
ENDROOT
BRANCH   7  10
ATOM     10  C   UNL     1       3.904   3.064  18.520  0.00  0.00    +0.000 C 
BRANCH  10  11
ATOM     11  C   UNL     1       2.559   3.180  17.773  0.00  0.00    +0.000 C 
BRANCH  11  12
ATOM     12  O   UNL     1       1.752   2.007  17.914  0.00  0.00    +0.000 OA
ATOM     13  H   UNL     1       2.252   1.349  18.437  0.00  0.00    +0.000 HD
ENDBRANCH  11  12
BRANCH  11  14
ATOM     14  C   UNL     1       1.767   4.381  18.302  0.00  0.00    +0.000 C 
BRANCH  14  15
ATOM     15  O   UNL     1       2.262   5.580  17.712  0.00  0.00    +0.000 OA
BRANCH  15  16
ATOM     16  C   UNL     1       2.729   6.551  18.653  0.00  0.00    +0.000 C 
ATOM     17  C   UNL     1       2.161   7.936  18.361  0.00  0.00    +0.000 C 
ATOM     18  C   UNL     1       2.263   6.079  20.028  0.00  0.00    +0.000 C 
ENDBRANCH  15  16
ENDBRANCH  14  15
ENDBRANCH  11  14
ENDBRANCH  10  11
ENDBRANCH   7  10
TORSDOF 6
ENDMDL
MODEL 7
REMARK VINA RESULT:      -6.2      3.240      6.282
REMARK  Name = 
REMARK  9 active torsions:
REMARK  status: ('A' for Active; 'I' for Inactive)
REMARK    1  A    between atoms: C_1  and  C_2
REMARK    2  A    between atoms: N_7  and  C_8
REMARK    3  A    between atoms: C_8  and  C_9
REMARK    4  A    between atoms: C_9  and  O_10
REMARK    5  A    between atoms: C_9  and  C_11
REMARK    6  A    between atoms: C_11  and  O_12
REMARK    7  A    between atoms: O_12  and  C_13
REMARK    8  A    between atoms: C_13  and  C_14
REMARK    9  A    between atoms: C_13  and  C_15
REMARK                            x       y       z     vdW  Elec       q    Type
REMARK                         _______ _______ _______ _____ _____    ______ ____
ROOT
ATOM      1  C   UNL     1       1.586   3.348  19.295  0.00  0.00    +0.000 C 
ATOM      2  C   UNL     1       2.488   4.383  18.706  0.00  0.00    +0.000 A 
ATOM      3  C   UNL     1       2.153   5.676  18.571  0.00  0.00    +0.000 A 
ATOM      4  C   UNL     1       3.055   6.626  17.960  0.00  0.00    +0.000 A 
ATOM      5 BR   UNL     1       2.510   8.405  17.834  0.00  0.00    +0.000 Br
ATOM      6  C   UNL     1       4.231   6.203  17.486  0.00  0.00    +0.000 A 
ATOM      7  N   UNL     1       4.617   4.874  17.586  0.00  0.00    +0.000 N 
ATOM      8  C   UNL     1       3.834   3.917  18.227  0.00  0.00    +0.000 A 
ATOM      9  O   UNL     1       4.186   2.748  18.381  0.00  0.00    +0.000 OA
ENDROOT
BRANCH   7  10
ATOM     10  C   UNL     1       5.894   4.459  17.001  0.00  0.00    +0.000 C 
BRANCH  10  11
ATOM     11  C   UNL     1       6.314   5.307  15.783  0.00  0.00    +0.000 C 
BRANCH  11  12
ATOM     12  O   UNL     1       7.339   6.254  16.104  0.00  0.00    +0.000 OA
ATOM     13  H   UNL     1       7.949   6.318  15.343  0.00  0.00    +0.000 HD
ENDBRANCH  11  12
BRANCH  11  14
ATOM     14  C   UNL     1       6.829   4.397  14.662  0.00  0.00    +0.000 C 
BRANCH  14  15
ATOM     15  O   UNL     1       5.736   3.962  13.857  0.00  0.00    +0.000 OA
BRANCH  15  16
ATOM     16  C   UNL     1       6.118   3.389  12.604  0.00  0.00    +0.000 C 
ATOM     17  C   UNL     1       4.929   3.265  11.656  0.00  0.00    +0.000 C 
ATOM     18  C   UNL     1       7.165   4.323  12.003  0.00  0.00    +0.000 C 
ENDBRANCH  15  16
ENDBRANCH  14  15
ENDBRANCH  11  14
ENDBRANCH  10  11
ENDBRANCH   7  10
TORSDOF 6
ENDMDL
MODEL 8
REMARK VINA RESULT:      -6.1      1.676      1.787
REMARK  Name = 
REMARK  9 active torsions:
REMARK  status: ('A' for Active; 'I' for Inactive)
REMARK    1  A    between atoms: C_1  and  C_2
REMARK    2  A    between atoms: N_7  and  C_8
REMARK    3  A    between atoms: C_8  and  C_9
REMARK    4  A    between atoms: C_9  and  O_10
REMARK    5  A    between atoms: C_9  and  C_11
REMARK    6  A    between atoms: C_11  and  O_12
REMARK    7  A    between atoms: O_12  and  C_13
REMARK    8  A    between atoms: C_13  and  C_14
REMARK    9  A    between atoms: C_13  and  C_15
REMARK                            x       y       z     vdW  Elec       q    Type
REMARK                         _______ _______ _______ _____ _____    ______ ____
ROOT
ATOM      1  C   UNL     1       4.248   7.880  17.319  0.00  0.00    +0.000 C 
ATOM      2  C   UNL     1       4.649   6.467  17.042  0.00  0.00    +0.000 A 
ATOM      3  C   UNL     1       5.164   6.052  15.874  0.00  0.00    +0.000 A 
ATOM      4  C   UNL     1       5.500   4.664  15.651  0.00  0.00    +0.000 A 
ATOM      5 BR   UNL     1       6.229   4.185  14.002  0.00  0.00    +0.000 Br
ATOM      6  C   UNL     1       5.259   3.768  16.613  0.00  0.00    +0.000 A 
ATOM      7  N   UNL     1       4.711   4.143  17.832  0.00  0.00    +0.000 N 
ATOM      8  C   UNL     1       4.431   5.471  18.146  0.00  0.00    +0.000 A 
ATOM      9  O   UNL     1       4.006   5.831  19.243  0.00  0.00    +0.000 OA
ENDROOT
BRANCH   7  10
ATOM     10  C   UNL     1       4.420   3.110  18.829  0.00  0.00    +0.000 C 
BRANCH  10  11
ATOM     11  C   UNL     1       3.435   2.035  18.325  0.00  0.00    +0.000 C 
BRANCH  11  12
ATOM     12  O   UNL     1       4.025   0.732  18.276  0.00  0.00    +0.000 OA
ATOM     13  H   UNL     1       3.937   0.387  17.365  0.00  0.00    +0.000 HD
ENDBRANCH  11  12
BRANCH  11  14
ATOM     14  C   UNL     1       2.208   1.977  19.243  0.00  0.00    +0.000 C 
BRANCH  14  15
ATOM     15  O   UNL     1       1.493   3.207  19.168  0.00  0.00    +0.000 OA
BRANCH  15  16
ATOM     16  C   UNL     1       0.931   3.640  20.409  0.00  0.00    +0.000 C 
ATOM     17  C   UNL     1       1.352   2.735  21.563  0.00  0.00    +0.000 C 
ATOM     18  C   UNL     1       1.445   5.057  20.646  0.00  0.00    +0.000 C 
ENDBRANCH  15  16
ENDBRANCH  14  15
ENDBRANCH  11  14
ENDBRANCH  10  11
ENDBRANCH   7  10
TORSDOF 6
ENDMDL
MODEL 9
REMARK VINA RESULT:      -6.1      2.767      5.506
REMARK  Name = 
REMARK  9 active torsions:
REMARK  status: ('A' for Active; 'I' for Inactive)
REMARK    1  A    between atoms: C_1  and  C_2
REMARK    2  A    between atoms: N_7  and  C_8
REMARK    3  A    between atoms: C_8  and  C_9
REMARK    4  A    between atoms: C_9  and  O_10
REMARK    5  A    between atoms: C_9  and  C_11
REMARK    6  A    between atoms: C_11  and  O_12
REMARK    7  A    between atoms: O_12  and  C_13
REMARK    8  A    between atoms: C_13  and  C_14
REMARK    9  A    between atoms: C_13  and  C_15
REMARK                            x       y       z     vdW  Elec       q    Type
REMARK                         _______ _______ _______ _____ _____    ______ ____
ROOT
ATOM      1  C   UNL     1       2.540   2.813  18.053  0.00  0.00    +0.000 C 
ATOM      2  C   UNL     1       3.165   4.143  18.322  0.00  0.00    +0.000 A 
ATOM      3  C   UNL     1       2.559   5.316  18.080  0.00  0.00    +0.000 A 
ATOM      4  C   UNL     1       3.228   6.573  18.329  0.00  0.00    +0.000 A 
ATOM      5 BR   UNL     1       2.299   8.152  17.980  0.00  0.00    +0.000 Br
ATOM      6  C   UNL     1       4.489   6.569  18.772  0.00  0.00    +0.000 A 
ATOM      7  N   UNL     1       5.166   5.383  19.021  0.00  0.00    +0.000 N 
ATOM      8  C   UNL     1       4.562   4.136  18.877  0.00  0.00    +0.000 A 
ATOM      9  O   UNL     1       5.123   3.077  19.153  0.00  0.00    +0.000 OA
ENDROOT
BRANCH   7  10
ATOM     10  C   UNL     1       6.563   5.440  19.456  0.00  0.00    +0.000 C 
BRANCH  10  11
ATOM     11  C   UNL     1       7.569   5.387  18.288  0.00  0.00    +0.000 C 
BRANCH  11  12
ATOM     12  O   UNL     1       7.858   4.047  17.874  0.00  0.00    +0.000 OA
ATOM     13  H   UNL     1       8.826   3.912  17.919  0.00  0.00    +0.000 HD
ENDBRANCH  11  12
BRANCH  11  14
ATOM     14  C   UNL     1       7.016   6.157  17.083  0.00  0.00    +0.000 C 
BRANCH  14  15
ATOM     15  O   UNL     1       7.374   5.486  15.878  0.00  0.00    +0.000 OA
BRANCH  15  16
ATOM     16  C   UNL     1       6.278   5.235  14.995  0.00  0.00    +0.000 C 
ATOM     17  C   UNL     1       5.718   3.827  15.179  0.00  0.00    +0.000 C 
ATOM     18  C   UNL     1       5.206   6.267  15.332  0.00  0.00    +0.000 C 
ENDBRANCH  15  16
ENDBRANCH  14  15
ENDBRANCH  11  14
ENDBRANCH  10  11
ENDBRANCH   7  10
TORSDOF 6
ENDMDL
