MODEL 1
REMARK VINA RESULT:      -8.0      0.000      0.000
REMARK  Name = 
REMARK  10 active torsions:
REMARK  status: ('A' for Active; 'I' for Inactive)
REMARK    1  A    between atoms: C_1  and  C_2
REMARK    2  A    between atoms: C_2  and  C_3
REMARK    3  A    between atoms: C_2  and  C_4
REMARK    4  A    between atoms: C_4  and  C_5
REMARK    5  A    between atoms: C_5  and  C_6
REMARK    6  A    between atoms: C_5  and  C_7
REMARK    7  A    between atoms: C_11  and  N_12
REMARK    8  A    between atoms: C_13  and  C_15
REMARK    9  A    between atoms: N_17  and  C_18
REMARK   10  A    between atoms: C_20  and  C_21
REMARK                            x       y       z     vdW  Elec       q    Type
REMARK                         _______ _______ _______ _____ _____    ______ ____
ROOT
ATOM      1  N   UNL     1       4.702   3.520  18.543  0.00  0.00    +0.000 N 
ATOM      2  C   UNL     1       5.655   4.528  18.573  0.00  0.00    +0.000 C 
ATOM      3  O   UNL     1       5.969   5.210  19.536  0.00  0.00    +0.000 OA
ATOM      4  H   UNL     1       4.529   3.056  17.665  0.00  0.00    +0.000 HD
ENDROOT
BRANCH   2   5
ATOM      5  C   UNL     1       6.268   4.802  17.286  0.00  0.00    +0.000 A 
ATOM      6  C   UNL     1       6.193   4.099  16.099  0.00  0.00    +0.000 A 
ATOM      7  N   UNL     1       6.927   4.809  15.194  0.00  0.00    +0.000 N 
ATOM      8  C   UNL     1       7.043   4.561  13.776  0.00  0.00    +0.000 C 
ATOM      9  N   UNL     1       7.532   5.886  15.716  0.00  0.00    +0.000 NA
ATOM     10  C   UNL     1       7.123   5.910  16.997  0.00  0.00    +0.000 A 
BRANCH  10  11
ATOM     11  C   UNL     1       7.491   7.009  17.957  0.00  0.00    +0.000 C 
ATOM     12  F   UNL     1       8.450   6.627  18.850  0.00  0.00    +0.000 F 
ATOM     13  F   UNL     1       8.022   8.071  17.285  0.00  0.00    +0.000 F 
ENDBRANCH  10  11
ENDBRANCH   2   5
BRANCH   1  18
ATOM     14  C   UNL     1       2.619   3.814  19.826  0.00  0.00    +0.000 A 
ATOM     15  S   UNL     1       1.840   3.168  21.233  0.00  0.00    +0.000 S 
ATOM     16  C   UNL     1       3.140   2.137  21.576  0.00  0.00    +0.000 A 
ATOM     17  C   UNL     1       4.136   2.244  20.636  0.00  0.00    +0.000 A 
ATOM     18  C   UNL     1       3.852   3.204  19.607  0.00  0.00    +0.000 A 
BRANCH  14  19
ATOM     19  C   UNL     1       1.863   4.924  19.101  0.00  0.00    +0.000 C 
ATOM     20  C   UNL     1       1.588   4.573  17.640  0.00  0.00    +0.000 C 
BRANCH  19  21
ATOM     21  C   UNL     1       2.558   6.292  19.279  0.00  0.00    +0.000 C 
BRANCH  21  23
ATOM     22  C   UNL     1       1.830   8.618  18.498  0.00  0.00    +0.000 C 
ATOM     23  C   UNL     1       2.418   7.267  18.087  0.00  0.00    +0.000 C 
ATOM     24  C   UNL     1       3.790   7.480  17.437  0.00  0.00    +0.000 C 
ENDBRANCH  21  23
ENDBRANCH  19  21
ENDBRANCH  14  19
ENDBRANCH   1  18
TORSDOF 6
ENDMDL
MODEL 2
REMARK VINA RESULT:      -7.7      0.948      1.387
REMARK  Name = 
REMARK  10 active torsions:
REMARK  status: ('A' for Active; 'I' for Inactive)
REMARK    1  A    between atoms: C_1  and  C_2
REMARK    2  A    between atoms: C_2  and  C_3
REMARK    3  A    between atoms: C_2  and  C_4
REMARK    4  A    between atoms: C_4  and  C_5
REMARK    5  A    between atoms: C_5  and  C_6
REMARK    6  A    between atoms: C_5  and  C_7
REMARK    7  A    between atoms: C_11  and  N_12
REMARK    8  A    between atoms: C_13  and  C_15
REMARK    9  A    between atoms: N_17  and  C_18
REMARK   10  A    between atoms: C_20  and  C_21
REMARK                            x       y       z     vdW  Elec       q    Type
REMARK                         _______ _______ _______ _____ _____    ______ ____
ROOT
ATOM      1  N   UNL     1       4.082   3.744  17.979  0.00  0.00    +0.000 N 
ATOM      2  C   UNL     1       5.399   4.100  18.228  0.00  0.00    +0.000 C 
ATOM      3  O   UNL     1       5.958   4.127  19.314  0.00  0.00    +0.000 OA
ATOM      4  H   UNL     1       3.748   3.793  17.029  0.00  0.00    +0.000 HD
ENDROOT
BRANCH   2   5
ATOM      5  C   UNL     1       6.127   4.536  17.051  0.00  0.00    +0.000 A 
ATOM      6  C   UNL     1       6.133   4.021  15.769  0.00  0.00    +0.000 A 
ATOM      7  N   UNL     1       6.962   4.826  15.043  0.00  0.00    +0.000 N 
ATOM      8  C   UNL     1       7.191   4.787  13.618  0.00  0.00    +0.000 C 
ATOM      9  N   UNL     1       7.553   5.787  15.769  0.00  0.00    +0.000 NA
ATOM     10  C   UNL     1       7.037   5.637  17.002  0.00  0.00    +0.000 A 
BRANCH  10  11
ATOM     11  C   UNL     1       7.355   6.565  18.144  0.00  0.00    +0.000 C 
ATOM     12  F   UNL     1       8.319   6.067  18.971  0.00  0.00    +0.000 F 
ATOM     13  F   UNL     1       7.852   7.746  17.675  0.00  0.00    +0.000 F 
ENDBRANCH  10  11
ENDBRANCH   2   5
BRANCH   1  18
ATOM     14  C   UNL     1       2.469   4.449  19.704  0.00  0.00    +0.000 A 
ATOM     15  S   UNL     1       1.368   3.742  20.841  0.00  0.00    +0.000 S 
ATOM     16  C   UNL     1       1.809   2.165  20.407  0.00  0.00    +0.000 A 
ATOM     17  C   UNL     1       2.745   2.157  19.402  0.00  0.00    +0.000 A 
ATOM     18  C   UNL     1       3.136   3.469  18.972  0.00  0.00    +0.000 A 
BRANCH  14  19
ATOM     19  C   UNL     1       2.542   5.973  19.712  0.00  0.00    +0.000 C 
ATOM     20  C   UNL     1       1.660   6.586  20.798  0.00  0.00    +0.000 C 
BRANCH  19  21
ATOM     21  C   UNL     1       2.275   6.560  18.308  0.00  0.00    +0.000 C 
BRANCH  21  23
ATOM     22  C   UNL     1       4.022   7.563  16.729  0.00  0.00    +0.000 C 
ATOM     23  C   UNL     1       3.115   7.804  17.938  0.00  0.00    +0.000 C 
ATOM     24  C   UNL     1       2.181   8.985  17.651  0.00  0.00    +0.000 C 
ENDBRANCH  21  23
ENDBRANCH  19  21
ENDBRANCH  14  19
ENDBRANCH   1  18
TORSDOF 6
ENDMDL
MODEL 3
REMARK VINA RESULT:      -7.2      1.270      1.745
REMARK  Name = 
REMARK  10 active torsions:
REMARK  status: ('A' for Active; 'I' for Inactive)
REMARK    1  A    between atoms: C_1  and  C_2
REMARK    2  A    between atoms: C_2  and  C_3
REMARK    3  A    between atoms: C_2  and  C_4
REMARK    4  A    between atoms: C_4  and  C_5
REMARK    5  A    between atoms: C_5  and  C_6
REMARK    6  A    between atoms: C_5  and  C_7
REMARK    7  A    between atoms: C_11  and  N_12
REMARK    8  A    between atoms: C_13  and  C_15
REMARK    9  A    between atoms: N_17  and  C_18
REMARK   10  A    between atoms: C_20  and  C_21
REMARK                            x       y       z     vdW  Elec       q    Type
REMARK                         _______ _______ _______ _____ _____    ______ ____
ROOT
ATOM      1  N   UNL     1       3.937   4.084  17.673  0.00  0.00    +0.000 N 
ATOM      2  C   UNL     1       5.305   4.166  17.893  0.00  0.00    +0.000 C 
ATOM      3  O   UNL     1       5.888   3.995  18.953  0.00  0.00    +0.000 OA
ATOM      4  H   UNL     1       3.594   4.276  16.745  0.00  0.00    +0.000 HD
ENDROOT
BRANCH   2   5
ATOM      5  C   UNL     1       6.070   4.558  16.724  0.00  0.00    +0.000 A 
ATOM      6  C   UNL     1       6.132   3.984  15.469  0.00  0.00    +0.000 A 
ATOM      7  N   UNL     1       6.975   4.768  14.737  0.00  0.00    +0.000 N 
ATOM      8  C   UNL     1       7.259   4.665  13.325  0.00  0.00    +0.000 C 
ATOM      9  N   UNL     1       7.524   5.771  15.437  0.00  0.00    +0.000 NA
ATOM     10  C   UNL     1       6.964   5.672  16.656  0.00  0.00    +0.000 A 
BRANCH  10  11
ATOM     11  C   UNL     1       7.224   6.657  17.763  0.00  0.00    +0.000 C 
ATOM     12  F   UNL     1       8.132   6.198  18.673  0.00  0.00    +0.000 F 
ATOM     13  F   UNL     1       7.762   7.807  17.262  0.00  0.00    +0.000 F 
ENDBRANCH  10  11
ENDBRANCH   2   5
BRANCH   1  18
ATOM     14  C   UNL     1       2.235   4.942  19.235  0.00  0.00    +0.000 A 
ATOM     15  S   UNL     1       1.150   4.351  20.451  0.00  0.00    +0.000 S 
ATOM     16  C   UNL     1       1.704   2.758  20.282  0.00  0.00    +0.000 A 
ATOM     17  C   UNL     1       2.667   2.655  19.308  0.00  0.00    +0.000 A 
ATOM     18  C   UNL     1       2.984   3.906  18.680  0.00  0.00    +0.000 A 
BRANCH  14  19
ATOM     19  C   UNL     1       2.209   6.450  19.000  0.00  0.00    +0.000 C 
ATOM     20  C   UNL     1       3.257   6.891  17.980  0.00  0.00    +0.000 C 
BRANCH  19  21
ATOM     21  C   UNL     1       2.286   7.231  20.329  0.00  0.00    +0.000 C 
BRANCH  21  23
ATOM     22  C   UNL     1       1.194   8.859  21.976  0.00  0.00    +0.000 C 
ATOM     23  C   UNL     1       1.118   8.211  20.592  0.00  0.00    +0.000 C 
ATOM     24  C   UNL     1       1.111   9.300  19.514  0.00  0.00    +0.000 C 
ENDBRANCH  21  23
ENDBRANCH  19  21
ENDBRANCH  14  19
ENDBRANCH   1  18
TORSDOF 6
ENDMDL
MODEL 4
REMARK VINA RESULT:      -6.9      2.057      2.993
REMARK  Name = 
REMARK  10 active torsions:
REMARK  status: ('A' for Active; 'I' for Inactive)
REMARK    1  A    between atoms: C_1  and  C_2
REMARK    2  A    between atoms: C_2  and  C_3
REMARK    3  A    between atoms: C_2  and  C_4
REMARK    4  A    between atoms: C_4  and  C_5
REMARK    5  A    between atoms: C_5  and  C_6
REMARK    6  A    between atoms: C_5  and  C_7
REMARK    7  A    between atoms: C_11  and  N_12
REMARK    8  A    between atoms: C_13  and  C_15
REMARK    9  A    between atoms: N_17  and  C_18
REMARK   10  A    between atoms: C_20  and  C_21
REMARK                            x       y       z     vdW  Elec       q    Type
REMARK                         _______ _______ _______ _____ _____    ______ ____
ROOT
ATOM      1  N   UNL     1       4.052   4.351  17.768  0.00  0.00    +0.000 N 
ATOM      2  C   UNL     1       5.330   4.359  18.307  0.00  0.00    +0.000 C 
ATOM      3  O   UNL     1       5.771   3.601  19.158  0.00  0.00    +0.000 OA
ATOM      4  H   UNL     1       3.820   5.057  17.087  0.00  0.00    +0.000 HD
ENDROOT
BRANCH   2   5
ATOM      5  C   UNL     1       6.172   5.437  17.821  0.00  0.00    +0.000 A 
ATOM      6  C   UNL     1       6.572   6.602  18.446  0.00  0.00    +0.000 A 
ATOM      7  N   UNL     1       7.384   7.246  17.558  0.00  0.00    +0.000 N 
ATOM      8  C   UNL     1       8.162   8.440  17.793  0.00  0.00    +0.000 C 
ATOM      9  N   UNL     1       7.489   6.625  16.375  0.00  0.00    +0.000 NA
ATOM     10  C   UNL     1       6.767   5.500  16.524  0.00  0.00    +0.000 A 
BRANCH  10  11
ATOM     11  C   UNL     1       6.669   4.440  15.460  0.00  0.00    +0.000 C 
ATOM     12  F   UNL     1       5.432   4.383  14.887  0.00  0.00    +0.000 F 
ATOM     13  F   UNL     1       7.531   4.710  14.437  0.00  0.00    +0.000 F 
ENDBRANCH  10  11
ENDBRANCH   2   5
BRANCH   1  18
ATOM     14  C   UNL     1       2.345   3.704  19.424  0.00  0.00    +0.000 A 
ATOM     15  S   UNL     1       1.112   2.506  19.639  0.00  0.00    +0.000 S 
ATOM     16  C   UNL     1       1.491   1.738  18.178  0.00  0.00    +0.000 A 
ATOM     17  C   UNL     1       2.507   2.382  17.513  0.00  0.00    +0.000 A 
ATOM     18  C   UNL     1       3.011   3.530  18.212  0.00  0.00    +0.000 A 
BRANCH  14  19
ATOM     19  C   UNL     1       2.509   4.700  20.568  0.00  0.00    +0.000 C 
ATOM     20  C   UNL     1       2.412   4.027  21.935  0.00  0.00    +0.000 C 
BRANCH  19  21
ATOM     21  C   UNL     1       1.554   5.903  20.412  0.00  0.00    +0.000 C 
BRANCH  21  23
ATOM     22  C   UNL     1       2.409   7.407  18.526  0.00  0.00    +0.000 C 
ATOM     23  C   UNL     1       2.229   7.243  20.036  0.00  0.00    +0.000 C 
ATOM     24  C   UNL     1       1.395   8.407  20.584  0.00  0.00    +0.000 C 
ENDBRANCH  21  23
ENDBRANCH  19  21
ENDBRANCH  14  19
ENDBRANCH   1  18
TORSDOF 6
ENDMDL
MODEL 5
REMARK VINA RESULT:      -6.9      2.074      3.893
REMARK  Name = 
REMARK  10 active torsions:
REMARK  status: ('A' for Active; 'I' for Inactive)
REMARK    1  A    between atoms: C_1  and  C_2
REMARK    2  A    between atoms: C_2  and  C_3
REMARK    3  A    between atoms: C_2  and  C_4
REMARK    4  A    between atoms: C_4  and  C_5
REMARK    5  A    between atoms: C_5  and  C_6
REMARK    6  A    between atoms: C_5  and  C_7
REMARK    7  A    between atoms: C_11  and  N_12
REMARK    8  A    between atoms: C_13  and  C_15
REMARK    9  A    between atoms: N_17  and  C_18
REMARK   10  A    between atoms: C_20  and  C_21
REMARK                            x       y       z     vdW  Elec       q    Type
REMARK                         _______ _______ _______ _____ _____    ______ ____
ROOT
ATOM      1  N   UNL     1       3.781   6.343  17.477  0.00  0.00    +0.000 N 
ATOM      2  C   UNL     1       5.048   6.695  17.034  0.00  0.00    +0.000 C 
ATOM      3  O   UNL     1       5.649   7.730  17.277  0.00  0.00    +0.000 OA
ATOM      4  H   UNL     1       3.400   5.461  17.173  0.00  0.00    +0.000 HD
ENDROOT
BRANCH   2   5
ATOM      5  C   UNL     1       5.654   5.723  16.141  0.00  0.00    +0.000 A 
ATOM      6  C   UNL     1       5.351   5.413  14.830  0.00  0.00    +0.000 A 
ATOM      7  N   UNL     1       6.247   4.455  14.453  0.00  0.00    +0.000 N 
ATOM      8  C   UNL     1       6.433   3.903  13.131  0.00  0.00    +0.000 C 
ATOM      9  N   UNL     1       7.068   4.066  15.439  0.00  0.00    +0.000 NA
ATOM     10  C   UNL     1       6.732   4.849  16.480  0.00  0.00    +0.000 A 
BRANCH  10  11
ATOM     11  C   UNL     1       7.459   4.821  17.798  0.00  0.00    +0.000 C 
ATOM     12  F   UNL     1       8.516   3.958  17.796  0.00  0.00    +0.000 F 
ATOM     13  F   UNL     1       7.991   6.046  18.076  0.00  0.00    +0.000 F 
ENDBRANCH  10  11
ENDBRANCH   2   5
BRANCH   1  18
ATOM     14  C   UNL     1       2.427   6.904  19.458  0.00  0.00    +0.000 A 
ATOM     15  S   UNL     1       1.411   8.184  20.035  0.00  0.00    +0.000 S 
ATOM     16  C   UNL     1       1.591   9.078  18.607  0.00  0.00    +0.000 A 
ATOM     17  C   UNL     1       2.425   8.449  17.715  0.00  0.00    +0.000 A 
ATOM     18  C   UNL     1       2.930   7.192  18.190  0.00  0.00    +0.000 A 
BRANCH  14  19
ATOM     19  C   UNL     1       2.576   5.705  20.389  0.00  0.00    +0.000 C 
ATOM     20  C   UNL     1       3.853   4.914  20.109  0.00  0.00    +0.000 C 
BRANCH  19  21
ATOM     21  C   UNL     1       1.305   4.828  20.392  0.00  0.00    +0.000 C 
BRANCH  21  23
ATOM     22  C   UNL     1       1.359   2.596  21.644  0.00  0.00    +0.000 C 
ATOM     23  C   UNL     1       1.549   3.304  20.301  0.00  0.00    +0.000 C 
ATOM     24  C   UNL     1       0.602   2.695  19.261  0.00  0.00    +0.000 C 
ENDBRANCH  21  23
ENDBRANCH  19  21
ENDBRANCH  14  19
ENDBRANCH   1  18
TORSDOF 6
ENDMDL
MODEL 6
REMARK VINA RESULT:      -6.8      1.331      1.464
REMARK  Name = 
REMARK  10 active torsions:
REMARK  status: ('A' for Active; 'I' for Inactive)
REMARK    1  A    between atoms: C_1  and  C_2
REMARK    2  A    between atoms: C_2  and  C_3
REMARK    3  A    between atoms: C_2  and  C_4
REMARK    4  A    between atoms: C_4  and  C_5
REMARK    5  A    between atoms: C_5  and  C_6
REMARK    6  A    between atoms: C_5  and  C_7
REMARK    7  A    between atoms: C_11  and  N_12
REMARK    8  A    between atoms: C_13  and  C_15
REMARK    9  A    between atoms: N_17  and  C_18
REMARK   10  A    between atoms: C_20  and  C_21
REMARK                            x       y       z     vdW  Elec       q    Type
REMARK                         _______ _______ _______ _____ _____    ______ ____
ROOT
ATOM      1  N   UNL     1       4.884   3.995  18.199  0.00  0.00    +0.000 N 
ATOM      2  C   UNL     1       4.670   3.647  16.873  0.00  0.00    +0.000 C 
ATOM      3  O   UNL     1       3.768   2.949  16.435  0.00  0.00    +0.000 OA
ATOM      4  H   UNL     1       5.690   4.559  18.417  0.00  0.00    +0.000 HD
ENDROOT
BRANCH   2   5
ATOM      5  C   UNL     1       5.688   4.136  15.961  0.00  0.00    +0.000 A 
ATOM      6  C   UNL     1       5.744   4.080  14.582  0.00  0.00    +0.000 A 
ATOM      7  N   UNL     1       6.897   4.718  14.226  0.00  0.00    +0.000 N 
ATOM      8  C   UNL     1       7.339   5.045  12.891  0.00  0.00    +0.000 C 
ATOM      9  N   UNL     1       7.633   5.126  15.270  0.00  0.00    +0.000 NA
ATOM     10  C   UNL     1       6.896   4.795  16.346  0.00  0.00    +0.000 A 
BRANCH  10  11
ATOM     11  C   UNL     1       7.296   5.142  17.755  0.00  0.00    +0.000 C 
ATOM     12  F   UNL     1       8.263   4.313  18.245  0.00  0.00    +0.000 F 
ATOM     13  F   UNL     1       7.834   6.395  17.803  0.00  0.00    +0.000 F 
ENDBRANCH  10  11
ENDBRANCH   2   5
BRANCH   1  18
ATOM     14  C   UNL     1       2.909   3.986  19.672  0.00  0.00    +0.000 A 
ATOM     15  S   UNL     1       2.294   3.118  21.040  0.00  0.00    +0.000 S 
ATOM     16  C   UNL     1       3.674   2.141  21.140  0.00  0.00    +0.000 A 
ATOM     17  C   UNL     1       4.577   2.432  20.146  0.00  0.00    +0.000 A 
ATOM     18  C   UNL     1       4.150   3.491  19.277  0.00  0.00    +0.000 A 
BRANCH  14  19
ATOM     19  C   UNL     1       2.031   5.125  19.161  0.00  0.00    +0.000 C 
ATOM     20  C   UNL     1       1.418   4.811  17.797  0.00  0.00    +0.000 C 
BRANCH  19  21
ATOM     21  C   UNL     1       2.780   6.475  19.195  0.00  0.00    +0.000 C 
BRANCH  21  23
ATOM     22  C   UNL     1       2.247   8.690  18.026  0.00  0.00    +0.000 C 
ATOM     23  C   UNL     1       2.784   7.266  17.866  0.00  0.00    +0.000 C 
ATOM     24  C   UNL     1       4.210   7.315  17.304  0.00  0.00    +0.000 C 
ENDBRANCH  21  23
ENDBRANCH  19  21
ENDBRANCH  14  19
ENDBRANCH   1  18
TORSDOF 6
ENDMDL
MODEL 7
REMARK VINA RESULT:      -6.8      0.631      1.123
REMARK  Name = 
REMARK  10 active torsions:
REMARK  status: ('A' for Active; 'I' for Inactive)
REMARK    1  A    between atoms: C_1  and  C_2
REMARK    2  A    between atoms: C_2  and  C_3
REMARK    3  A    between atoms: C_2  and  C_4
REMARK    4  A    between atoms: C_4  and  C_5
REMARK    5  A    between atoms: C_5  and  C_6
REMARK    6  A    between atoms: C_5  and  C_7
REMARK    7  A    between atoms: C_11  and  N_12
REMARK    8  A    between atoms: C_13  and  C_15
REMARK    9  A    between atoms: N_17  and  C_18
REMARK   10  A    between atoms: C_20  and  C_21
REMARK                            x       y       z     vdW  Elec       q    Type
REMARK                         _______ _______ _______ _____ _____    ______ ____
ROOT
ATOM      1  N   UNL     1       4.820   3.364  18.344  0.00  0.00    +0.000 N 
ATOM      2  C   UNL     1       5.622   4.496  18.376  0.00  0.00    +0.000 C 
ATOM      3  O   UNL     1       5.770   5.264  19.315  0.00  0.00    +0.000 OA
ATOM      4  H   UNL     1       4.776   2.838  17.486  0.00  0.00    +0.000 HD
ENDROOT
BRANCH   2   5
ATOM      5  C   UNL     1       6.283   4.789  17.117  0.00  0.00    +0.000 A 
ATOM      6  C   UNL     1       6.262   4.098  15.921  0.00  0.00    +0.000 A 
ATOM      7  N   UNL     1       7.024   4.825  15.053  0.00  0.00    +0.000 N 
ATOM      8  C   UNL     1       7.199   4.592  13.639  0.00  0.00    +0.000 C 
ATOM      9  N   UNL     1       7.599   5.901  15.610  0.00  0.00    +0.000 NA
ATOM     10  C   UNL     1       7.138   5.908  16.874  0.00  0.00    +0.000 A 
BRANCH  10  11
ATOM     11  C   UNL     1       7.458   7.000  17.859  0.00  0.00    +0.000 C 
ATOM     12  F   UNL     1       8.389   6.619  18.780  0.00  0.00    +0.000 F 
ATOM     13  F   UNL     1       8.000   8.076  17.218  0.00  0.00    +0.000 F 
ENDBRANCH  10  11
ENDBRANCH   2   5
BRANCH   1  18
ATOM     14  C   UNL     1       2.563   3.136  19.307  0.00  0.00    +0.000 A 
ATOM     15  S   UNL     1       1.804   2.553  20.751  0.00  0.00    +0.000 S 
ATOM     16  C   UNL     1       3.288   2.159  21.467  0.00  0.00    +0.000 A 
ATOM     17  C   UNL     1       4.343   2.427  20.630  0.00  0.00    +0.000 A 
ATOM     18  C   UNL     1       3.947   2.985  19.368  0.00  0.00    +0.000 A 
BRANCH  14  19
ATOM     19  C   UNL     1       1.625   3.721  18.254  0.00  0.00    +0.000 C 
ATOM     20  C   UNL     1       2.144   3.500  16.835  0.00  0.00    +0.000 C 
BRANCH  19  21
ATOM     21  C   UNL     1       1.287   5.197  18.556  0.00  0.00    +0.000 C 
BRANCH  21  23
ATOM     22  C   UNL     1       2.935   7.124  18.203  0.00  0.00    +0.000 C 
ATOM     23  C   UNL     1       2.441   6.034  19.156  0.00  0.00    +0.000 C 
ATOM     24  C   UNL     1       1.979   6.672  20.472  0.00  0.00    +0.000 C 
ENDBRANCH  21  23
ENDBRANCH  19  21
ENDBRANCH  14  19
ENDBRANCH   1  18
TORSDOF 6
ENDMDL
MODEL 8
REMARK VINA RESULT:      -6.8      1.497      1.869
REMARK  Name = 
REMARK  10 active torsions:
REMARK  status: ('A' for Active; 'I' for Inactive)
REMARK    1  A    between atoms: C_1  and  C_2
REMARK    2  A    between atoms: C_2  and  C_3
REMARK    3  A    between atoms: C_2  and  C_4
REMARK    4  A    between atoms: C_4  and  C_5
REMARK    5  A    between atoms: C_5  and  C_6
REMARK    6  A    between atoms: C_5  and  C_7
REMARK    7  A    between atoms: C_11  and  N_12
REMARK    8  A    between atoms: C_13  and  C_15
REMARK    9  A    between atoms: N_17  and  C_18
REMARK   10  A    between atoms: C_20  and  C_21
REMARK                            x       y       z     vdW  Elec       q    Type
REMARK                         _______ _______ _______ _____ _____    ______ ____
ROOT
ATOM      1  N   UNL     1       3.869   3.679  17.159  0.00  0.00    +0.000 N 
ATOM      2  C   UNL     1       5.211   3.788  17.491  0.00  0.00    +0.000 C 
ATOM      3  O   UNL     1       5.725   3.517  18.566  0.00  0.00    +0.000 OA
ATOM      4  H   UNL     1       3.584   3.965  16.235  0.00  0.00    +0.000 HD
ENDROOT
BRANCH   2   5
ATOM      5  C   UNL     1       6.039   4.345  16.437  0.00  0.00    +0.000 A 
ATOM      6  C   UNL     1       6.183   3.954  15.120  0.00  0.00    +0.000 A 
ATOM      7  N   UNL     1       7.057   4.838  14.557  0.00  0.00    +0.000 N 
ATOM      8  C   UNL     1       7.425   4.937  13.165  0.00  0.00    +0.000 C 
ATOM      9  N   UNL     1       7.549   5.736  15.424  0.00  0.00    +0.000 NA
ATOM     10  C   UNL     1       6.919   5.462  16.580  0.00  0.00    +0.000 A 
BRANCH  10  11
ATOM     11  C   UNL     1       7.100   6.283  17.829  0.00  0.00    +0.000 C 
ATOM     12  F   UNL     1       5.940   6.435  18.530  0.00  0.00    +0.000 F 
ATOM     13  F   UNL     1       7.965   5.665  18.685  0.00  0.00    +0.000 F 
ENDBRANCH  10  11
ENDBRANCH   2   5
BRANCH   1  18
ATOM     14  C   UNL     1       2.283   4.247  18.957  0.00  0.00    +0.000 A 
ATOM     15  S   UNL     1       1.056   3.486  19.916  0.00  0.00    +0.000 S 
ATOM     16  C   UNL     1       1.319   1.975  19.196  0.00  0.00    +0.000 A 
ATOM     17  C   UNL     1       2.289   2.037  18.226  0.00  0.00    +0.000 A 
ATOM     18  C   UNL     1       2.855   3.345  18.063  0.00  0.00    +0.000 A 
BRANCH  14  19
ATOM     19  C   UNL     1       2.541   5.721  19.259  0.00  0.00    +0.000 C 
ATOM     20  C   UNL     1       1.887   6.164  20.566  0.00  0.00    +0.000 C 
BRANCH  19  21
ATOM     21  C   UNL     1       2.169   6.618  18.058  0.00  0.00    +0.000 C 
BRANCH  21  23
ATOM     22  C   UNL     1       3.773   8.461  17.295  0.00  0.00    +0.000 C 
ATOM     23  C   UNL     1       2.582   8.103  18.185  0.00  0.00    +0.000 C 
ATOM     24  C   UNL     1       1.388   8.997  17.831  0.00  0.00    +0.000 C 
ENDBRANCH  21  23
ENDBRANCH  19  21
ENDBRANCH  14  19
ENDBRANCH   1  18
TORSDOF 6
ENDMDL
MODEL 9
REMARK VINA RESULT:      -6.8      1.424      1.988
REMARK  Name = 
REMARK  10 active torsions:
REMARK  status: ('A' for Active; 'I' for Inactive)
REMARK    1  A    between atoms: C_1  and  C_2
REMARK    2  A    between atoms: C_2  and  C_3
REMARK    3  A    between atoms: C_2  and  C_4
REMARK    4  A    between atoms: C_4  and  C_5
REMARK    5  A    between atoms: C_5  and  C_6
REMARK    6  A    between atoms: C_5  and  C_7
REMARK    7  A    between atoms: C_11  and  N_12
REMARK    8  A    between atoms: C_13  and  C_15
REMARK    9  A    between atoms: N_17  and  C_18
REMARK   10  A    between atoms: C_20  and  C_21
REMARK                            x       y       z     vdW  Elec       q    Type
REMARK                         _______ _______ _______ _____ _____    ______ ____
ROOT
ATOM      1  N   UNL     1       3.614   4.292  17.433  0.00  0.00    +0.000 N 
ATOM      2  C   UNL     1       4.973   4.121  17.653  0.00  0.00    +0.000 C 
ATOM      3  O   UNL     1       5.506   3.736  18.683  0.00  0.00    +0.000 OA
ATOM      4  H   UNL     1       3.319   4.643  16.535  0.00  0.00    +0.000 HD
ENDROOT
BRANCH   2   5
ATOM      5  C   UNL     1       5.808   4.512  16.532  0.00  0.00    +0.000 A 
ATOM      6  C   UNL     1       5.981   3.910  15.301  0.00  0.00    +0.000 A 
ATOM      7  N   UNL     1       6.849   4.706  14.611  0.00  0.00    +0.000 N 
ATOM      8  C   UNL     1       7.239   4.580  13.227  0.00  0.00    +0.000 C 
ATOM      9  N   UNL     1       7.310   5.745  15.323  0.00  0.00    +0.000 NA
ATOM     10  C   UNL     1       6.666   5.654  16.500  0.00  0.00    +0.000 A 
BRANCH  10  11
ATOM     11  C   UNL     1       6.811   6.675  17.597  0.00  0.00    +0.000 C 
ATOM     12  F   UNL     1       7.961   7.402  17.489  0.00  0.00    +0.000 F 
ATOM     13  F   UNL     1       5.798   7.587  17.538  0.00  0.00    +0.000 F 
ENDBRANCH  10  11
ENDBRANCH   2   5
BRANCH   1  18
ATOM     14  C   UNL     1       2.196   5.207  19.229  0.00  0.00    +0.000 A 
ATOM     15  S   UNL     1       0.966   4.678  20.330  0.00  0.00    +0.000 S 
ATOM     16  C   UNL     1       1.048   3.079  19.778  0.00  0.00    +0.000 A 
ATOM     17  C   UNL     1       1.960   2.938  18.760  0.00  0.00    +0.000 A 
ATOM     18  C   UNL     1       2.630   4.160  18.418  0.00  0.00    +0.000 A 
BRANCH  14  19
ATOM     19  C   UNL     1       2.603   6.673  19.344  0.00  0.00    +0.000 C 
ATOM     20  C   UNL     1       2.094   7.312  20.634  0.00  0.00    +0.000 C 
BRANCH  19  21
ATOM     21  C   UNL     1       2.218   7.468  18.077  0.00  0.00    +0.000 C 
BRANCH  21  23
ATOM     22  C   UNL     1       2.620   9.980  17.794  0.00  0.00    +0.000 C 
ATOM     23  C   UNL     1       1.681   8.897  18.328  0.00  0.00    +0.000 C 
ATOM     24  C   UNL     1       0.302   9.047  17.676  0.00  0.00    +0.000 C 
ENDBRANCH  21  23
ENDBRANCH  19  21
ENDBRANCH  14  19
ENDBRANCH   1  18
TORSDOF 6
ENDMDL
