MODEL 1
REMARK VINA RESULT:      -7.1      0.000      0.000
REMARK  Name = 
REMARK  2 active torsions:
REMARK  status: ('A' for Active; 'I' for Inactive)
REMARK    1  A    between atoms: N_2  and  C_4
REMARK    2  A    between atoms: N_6  and  C_7
REMARK                            x       y       z     vdW  Elec       q    Type
REMARK                         _______ _______ _______ _____ _____    ______ ____
ROOT
ATOM      1  C   UNL     1       6.830   4.701  15.031  0.00  0.00    +0.000 A 
ATOM      2  C   UNL     1       5.531   4.632  15.491  0.00  0.00    +0.000 A 
ATOM      3  N   UNL     1       5.624   4.549  16.866  0.00  0.00    +0.000 N 
ATOM      4  C   UNL     1       6.976   4.566  17.148  0.00  0.00    +0.000 A 
ATOM      5  N   UNL     1       7.725   4.655  16.070  0.00  0.00    +0.000 NA
ENDROOT
BRANCH   3   6
ATOM      6  C   UNL     1       4.549   4.475  17.802  0.00  0.00    +0.000 A 
ATOM      7  C   UNL     1       4.433   5.422  18.830  0.00  0.00    +0.000 A 
ATOM      8  C   UNL     1       3.359   5.366  19.726  0.00  0.00    +0.000 A 
ATOM      9  C   UNL     1       2.394   4.365  19.615  0.00  0.00    +0.000 A 
ATOM     10 CL   UNL     1       1.088   4.374  20.745  0.00  0.00    +0.000 Cl
ATOM     11  C   UNL     1       2.512   3.406  18.606  0.00  0.00    +0.000 A 
ATOM     12 CL   UNL     1       1.369   2.123  18.416  0.00  0.00    +0.000 Cl
ATOM     13  C   UNL     1       3.583   3.462  17.702  0.00  0.00    +0.000 A 
ENDBRANCH   3   6
BRANCH   1  15
ATOM     14  O   UNL     1       8.177   5.633  13.435  0.00  0.00    +0.000 OA
ATOM     15  N   UNL     1       7.271   4.814  13.657  0.00  0.00    +0.000 N 
ATOM     16  O   UNL     1       6.722   4.096  12.812  0.00  0.00    +0.000 OA
ENDBRANCH   1  15
TORSDOF 2
ENDMDL
MODEL 2
REMARK VINA RESULT:      -7.0      1.386      2.048
REMARK  Name = 
REMARK  2 active torsions:
REMARK  status: ('A' for Active; 'I' for Inactive)
REMARK    1  A    between atoms: N_2  and  C_4
REMARK    2  A    between atoms: N_6  and  C_7
REMARK                            x       y       z     vdW  Elec       q    Type
REMARK                         _______ _______ _______ _____ _____    ______ ____
ROOT
ATOM      1  C   UNL     1       6.032   5.104  15.201  0.00  0.00    +0.000 A 
ATOM      2  C   UNL     1       5.513   4.194  16.098  0.00  0.00    +0.000 A 
ATOM      3  N   UNL     1       4.728   4.927  16.965  0.00  0.00    +0.000 N 
ATOM      4  C   UNL     1       4.830   6.237  16.540  0.00  0.00    +0.000 A 
ATOM      5  N   UNL     1       5.605   6.376  15.485  0.00  0.00    +0.000 NA
ENDROOT
BRANCH   3   6
ATOM      6  C   UNL     1       3.961   4.434  18.063  0.00  0.00    +0.000 A 
ATOM      7  C   UNL     1       3.975   3.069  18.387  0.00  0.00    +0.000 A 
ATOM      8  C   UNL     1       3.247   2.594  19.484  0.00  0.00    +0.000 A 
ATOM      9  C   UNL     1       2.492   3.468  20.266  0.00  0.00    +0.000 A 
ATOM     10 CL   UNL     1       1.638   2.810  21.615  0.00  0.00    +0.000 Cl
ATOM     11  C   UNL     1       2.456   4.826  19.939  0.00  0.00    +0.000 A 
ATOM     12 CL   UNL     1       1.527   5.968  20.847  0.00  0.00    +0.000 Cl
ATOM     13  C   UNL     1       3.189   5.307  18.844  0.00  0.00    +0.000 A 
ENDBRANCH   3   6
BRANCH   1  15
ATOM     14  O   UNL     1       7.960   5.492  14.033  0.00  0.00    +0.000 OA
ATOM     15  N   UNL     1       6.909   4.833  14.082  0.00  0.00    +0.000 N 
ATOM     16  O   UNL     1       6.555   3.976  13.263  0.00  0.00    +0.000 OA
ENDBRANCH   1  15
TORSDOF 2
ENDMDL
MODEL 3
REMARK VINA RESULT:      -7.0      1.082      1.188
REMARK  Name = 
REMARK  2 active torsions:
REMARK  status: ('A' for Active; 'I' for Inactive)
REMARK    1  A    between atoms: N_2  and  C_4
REMARK    2  A    between atoms: N_6  and  C_7
REMARK                            x       y       z     vdW  Elec       q    Type
REMARK                         _______ _______ _______ _____ _____    ______ ____
ROOT
ATOM      1  C   UNL     1       6.798   4.757  15.116  0.00  0.00    +0.000 A 
ATOM      2  C   UNL     1       5.489   4.610  15.525  0.00  0.00    +0.000 A 
ATOM      3  N   UNL     1       5.527   4.575  16.904  0.00  0.00    +0.000 N 
ATOM      4  C   UNL     1       6.861   4.697  17.241  0.00  0.00    +0.000 A 
ATOM      5  N   UNL     1       7.648   4.807  16.192  0.00  0.00    +0.000 NA
ENDROOT
BRANCH   3   6
ATOM      6  C   UNL     1       4.420   4.453  17.796  0.00  0.00    +0.000 A 
ATOM      7  C   UNL     1       3.254   5.208  17.594  0.00  0.00    +0.000 A 
ATOM      8  C   UNL     1       2.158   5.061  18.451  0.00  0.00    +0.000 A 
ATOM      9  C   UNL     1       2.211   4.171  19.524  0.00  0.00    +0.000 A 
ATOM     10 CL   UNL     1       0.811   4.031  20.525  0.00  0.00    +0.000 Cl
ATOM     11  C   UNL     1       3.374   3.430  19.745  0.00  0.00    +0.000 A 
ATOM     12 CL   UNL     1       3.525   2.322  21.064  0.00  0.00    +0.000 Cl
ATOM     13  C   UNL     1       4.473   3.568  18.884  0.00  0.00    +0.000 A 
ENDBRANCH   3   6
BRANCH   1  15
ATOM     14  O   UNL     1       8.210   5.670  13.566  0.00  0.00    +0.000 OA
ATOM     15  N   UNL     1       7.290   4.860  13.759  0.00  0.00    +0.000 N 
ATOM     16  O   UNL     1       6.766   4.143  12.897  0.00  0.00    +0.000 OA
ENDBRANCH   1  15
TORSDOF 2
ENDMDL
MODEL 4
REMARK VINA RESULT:      -6.9      1.587      1.795
REMARK  Name = 
REMARK  2 active torsions:
REMARK  status: ('A' for Active; 'I' for Inactive)
REMARK    1  A    between atoms: N_2  and  C_4
REMARK    2  A    between atoms: N_6  and  C_7
REMARK                            x       y       z     vdW  Elec       q    Type
REMARK                         _______ _______ _______ _____ _____    ______ ____
ROOT
ATOM      1  C   UNL     1       6.015   5.177  15.105  0.00  0.00    +0.000 A 
ATOM      2  C   UNL     1       5.480   4.268  15.994  0.00  0.00    +0.000 A 
ATOM      3  N   UNL     1       4.687   5.002  16.852  0.00  0.00    +0.000 N 
ATOM      4  C   UNL     1       4.800   6.313  16.430  0.00  0.00    +0.000 A 
ATOM      5  N   UNL     1       5.589   6.451  15.386  0.00  0.00    +0.000 NA
ENDROOT
BRANCH   3   6
ATOM      6  C   UNL     1       3.903   4.511  17.938  0.00  0.00    +0.000 A 
ATOM      7  C   UNL     1       2.590   4.965  18.133  0.00  0.00    +0.000 A 
ATOM      8  C   UNL     1       1.812   4.456  19.179  0.00  0.00    +0.000 A 
ATOM      9  C   UNL     1       2.334   3.498  20.049  0.00  0.00    +0.000 A 
ATOM     10 CL   UNL     1       1.307   2.904  21.304  0.00  0.00    +0.000 Cl
ATOM     11  C   UNL     1       3.647   3.055  19.876  0.00  0.00    +0.000 A 
ATOM     12 CL   UNL     1       4.371   1.886  20.924  0.00  0.00    +0.000 Cl
ATOM     13  C   UNL     1       4.428   3.557  18.824  0.00  0.00    +0.000 A 
ENDBRANCH   3   6
BRANCH   1  15
ATOM     14  O   UNL     1       7.958   5.562  13.962  0.00  0.00    +0.000 OA
ATOM     15  N   UNL     1       6.906   4.905  13.998  0.00  0.00    +0.000 N 
ATOM     16  O   UNL     1       6.562   4.047  13.175  0.00  0.00    +0.000 OA
ENDBRANCH   1  15
TORSDOF 2
ENDMDL
MODEL 5
REMARK VINA RESULT:      -6.9      0.962      2.007
REMARK  Name = 
REMARK  2 active torsions:
REMARK  status: ('A' for Active; 'I' for Inactive)
REMARK    1  A    between atoms: N_2  and  C_4
REMARK    2  A    between atoms: N_6  and  C_7
REMARK                            x       y       z     vdW  Elec       q    Type
REMARK                         _______ _______ _______ _____ _____    ______ ____
ROOT
ATOM      1  C   UNL     1       6.757   5.075  14.809  0.00  0.00    +0.000 A 
ATOM      2  C   UNL     1       5.510   4.636  15.204  0.00  0.00    +0.000 A 
ATOM      3  N   UNL     1       5.388   4.995  16.530  0.00  0.00    +0.000 N 
ATOM      4  C   UNL     1       6.575   5.624  16.855  0.00  0.00    +0.000 A 
ATOM      5  N   UNL     1       7.417   5.686  15.845  0.00  0.00    +0.000 NA
ENDROOT
BRANCH   3   6
ATOM      6  C   UNL     1       4.266   4.777  17.385  0.00  0.00    +0.000 A 
ATOM      7  C   UNL     1       3.638   3.524  17.431  0.00  0.00    +0.000 A 
ATOM      8  C   UNL     1       2.559   3.303  18.295  0.00  0.00    +0.000 A 
ATOM      9  C   UNL     1       2.087   4.328  19.116  0.00  0.00    +0.000 A 
ATOM     10 CL   UNL     1       0.766   3.973  20.169  0.00  0.00    +0.000 Cl
ATOM     11  C   UNL     1       2.694   5.585  19.062  0.00  0.00    +0.000 A 
ATOM     12 CL   UNL     1       2.154   6.911  20.032  0.00  0.00    +0.000 Cl
ATOM     13  C   UNL     1       3.780   5.809  18.203  0.00  0.00    +0.000 A 
ENDBRANCH   3   6
BRANCH   1  15
ATOM     14  O   UNL     1       6.856   4.108  12.738  0.00  0.00    +0.000 OA
ATOM     15  N   UNL     1       7.358   4.951  13.498  0.00  0.00    +0.000 N 
ATOM     16  O   UNL     1       8.318   5.685  13.230  0.00  0.00    +0.000 OA
ENDBRANCH   1  15
TORSDOF 2
ENDMDL
MODEL 6
REMARK VINA RESULT:      -6.8      0.685      1.028
REMARK  Name = 
REMARK  2 active torsions:
REMARK  status: ('A' for Active; 'I' for Inactive)
REMARK    1  A    between atoms: N_2  and  C_4
REMARK    2  A    between atoms: N_6  and  C_7
REMARK                            x       y       z     vdW  Elec       q    Type
REMARK                         _______ _______ _______ _____ _____    ______ ____
ROOT
ATOM      1  C   UNL     1       6.654   4.724  14.418  0.00  0.00    +0.000 A 
ATOM      2  C   UNL     1       5.439   4.440  15.005  0.00  0.00    +0.000 A 
ATOM      3  N   UNL     1       5.545   4.867  16.313  0.00  0.00    +0.000 N 
ATOM      4  C   UNL     1       6.823   5.376  16.435  0.00  0.00    +0.000 A 
ATOM      5  N   UNL     1       7.514   5.304  15.316  0.00  0.00    +0.000 NA
ENDROOT
BRANCH   3   6
ATOM      6  C   UNL     1       4.540   4.808  17.326  0.00  0.00    +0.000 A 
ATOM      7  C   UNL     1       4.439   5.823  18.289  0.00  0.00    +0.000 A 
ATOM      8  C   UNL     1       3.433   5.779  19.261  0.00  0.00    +0.000 A 
ATOM      9  C   UNL     1       2.522   4.723  19.291  0.00  0.00    +0.000 A 
ATOM     10 CL   UNL     1       1.296   4.750  20.506  0.00  0.00    +0.000 Cl
ATOM     11  C   UNL     1       2.626   3.698  18.348  0.00  0.00    +0.000 A 
ATOM     12 CL   UNL     1       1.549   2.346  18.332  0.00  0.00    +0.000 Cl
ATOM     13  C   UNL     1       3.630   3.741  17.368  0.00  0.00    +0.000 A 
ENDBRANCH   3   6
BRANCH   1  15
ATOM     14  O   UNL     1       6.497   3.523  12.478  0.00  0.00    +0.000 OA
ATOM     15  N   UNL     1       7.046   4.480  13.046  0.00  0.00    +0.000 N 
ATOM     16  O   UNL     1       7.889   5.233  12.542  0.00  0.00    +0.000 OA
ENDBRANCH   1  15
TORSDOF 2
ENDMDL
MODEL 7
REMARK VINA RESULT:      -6.7      1.764      2.401
REMARK  Name = 
REMARK  2 active torsions:
REMARK  status: ('A' for Active; 'I' for Inactive)
REMARK    1  A    between atoms: N_2  and  C_4
REMARK    2  A    between atoms: N_6  and  C_7
REMARK                            x       y       z     vdW  Elec       q    Type
REMARK                         _______ _______ _______ _____ _____    ______ ____
ROOT
ATOM      1  C   UNL     1       6.871   4.970  15.021  0.00  0.00    +0.000 A 
ATOM      2  C   UNL     1       5.641   5.420  15.454  0.00  0.00    +0.000 A 
ATOM      3  N   UNL     1       5.671   5.331  16.831  0.00  0.00    +0.000 N 
ATOM      4  C   UNL     1       6.919   4.825  17.143  0.00  0.00    +0.000 A 
ATOM      5  N   UNL     1       7.661   4.597  16.080  0.00  0.00    +0.000 NA
ENDROOT
BRANCH   3   6
ATOM      6  C   UNL     1       4.637   5.698  17.744  0.00  0.00    +0.000 A 
ATOM      7  C   UNL     1       4.406   4.940  18.901  0.00  0.00    +0.000 A 
ATOM      8  C   UNL     1       3.413   5.321  19.811  0.00  0.00    +0.000 A 
ATOM      9  C   UNL     1       2.634   6.455  19.577  0.00  0.00    +0.000 A 
ATOM     10 CL   UNL     1       1.444   6.872  20.755  0.00  0.00    +0.000 Cl
ATOM     11  C   UNL     1       2.844   7.205  18.417  0.00  0.00    +0.000 A 
ATOM     12 CL   UNL     1       1.907   8.610  18.046  0.00  0.00    +0.000 Cl
ATOM     13  C   UNL     1       3.842   6.830  17.506  0.00  0.00    +0.000 A 
ENDBRANCH   3   6
BRANCH   1  15
ATOM     14  O   UNL     1       6.770   4.053  12.929  0.00  0.00    +0.000 OA
ATOM     15  N   UNL     1       7.343   4.879  13.656  0.00  0.00    +0.000 N 
ATOM     16  O   UNL     1       8.274   5.620  13.315  0.00  0.00    +0.000 OA
ENDBRANCH   1  15
TORSDOF 2
ENDMDL
MODEL 8
REMARK VINA RESULT:      -6.7      1.084      1.161
REMARK  Name = 
REMARK  2 active torsions:
REMARK  status: ('A' for Active; 'I' for Inactive)
REMARK    1  A    between atoms: N_2  and  C_4
REMARK    2  A    between atoms: N_6  and  C_7
REMARK                            x       y       z     vdW  Elec       q    Type
REMARK                         _______ _______ _______ _____ _____    ______ ____
ROOT
ATOM      1  C   UNL     1       6.444   4.344  14.037  0.00  0.00    +0.000 A 
ATOM      2  C   UNL     1       5.365   4.061  14.849  0.00  0.00    +0.000 A 
ATOM      3  N   UNL     1       5.634   4.668  16.058  0.00  0.00    +0.000 N 
ATOM      4  C   UNL     1       6.866   5.274  15.903  0.00  0.00    +0.000 A 
ATOM      5  N   UNL     1       7.378   5.098  14.703  0.00  0.00    +0.000 NA
ENDROOT
BRANCH   3   6
ATOM      6  C   UNL     1       4.809   4.679  17.223  0.00  0.00    +0.000 A 
ATOM      7  C   UNL     1       5.212   5.369  18.376  0.00  0.00    +0.000 A 
ATOM      8  C   UNL     1       4.385   5.406  19.504  0.00  0.00    +0.000 A 
ATOM      9  C   UNL     1       3.153   4.751  19.502  0.00  0.00    +0.000 A 
ATOM     10 CL   UNL     1       2.181   4.859  20.925  0.00  0.00    +0.000 Cl
ATOM     11  C   UNL     1       2.752   4.045  18.366  0.00  0.00    +0.000 A 
ATOM     12 CL   UNL     1       1.250   3.191  18.293  0.00  0.00    +0.000 Cl
ATOM     13  C   UNL     1       3.575   4.010  17.230  0.00  0.00    +0.000 A 
ENDBRANCH   3   6
BRANCH   1  15
ATOM     14  O   UNL     1       7.504   4.564  12.023  0.00  0.00    +0.000 OA
ATOM     15  N   UNL     1       6.638   3.944  12.660  0.00  0.00    +0.000 N 
ATOM     16  O   UNL     1       5.937   3.024  12.220  0.00  0.00    +0.000 OA
ENDBRANCH   1  15
TORSDOF 2
ENDMDL
MODEL 9
REMARK VINA RESULT:      -6.6      1.305      1.634
REMARK  Name = 
REMARK  2 active torsions:
REMARK  status: ('A' for Active; 'I' for Inactive)
REMARK    1  A    between atoms: N_2  and  C_4
REMARK    2  A    between atoms: N_6  and  C_7
REMARK                            x       y       z     vdW  Elec       q    Type
REMARK                         _______ _______ _______ _____ _____    ______ ____
ROOT
ATOM      1  C   UNL     1       6.062   4.965  15.054  0.00  0.00    +0.000 A 
ATOM      2  C   UNL     1       5.598   4.006  15.930  0.00  0.00    +0.000 A 
ATOM      3  N   UNL     1       4.809   4.679  16.840  0.00  0.00    +0.000 N 
ATOM      4  C   UNL     1       4.852   6.007  16.459  0.00  0.00    +0.000 A 
ATOM      5  N   UNL     1       5.596   6.210  15.392  0.00  0.00    +0.000 NA
ENDROOT
BRANCH   3   6
ATOM      6  C   UNL     1       4.087   4.121  17.938  0.00  0.00    +0.000 A 
ATOM      7  C   UNL     1       4.694   3.985  19.195  0.00  0.00    +0.000 A 
ATOM      8  C   UNL     1       3.973   3.468  20.278  0.00  0.00    +0.000 A 
ATOM      9  C   UNL     1       2.644   3.073  20.121  0.00  0.00    +0.000 A 
ATOM     10 CL   UNL     1       1.815   2.464  21.507  0.00  0.00    +0.000 Cl
ATOM     11  C   UNL     1       2.037   3.186  18.868  0.00  0.00    +0.000 A 
ATOM     12 CL   UNL     1       0.402   2.698  18.588  0.00  0.00    +0.000 Cl
ATOM     13  C   UNL     1       2.754   3.710  17.781  0.00  0.00    +0.000 A 
ENDBRANCH   3   6
BRANCH   1  15
ATOM     14  O   UNL     1       6.590   3.863  13.120  0.00  0.00    +0.000 OA
ATOM     15  N   UNL     1       6.921   4.765  13.906  0.00  0.00    +0.000 N 
ATOM     16  O   UNL     1       7.912   5.498  13.790  0.00  0.00    +0.000 OA
ENDBRANCH   1  15
TORSDOF 2
ENDMDL
