MODEL 1
REMARK VINA RESULT:      -8.4      0.000      0.000
REMARK  Name = 
REMARK  5 active torsions:
REMARK  status: ('A' for Active; 'I' for Inactive)
REMARK    1  A    between atoms: C_1  and  C_2
REMARK    2  A    between atoms: C_6  and  N_7
REMARK    3  A    between atoms: N_10  and  C_11
REMARK    4  A    between atoms: C_13  and  C_14
REMARK    5  A    between atoms: N_26  and  C_27
REMARK                            x       y       z     vdW  Elec       q    Type
REMARK                         _______ _______ _______ _____ _____    ______ ____
ROOT
ATOM      1  C   UNL     1       9.082  11.780  19.411  0.00  0.00    +0.000 C 
ATOM      2  N   UNL     1       8.872  12.405  18.086  0.00  0.00    +0.000 NA
ATOM      3  C   UNL     1       8.728  13.694  18.247  0.00  0.00    +0.000 C 
ATOM      4  C   UNL     1       9.923  14.569  18.073  0.00  0.00    +0.000 A 
ATOM      5  C   UNL     1       9.817  15.808  17.418  0.00  0.00    +0.000 A 
ATOM      6  C   UNL     1      10.967  16.523  17.084  0.00  0.00    +0.000 A 
ATOM      7  C   UNL     1      12.223  15.989  17.362  0.00  0.00    +0.000 A 
ATOM      8  C   UNL     1      12.333  14.770  18.036  0.00  0.00    +0.000 A 
ATOM      9  C   UNL     1      11.186  14.065  18.431  0.00  0.00    +0.000 A 
ATOM     10  N   UNL     1      11.345  12.881  19.225  0.00  0.00    +0.000 N 
ATOM     11  C   UNL     1      12.171  11.840  18.629  0.00  0.00    +0.000 C 
ATOM     12  C   UNL     1      10.308  12.480  20.078  0.00  0.00    +0.000 C 
ATOM     13  O   UNL     1      10.406  12.581  21.303  0.00  0.00    +0.000 OA
ENDROOT
BRANCH   1  17
ATOM     14  N   UNL     1       8.732   8.204  18.799  0.00  0.00    +0.000 N 
ATOM     15  C   UNL     1       8.495   9.558  18.571  0.00  0.00    +0.000 C 
ATOM     16  O   UNL     1       7.636  10.027  17.833  0.00  0.00    +0.000 OA
ATOM     17  N   UNL     1       9.334  10.347  19.324  0.00  0.00    +0.000 N 
ATOM     18  H   UNL     1       9.582   7.957  19.278  0.00  0.00    +0.000 HD
ATOM     19  H   UNL     1       9.558   9.921  20.210  0.00  0.00    +0.000 HD
BRANCH  14  25
ATOM     20  C   UNL     1       5.183   6.512  15.727  0.00  0.00    +0.000 C 
ATOM     21  C   UNL     1       6.203   6.276  16.805  0.00  0.00    +0.000 A 
ATOM     22  C   UNL     1       6.386   4.985  17.310  0.00  0.00    +0.000 A 
ATOM     23  C   UNL     1       7.327   4.752  18.304  0.00  0.00    +0.000 A 
ATOM     24  C   UNL     1       8.101   5.802  18.804  0.00  0.00    +0.000 A 
ATOM     25  C   UNL     1       7.944   7.106  18.329  0.00  0.00    +0.000 A 
ATOM     26  C   UNL     1       6.983   7.332  17.325  0.00  0.00    +0.000 A 
ENDBRANCH  14  25
ENDBRANCH   1  17
BRANCH   3  27
ATOM     27  C   UNL     1       7.409  14.275  18.587  0.00  0.00    +0.000 A 
ATOM     28  C   UNL     1       6.394  14.277  17.631  0.00  0.00    +0.000 A 
ATOM     29  C   UNL     1       5.162  14.838  17.949  0.00  0.00    +0.000 A 
ATOM     30  C   UNL     1       4.990  15.368  19.218  0.00  0.00    +0.000 A 
ATOM     31  N   UNL     1       5.945  15.364  20.174  0.00  0.00    +0.000 NA
ATOM     32  C   UNL     1       7.130  14.801  19.842  0.00  0.00    +0.000 A 
ENDBRANCH   3  27
TORSDOF 3
ENDMDL
MODEL 2
REMARK VINA RESULT:      -8.1      6.491      9.114
REMARK  Name = 
REMARK  5 active torsions:
REMARK  status: ('A' for Active; 'I' for Inactive)
REMARK    1  A    between atoms: C_1  and  C_2
REMARK    2  A    between atoms: C_6  and  N_7
REMARK    3  A    between atoms: N_10  and  C_11
REMARK    4  A    between atoms: C_13  and  C_14
REMARK    5  A    between atoms: N_26  and  C_27
REMARK                            x       y       z     vdW  Elec       q    Type
REMARK                         _______ _______ _______ _____ _____    ______ ____
ROOT
ATOM      1  C   UNL     1       1.125  10.391  20.387  0.00  0.00    +0.000 C 
ATOM      2  N   UNL     1       1.534  11.392  21.398  0.00  0.00    +0.000 NA
ATOM      3  C   UNL     1       0.895  12.508  21.167  0.00  0.00    +0.000 C 
ATOM      4  C   UNL     1      -0.360  12.779  21.928  0.00  0.00    +0.000 A 
ATOM      5  C   UNL     1      -0.643  14.067  22.413  0.00  0.00    +0.000 A 
ATOM      6  C   UNL     1      -1.710  14.266  23.289  0.00  0.00    +0.000 A 
ATOM      7  C   UNL     1      -2.471  13.179  23.715  0.00  0.00    +0.000 A 
ATOM      8  C   UNL     1      -2.209  11.901  23.216  0.00  0.00    +0.000 A 
ATOM      9  C   UNL     1      -1.176  11.692  22.290  0.00  0.00    +0.000 A 
ATOM     10  N   UNL     1      -1.023  10.388  21.713  0.00  0.00    +0.000 N 
ATOM     11  C   UNL     1      -0.820   9.306  22.667  0.00  0.00    +0.000 C 
ATOM     12  C   UNL     1      -0.429  10.260  20.449  0.00  0.00    +0.000 C 
ATOM     13  O   UNL     1      -1.092   9.956  19.455  0.00  0.00    +0.000 OA
ENDROOT
BRANCH   1  17
ATOM     14  N   UNL     1       2.316   6.973  19.957  0.00  0.00    +0.000 N 
ATOM     15  C   UNL     1       1.977   8.259  19.541  0.00  0.00    +0.000 C 
ATOM     16  O   UNL     1       1.865   8.636  18.380  0.00  0.00    +0.000 OA
ATOM     17  N   UNL     1       1.729   9.084  20.614  0.00  0.00    +0.000 N 
ATOM     18  H   UNL     1       2.554   6.849  20.928  0.00  0.00    +0.000 HD
ATOM     19  H   UNL     1       1.327   8.582  21.390  0.00  0.00    +0.000 HD
BRANCH  14  25
ATOM     20  C   UNL     1       0.809   2.376  18.739  0.00  0.00    +0.000 C 
ATOM     21  C   UNL     1       1.714   3.556  18.527  0.00  0.00    +0.000 A 
ATOM     22  C   UNL     1       2.668   3.518  17.505  0.00  0.00    +0.000 A 
ATOM     23  C   UNL     1       3.509   4.603  17.293  0.00  0.00    +0.000 A 
ATOM     24  C   UNL     1       3.405   5.742  18.095  0.00  0.00    +0.000 A 
ATOM     25  C   UNL     1       2.469   5.817  19.129  0.00  0.00    +0.000 A 
ATOM     26  C   UNL     1       1.625   4.709  19.338  0.00  0.00    +0.000 A 
ENDBRANCH  14  25
ENDBRANCH   1  17
BRANCH   3  27
ATOM     27  C   UNL     1       1.405  13.486  20.180  0.00  0.00    +0.000 A 
ATOM     28  C   UNL     1       0.503  14.182  19.376  0.00  0.00    +0.000 A 
ATOM     29  C   UNL     1       0.987  15.088  18.439  0.00  0.00    +0.000 A 
ATOM     30  C   UNL     1       2.358  15.269  18.348  0.00  0.00    +0.000 A 
ATOM     31  N   UNL     1       3.258  14.627  19.124  0.00  0.00    +0.000 NA
ATOM     32  C   UNL     1       2.760  13.760  20.036  0.00  0.00    +0.000 A 
ENDBRANCH   3  27
TORSDOF 3
ENDMDL
MODEL 3
REMARK VINA RESULT:      -8.1      0.739      1.022
REMARK  Name = 
REMARK  5 active torsions:
REMARK  status: ('A' for Active; 'I' for Inactive)
REMARK    1  A    between atoms: C_1  and  C_2
REMARK    2  A    between atoms: C_6  and  N_7
REMARK    3  A    between atoms: N_10  and  C_11
REMARK    4  A    between atoms: C_13  and  C_14
REMARK    5  A    between atoms: N_26  and  C_27
REMARK                            x       y       z     vdW  Elec       q    Type
REMARK                         _______ _______ _______ _____ _____    ______ ____
ROOT
ATOM      1  C   UNL     1       9.023  11.500  19.034  0.00  0.00    +0.000 C 
ATOM      2  N   UNL     1       8.845  12.242  17.766  0.00  0.00    +0.000 NA
ATOM      3  C   UNL     1       8.713  13.513  18.038  0.00  0.00    +0.000 C 
ATOM      4  C   UNL     1       9.921  14.385  17.962  0.00  0.00    +0.000 A 
ATOM      5  C   UNL     1       9.841  15.678  17.418  0.00  0.00    +0.000 A 
ATOM      6  C   UNL     1      11.006  16.405  17.168  0.00  0.00    +0.000 A 
ATOM      7  C   UNL     1      12.250  15.832  17.419  0.00  0.00    +0.000 A 
ATOM      8  C   UNL     1      12.333  14.556  17.984  0.00  0.00    +0.000 A 
ATOM      9  C   UNL     1      11.171  13.834  18.295  0.00  0.00    +0.000 A 
ATOM     10  N   UNL     1      11.303  12.583  18.984  0.00  0.00    +0.000 N 
ATOM     11  C   UNL     1      12.127  11.587  18.313  0.00  0.00    +0.000 C 
ATOM     12  C   UNL     1      10.245  12.122  19.781  0.00  0.00    +0.000 C 
ATOM     13  O   UNL     1      10.323  12.113  21.012  0.00  0.00    +0.000 OA
ENDROOT
BRANCH   1  17
ATOM     14  N   UNL     1       8.565   7.940  18.401  0.00  0.00    +0.000 N 
ATOM     15  C   UNL     1       8.257   9.295  18.300  0.00  0.00    +0.000 C 
ATOM     16  O   UNL     1       7.222   9.769  17.845  0.00  0.00    +0.000 OA
ATOM     17  N   UNL     1       9.260  10.077  18.825  0.00  0.00    +0.000 N 
ATOM     18  H   UNL     1       9.518   7.696  18.619  0.00  0.00    +0.000 HD
ATOM     19  H   UNL     1       9.725   9.626  19.597  0.00  0.00    +0.000 HD
BRANCH  14  25
ATOM     20  C   UNL     1       5.814   5.414  15.092  0.00  0.00    +0.000 C 
ATOM     21  C   UNL     1       6.348   5.594  16.485  0.00  0.00    +0.000 A 
ATOM     22  C   UNL     1       6.009   4.669  17.477  0.00  0.00    +0.000 A 
ATOM     23  C   UNL     1       6.499   4.820  18.769  0.00  0.00    +0.000 A 
ATOM     24  C   UNL     1       7.336   5.893  19.085  0.00  0.00    +0.000 A 
ATOM     25  C   UNL     1       7.693   6.840  18.123  0.00  0.00    +0.000 A 
ATOM     26  C   UNL     1       7.187   6.680  16.818  0.00  0.00    +0.000 A 
ENDBRANCH  14  25
ENDBRANCH   1  17
BRANCH   3  27
ATOM     27  C   UNL     1       7.395  14.079  18.406  0.00  0.00    +0.000 A 
ATOM     28  C   UNL     1       7.200  14.580  19.693  0.00  0.00    +0.000 A 
ATOM     29  C   UNL     1       5.956  15.096  20.040  0.00  0.00    +0.000 A 
ATOM     30  C   UNL     1       4.956  15.098  19.080  0.00  0.00    +0.000 A 
ATOM     31  N   UNL     1       5.117  14.640  17.820  0.00  0.00    +0.000 NA
ATOM     32  C   UNL     1       6.340  14.155  17.505  0.00  0.00    +0.000 A 
ENDBRANCH   3  27
TORSDOF 3
ENDMDL
MODEL 4
REMARK VINA RESULT:      -8.1      6.236      8.951
REMARK  Name = 
REMARK  5 active torsions:
REMARK  status: ('A' for Active; 'I' for Inactive)
REMARK    1  A    between atoms: C_1  and  C_2
REMARK    2  A    between atoms: C_6  and  N_7
REMARK    3  A    between atoms: N_10  and  C_11
REMARK    4  A    between atoms: C_13  and  C_14
REMARK    5  A    between atoms: N_26  and  C_27
REMARK                            x       y       z     vdW  Elec       q    Type
REMARK                         _______ _______ _______ _____ _____    ______ ____
ROOT
ATOM      1  C   UNL     1       1.145  10.252  20.701  0.00  0.00    +0.000 C 
ATOM      2  N   UNL     1       1.708  11.311  21.569  0.00  0.00    +0.000 NA
ATOM      3  C   UNL     1       1.262  12.470  21.163  0.00  0.00    +0.000 C 
ATOM      4  C   UNL     1       0.066  13.048  21.842  0.00  0.00    +0.000 A 
ATOM      5  C   UNL     1      -0.003  14.422  22.130  0.00  0.00    +0.000 A 
ATOM      6  C   UNL     1      -1.027  14.916  22.938  0.00  0.00    +0.000 A 
ATOM      7  C   UNL     1      -1.957  14.042  23.495  0.00  0.00    +0.000 A 
ATOM      8  C   UNL     1      -1.907  12.679  23.192  0.00  0.00    +0.000 A 
ATOM      9  C   UNL     1      -0.918  12.172  22.334  0.00  0.00    +0.000 A 
ATOM     10  N   UNL     1      -0.979  10.790  21.955  0.00  0.00    +0.000 N 
ATOM     11  C   UNL     1      -0.959   9.841  23.060  0.00  0.00    +0.000 C 
ATOM     12  C   UNL     1      -0.410  10.385  20.739  0.00  0.00    +0.000 C 
ATOM     13  O   UNL     1      -1.111  10.050  19.782  0.00  0.00    +0.000 OA
ENDROOT
BRANCH   1  17
ATOM     14  N   UNL     1       1.847   6.676  20.771  0.00  0.00    +0.000 N 
ATOM     15  C   UNL     1       1.740   7.936  20.184  0.00  0.00    +0.000 C 
ATOM     16  O   UNL     1       1.787   8.180  18.984  0.00  0.00    +0.000 OA
ATOM     17  N   UNL     1       1.525   8.912  21.130  0.00  0.00    +0.000 N 
ATOM     18  H   UNL     1       1.978   6.640  21.769  0.00  0.00    +0.000 HD
ATOM     19  H   UNL     1       0.987   8.569  21.911  0.00  0.00    +0.000 HD
BRANCH  14  25
ATOM     20  C   UNL     1       3.942   3.801  17.273  0.00  0.00    +0.000 C 
ATOM     21  C   UNL     1       2.941   4.002  18.376  0.00  0.00    +0.000 A 
ATOM     22  C   UNL     1       2.098   2.949  18.741  0.00  0.00    +0.000 A 
ATOM     23  C   UNL     1       1.170   3.118  19.761  0.00  0.00    +0.000 A 
ATOM     24  C   UNL     1       1.076   4.340  20.433  0.00  0.00    +0.000 A 
ATOM     25  C   UNL     1       1.897   5.418  20.093  0.00  0.00    +0.000 A 
ATOM     26  C   UNL     1       2.830   5.236  19.054  0.00  0.00    +0.000 A 
ENDBRANCH  14  25
ENDBRANCH   1  17
BRANCH   3  27
ATOM     27  C   UNL     1       1.929  13.198  20.059  0.00  0.00    +0.000 A 
ATOM     28  C   UNL     1       1.347  13.203  18.792  0.00  0.00    +0.000 A 
ATOM     29  C   UNL     1       1.984  13.874  17.755  0.00  0.00    +0.000 A 
ATOM     30  C   UNL     1       3.179  14.522  18.028  0.00  0.00    +0.000 A 
ATOM     31  N   UNL     1       3.759  14.553  19.247  0.00  0.00    +0.000 NA
ATOM     32  C   UNL     1       3.112  13.903  20.242  0.00  0.00    +0.000 A 
ENDBRANCH   3  27
TORSDOF 3
ENDMDL
MODEL 5
REMARK VINA RESULT:      -8.1      6.361      9.002
REMARK  Name = 
REMARK  5 active torsions:
REMARK  status: ('A' for Active; 'I' for Inactive)
REMARK    1  A    between atoms: C_1  and  C_2
REMARK    2  A    between atoms: C_6  and  N_7
REMARK    3  A    between atoms: N_10  and  C_11
REMARK    4  A    between atoms: C_13  and  C_14
REMARK    5  A    between atoms: N_26  and  C_27
REMARK                            x       y       z     vdW  Elec       q    Type
REMARK                         _______ _______ _______ _____ _____    ______ ____
ROOT
ATOM      1  C   UNL     1       1.153  10.282  20.355  0.00  0.00    +0.000 C 
ATOM      2  N   UNL     1       1.574  11.256  21.387  0.00  0.00    +0.000 NA
ATOM      3  C   UNL     1       0.952  12.386  21.177  0.00  0.00    +0.000 C 
ATOM      4  C   UNL     1      -0.300  12.660  21.941  0.00  0.00    +0.000 A 
ATOM      5  C   UNL     1      -0.565  13.943  22.451  0.00  0.00    +0.000 A 
ATOM      6  C   UNL     1      -1.631  14.140  23.329  0.00  0.00    +0.000 A 
ATOM      7  C   UNL     1      -2.408  13.056  23.733  0.00  0.00    +0.000 A 
ATOM      8  C   UNL     1      -2.164  11.785  23.209  0.00  0.00    +0.000 A 
ATOM      9  C   UNL     1      -1.132  11.579  22.280  0.00  0.00    +0.000 A 
ATOM     10  N   UNL     1      -0.997  10.284  21.678  0.00  0.00    +0.000 N 
ATOM     11  C   UNL     1      -0.812   9.181  22.611  0.00  0.00    +0.000 C 
ATOM     12  C   UNL     1      -0.404  10.172  20.412  0.00  0.00    +0.000 C 
ATOM     13  O   UNL     1      -1.069   9.898  19.412  0.00  0.00    +0.000 OA
ENDROOT
BRANCH   1  17
ATOM     14  N   UNL     1       2.310   6.862  19.854  0.00  0.00    +0.000 N 
ATOM     15  C   UNL     1       1.993   8.162  19.467  0.00  0.00    +0.000 C 
ATOM     16  O   UNL     1       1.905   8.572  18.314  0.00  0.00    +0.000 OA
ATOM     17  N   UNL     1       1.736   8.962  20.557  0.00  0.00    +0.000 N 
ATOM     18  H   UNL     1       2.530   6.709  20.825  0.00  0.00    +0.000 HD
ATOM     19  H   UNL     1       1.316   8.445  21.313  0.00  0.00    +0.000 HD
BRANCH  14  25
ATOM     20  C   UNL     1       4.972   4.478  16.373  0.00  0.00    +0.000 C 
ATOM     21  C   UNL     1       3.785   4.552  17.291  0.00  0.00    +0.000 A 
ATOM     22  C   UNL     1       2.867   3.497  17.315  0.00  0.00    +0.000 A 
ATOM     23  C   UNL     1       1.767   3.549  18.162  0.00  0.00    +0.000 A 
ATOM     24  C   UNL     1       1.571   4.651  18.998  0.00  0.00    +0.000 A 
ATOM     25  C   UNL     1       2.463   5.726  18.998  0.00  0.00    +0.000 A 
ATOM     26  C   UNL     1       3.572   5.665  18.132  0.00  0.00    +0.000 A 
ENDBRANCH  14  25
ENDBRANCH   1  17
BRANCH   3  27
ATOM     27  C   UNL     1       1.478  13.376  20.210  0.00  0.00    +0.000 A 
ATOM     28  C   UNL     1       0.595  14.036  19.356  0.00  0.00    +0.000 A 
ATOM     29  C   UNL     1       1.095  14.953  18.438  0.00  0.00    +0.000 A 
ATOM     30  C   UNL     1       2.462  15.181  18.416  0.00  0.00    +0.000 A 
ATOM     31  N   UNL     1       3.342  14.574  19.242  0.00  0.00    +0.000 NA
ATOM     32  C   UNL     1       2.828  13.696  20.133  0.00  0.00    +0.000 A 
ENDBRANCH   3  27
TORSDOF 3
ENDMDL
MODEL 6
REMARK VINA RESULT:      -8.1      6.703      8.951
REMARK  Name = 
REMARK  5 active torsions:
REMARK  status: ('A' for Active; 'I' for Inactive)
REMARK    1  A    between atoms: C_1  and  C_2
REMARK    2  A    between atoms: C_6  and  N_7
REMARK    3  A    between atoms: N_10  and  C_11
REMARK    4  A    between atoms: C_13  and  C_14
REMARK    5  A    between atoms: N_26  and  C_27
REMARK                            x       y       z     vdW  Elec       q    Type
REMARK                         _______ _______ _______ _____ _____    ______ ____
ROOT
ATOM      1  C   UNL     1       0.135  11.671  19.588  0.00  0.00    +0.000 C 
ATOM      2  N   UNL     1      -0.867  12.541  18.933  0.00  0.00    +0.000 NA
ATOM      3  C   UNL     1      -1.237  13.467  19.777  0.00  0.00    +0.000 C 
ATOM      4  C   UNL     1      -0.565  14.797  19.711  0.00  0.00    +0.000 A 
ATOM      5  C   UNL     1      -1.302  15.984  19.872  0.00  0.00    +0.000 A 
ATOM      6  C   UNL     1      -0.706  17.218  19.611  0.00  0.00    +0.000 A 
ATOM      7  C   UNL     1       0.608  17.272  19.150  0.00  0.00    +0.000 A 
ATOM      8  C   UNL     1       1.351  16.097  19.012  0.00  0.00    +0.000 A 
ATOM      9  C   UNL     1       0.786  14.851  19.326  0.00  0.00    +0.000 A 
ATOM     10  N   UNL     1       1.623  13.687  19.287  0.00  0.00    +0.000 N 
ATOM     11  C   UNL     1       2.272  13.430  18.008  0.00  0.00    +0.000 C 
ATOM     12  C   UNL     1       1.301  12.581  20.087  0.00  0.00    +0.000 C 
ATOM     13  O   UNL     1       1.974  12.285  21.077  0.00  0.00    +0.000 OA
ENDROOT
BRANCH   1  17
ATOM     14  N   UNL     1       1.814   8.721  18.261  0.00  0.00    +0.000 N 
ATOM     15  C   UNL     1       1.119   9.462  19.214  0.00  0.00    +0.000 C 
ATOM     16  O   UNL     1       0.946   9.149  20.387  0.00  0.00    +0.000 OA
ATOM     17  N   UNL     1       0.667  10.652  18.692  0.00  0.00    +0.000 N 
ATOM     18  H   UNL     1       1.720   9.002  17.298  0.00  0.00    +0.000 HD
ATOM     19  H   UNL     1       1.291  11.018  17.990  0.00  0.00    +0.000 HD
BRANCH  14  25
ATOM     20  C   UNL     1       2.452   4.513  20.865  0.00  0.00    +0.000 C 
ATOM     21  C   UNL     1       2.870   5.450  19.766  0.00  0.00    +0.000 A 
ATOM     22  C   UNL     1       3.968   5.123  18.965  0.00  0.00    +0.000 A 
ATOM     23  C   UNL     1       4.364   5.976  17.943  0.00  0.00    +0.000 A 
ATOM     24  C   UNL     1       3.666   7.163  17.704  0.00  0.00    +0.000 A 
ATOM     25  C   UNL     1       2.568   7.526  18.487  0.00  0.00    +0.000 A 
ATOM     26  C   UNL     1       2.178   6.656  19.523  0.00  0.00    +0.000 A 
ENDBRANCH  14  25
ENDBRANCH   1  17
BRANCH   3  27
ATOM     27  C   UNL     1      -2.302  13.207  20.773  0.00  0.00    +0.000 A 
ATOM     28  C   UNL     1      -1.990  13.229  22.131  0.00  0.00    +0.000 A 
ATOM     29  C   UNL     1      -2.989  12.969  23.062  0.00  0.00    +0.000 A 
ATOM     30  C   UNL     1      -4.267  12.704  22.597  0.00  0.00    +0.000 A 
ATOM     31  N   UNL     1      -4.608  12.696  21.290  0.00  0.00    +0.000 NA
ATOM     32  C   UNL     1      -3.620  12.964  20.405  0.00  0.00    +0.000 A 
ENDBRANCH   3  27
TORSDOF 3
ENDMDL
MODEL 7
REMARK VINA RESULT:      -8.0      6.642      8.938
REMARK  Name = 
REMARK  5 active torsions:
REMARK  status: ('A' for Active; 'I' for Inactive)
REMARK    1  A    between atoms: C_1  and  C_2
REMARK    2  A    between atoms: C_6  and  N_7
REMARK    3  A    between atoms: N_10  and  C_11
REMARK    4  A    between atoms: C_13  and  C_14
REMARK    5  A    between atoms: N_26  and  C_27
REMARK                            x       y       z     vdW  Elec       q    Type
REMARK                         _______ _______ _______ _____ _____    ______ ____
ROOT
ATOM      1  C   UNL     1       0.049  11.726  19.628  0.00  0.00    +0.000 C 
ATOM      2  N   UNL     1      -0.949  12.617  18.995  0.00  0.00    +0.000 NA
ATOM      3  C   UNL     1      -1.324  13.516  19.866  0.00  0.00    +0.000 C 
ATOM      4  C   UNL     1      -0.651  14.848  19.845  0.00  0.00    +0.000 A 
ATOM      5  C   UNL     1      -1.389  16.028  20.039  0.00  0.00    +0.000 A 
ATOM      6  C   UNL     1      -0.792  17.270  19.819  0.00  0.00    +0.000 A 
ATOM      7  C   UNL     1       0.524  17.338  19.366  0.00  0.00    +0.000 A 
ATOM      8  C   UNL     1       1.268  16.168  19.196  0.00  0.00    +0.000 A 
ATOM      9  C   UNL     1       0.702  14.913  19.468  0.00  0.00    +0.000 A 
ATOM     10  N   UNL     1       1.539  13.751  19.397  0.00  0.00    +0.000 N 
ATOM     11  C   UNL     1       2.194  13.534  18.114  0.00  0.00    +0.000 C 
ATOM     12  C   UNL     1       1.213  12.621  20.160  0.00  0.00    +0.000 C 
ATOM     13  O   UNL     1       1.881  12.294  21.144  0.00  0.00    +0.000 OA
ENDROOT
BRANCH   1  17
ATOM     14  N   UNL     1       1.773   8.843  18.214  0.00  0.00    +0.000 N 
ATOM     15  C   UNL     1       1.083   9.551  19.196  0.00  0.00    +0.000 C 
ATOM     16  O   UNL     1       0.947   9.216  20.367  0.00  0.00    +0.000 OA
ATOM     17  N   UNL     1       0.586  10.736  18.704  0.00  0.00    +0.000 N 
ATOM     18  H   UNL     1       1.648   9.137  17.258  0.00  0.00    +0.000 HD
ATOM     19  H   UNL     1       1.183  11.129  17.992  0.00  0.00    +0.000 HD
BRANCH  14  25
ATOM     20  C   UNL     1       5.507   5.924  16.656  0.00  0.00    +0.000 C 
ATOM     21  C   UNL     1       4.412   6.238  17.636  0.00  0.00    +0.000 A 
ATOM     22  C   UNL     1       4.204   5.393  18.731  0.00  0.00    +0.000 A 
ATOM     23  C   UNL     1       3.199   5.673  19.647  0.00  0.00    +0.000 A 
ATOM     24  C   UNL     1       2.391   6.801  19.486  0.00  0.00    +0.000 A 
ATOM     25  C   UNL     1       2.564   7.666  18.403  0.00  0.00    +0.000 A 
ATOM     26  C   UNL     1       3.583   7.370  17.477  0.00  0.00    +0.000 A 
ENDBRANCH  14  25
ENDBRANCH   1  17
BRANCH   3  27
ATOM     27  C   UNL     1      -2.394  13.225  20.848  0.00  0.00    +0.000 A 
ATOM     28  C   UNL     1      -2.080  13.169  22.205  0.00  0.00    +0.000 A 
ATOM     29  C   UNL     1      -3.084  12.880  23.123  0.00  0.00    +0.000 A 
ATOM     30  C   UNL     1      -4.368  12.666  22.645  0.00  0.00    +0.000 A 
ATOM     31  N   UNL     1      -4.709  12.734  21.340  0.00  0.00    +0.000 NA
ATOM     32  C   UNL     1      -3.716  13.028  20.470  0.00  0.00    +0.000 A 
ENDBRANCH   3  27
TORSDOF 3
ENDMDL
MODEL 8
REMARK VINA RESULT:      -7.9      7.324      9.636
REMARK  Name = 
REMARK  5 active torsions:
REMARK  status: ('A' for Active; 'I' for Inactive)
REMARK    1  A    between atoms: C_1  and  C_2
REMARK    2  A    between atoms: C_6  and  N_7
REMARK    3  A    between atoms: N_10  and  C_11
REMARK    4  A    between atoms: C_13  and  C_14
REMARK    5  A    between atoms: N_26  and  C_27
REMARK                            x       y       z     vdW  Elec       q    Type
REMARK                         _______ _______ _______ _____ _____    ______ ____
ROOT
ATOM      1  C   UNL     1       0.576  11.616  20.793  0.00  0.00    +0.000 C 
ATOM      2  N   UNL     1       0.918  12.716  21.723  0.00  0.00    +0.000 NA
ATOM      3  C   UNL     1       0.170  13.751  21.443  0.00  0.00    +0.000 C 
ATOM      4  C   UNL     1      -1.082  13.955  22.229  0.00  0.00    +0.000 A 
ATOM      5  C   UNL     1      -1.470  15.242  22.641  0.00  0.00    +0.000 A 
ATOM      6  C   UNL     1      -2.525  15.400  23.539  0.00  0.00    +0.000 A 
ATOM      7  C   UNL     1      -3.168  14.279  24.061  0.00  0.00    +0.000 A 
ATOM      8  C   UNL     1      -2.801  13.000  23.636  0.00  0.00    +0.000 A 
ATOM      9  C   UNL     1      -1.780  12.825  22.689  0.00  0.00    +0.000 A 
ATOM     10  N   UNL     1      -1.522  11.505  22.193  0.00  0.00    +0.000 N 
ATOM     11  C   UNL     1      -1.190  10.513  23.206  0.00  0.00    +0.000 C 
ATOM     12  C   UNL     1      -0.957  11.347  20.919  0.00  0.00    +0.000 C 
ATOM     13  O   UNL     1      -1.617  10.916  19.971  0.00  0.00    +0.000 OA
ENDROOT
BRANCH   1  17
ATOM     14  N   UNL     1       1.934   8.238  20.620  0.00  0.00    +0.000 N 
ATOM     15  C   UNL     1       1.433   9.431  20.102  0.00  0.00    +0.000 C 
ATOM     16  O   UNL     1       1.099   9.630  18.939  0.00  0.00    +0.000 OA
ATOM     17  N   UNL     1       1.306  10.388  21.082  0.00  0.00    +0.000 N 
ATOM     18  H   UNL     1       2.340   8.268  21.541  0.00  0.00    +0.000 HD
ATOM     19  H   UNL     1       1.080   9.984  21.977  0.00  0.00    +0.000 HD
BRANCH  14  25
ATOM     20  C   UNL     1       1.128   3.314  20.623  0.00  0.00    +0.000 C 
ATOM     21  C   UNL     1       1.622   4.560  19.942  0.00  0.00    +0.000 A 
ATOM     22  C   UNL     1       2.142   4.477  18.647  0.00  0.00    +0.000 A 
ATOM     23  C   UNL     1       2.598   5.621  18.004  0.00  0.00    +0.000 A 
ATOM     24  C   UNL     1       2.539   6.861  18.643  0.00  0.00    +0.000 A 
ATOM     25  C   UNL     1       2.032   6.984  19.939  0.00  0.00    +0.000 A 
ATOM     26  C   UNL     1       1.577   5.817  20.583  0.00  0.00    +0.000 A 
ENDBRANCH  14  25
ENDBRANCH   1  17
BRANCH   3  27
ATOM     27  C   UNL     1       0.557  14.703  20.377  0.00  0.00    +0.000 A 
ATOM     28  C   UNL     1      -0.402  15.126  19.458  0.00  0.00    +0.000 A 
ATOM     29  C   UNL     1      -0.031  16.008  18.448  0.00  0.00    +0.000 A 
ATOM     30  C   UNL     1       1.285  16.439  18.403  0.00  0.00    +0.000 A 
ATOM     31  N   UNL     1       2.233  16.064  19.291  0.00  0.00    +0.000 NA
ATOM     32  C   UNL     1       1.843  15.216  20.269  0.00  0.00    +0.000 A 
ENDBRANCH   3  27
TORSDOF 3
ENDMDL
MODEL 9
REMARK VINA RESULT:      -7.9      8.967     11.932
REMARK  Name = 
REMARK  5 active torsions:
REMARK  status: ('A' for Active; 'I' for Inactive)
REMARK    1  A    between atoms: C_1  and  C_2
REMARK    2  A    between atoms: C_6  and  N_7
REMARK    3  A    between atoms: N_10  and  C_11
REMARK    4  A    between atoms: C_13  and  C_14
REMARK    5  A    between atoms: N_26  and  C_27
REMARK                            x       y       z     vdW  Elec       q    Type
REMARK                         _______ _______ _______ _____ _____    ______ ____
ROOT
ATOM      1  C   UNL     1      -2.205  11.899  21.119  0.00  0.00    +0.000 C 
ATOM      2  N   UNL     1      -2.655  12.979  20.212  0.00  0.00    +0.000 NA
ATOM      3  C   UNL     1      -3.899  13.271  20.491  0.00  0.00    +0.000 C 
ATOM      4  C   UNL     1      -4.170  14.416  21.408  0.00  0.00    +0.000 A 
ATOM      5  C   UNL     1      -5.231  15.303  21.155  0.00  0.00    +0.000 A 
ATOM      6  C   UNL     1      -5.353  16.477  21.899  0.00  0.00    +0.000 A 
ATOM      7  C   UNL     1      -4.399  16.791  22.864  0.00  0.00    +0.000 A 
ATOM      8  C   UNL     1      -3.357  15.900  23.135  0.00  0.00    +0.000 A 
ATOM      9  C   UNL     1      -3.252  14.687  22.437  0.00  0.00    +0.000 A 
ATOM     10  N   UNL     1      -2.240  13.751  22.833  0.00  0.00    +0.000 N 
ATOM     11  C   UNL     1      -0.875  14.259  22.798  0.00  0.00    +0.000 C 
ATOM     12  C   UNL     1      -2.432  12.384  22.585  0.00  0.00    +0.000 C 
ATOM     13  O   UNL     1      -2.665  11.591  23.500  0.00  0.00    +0.000 OA
ENDROOT
BRANCH   1  17
ATOM     14  N   UNL     1       0.887  10.226  20.154  0.00  0.00    +0.000 N 
ATOM     15  C   UNL     1      -0.451  10.593  20.021  0.00  0.00    +0.000 C 
ATOM     16  O   UNL     1      -1.256  10.113  19.230  0.00  0.00    +0.000 OA
ATOM     17  N   UNL     1      -0.799  11.560  20.935  0.00  0.00    +0.000 N 
ATOM     18  H   UNL     1       1.478  10.826  20.708  0.00  0.00    +0.000 HD
ATOM     19  H   UNL     1      -0.290  11.463  21.800  0.00  0.00    +0.000 HD
BRANCH  14  25
ATOM     20  C   UNL     1       2.483   5.502  20.299  0.00  0.00    +0.000 C 
ATOM     21  C   UNL     1       2.321   6.808  19.573  0.00  0.00    +0.000 A 
ATOM     22  C   UNL     1       2.789   6.929  18.261  0.00  0.00    +0.000 A 
ATOM     23  C   UNL     1       2.642   8.128  17.575  0.00  0.00    +0.000 A 
ATOM     24  C   UNL     1       2.022   9.220  18.188  0.00  0.00    +0.000 A 
ATOM     25  C   UNL     1       1.547   9.139  19.499  0.00  0.00    +0.000 A 
ATOM     26  C   UNL     1       1.705   7.920  20.186  0.00  0.00    +0.000 A 
ENDBRANCH  14  25
ENDBRANCH   1  17
BRANCH   3  27
ATOM     27  C   UNL     1      -5.013  12.490  19.907  0.00  0.00    +0.000 A 
ATOM     28  C   UNL     1      -6.028  12.019  20.738  0.00  0.00    +0.000 A 
ATOM     29  C   UNL     1      -7.065  11.272  20.188  0.00  0.00    +0.000 A 
ATOM     30  C   UNL     1      -7.048  11.032  18.823  0.00  0.00    +0.000 A 
ATOM     31  N   UNL     1      -6.091  11.490  17.988  0.00  0.00    +0.000 NA
ATOM     32  C   UNL     1      -5.101  12.224  18.546  0.00  0.00    +0.000 A 
ENDBRANCH   3  27
TORSDOF 3
ENDMDL
