MODEL 1
REMARK VINA RESULT:      -8.4      0.000      0.000
REMARK  Name = 
REMARK  2 active torsions:
REMARK  status: ('A' for Active; 'I' for Inactive)
REMARK    1  A    between atoms: C_12  and  C_13
REMARK    2  A    between atoms: C_17  and  C_18
REMARK                            x       y       z     vdW  Elec       q    Type
REMARK                         _______ _______ _______ _____ _____    ______ ____
ROOT
ATOM      1  O   UNL     1       1.898   9.767  17.335  0.00  0.00    +0.000 OA
ATOM      2  C   UNL     1       1.574   9.468  18.486  0.00  0.00    +0.000 C 
ATOM      3  N   UNL     1       0.787  10.344  19.174  0.00  0.00    +0.000 N 
ATOM      4  C   UNL     1       0.318  10.227  20.484  0.00  0.00    +0.000 A 
ATOM      5  C   UNL     1      -0.505  11.249  20.976  0.00  0.00    +0.000 A 
ATOM      6  C   UNL     1      -0.984  11.199  22.285  0.00  0.00    +0.000 A 
ATOM      7  C   UNL     1      -0.647  10.129  23.106  0.00  0.00    +0.000 A 
ATOM      8  C   UNL     1       0.167   9.109  22.613  0.00  0.00    +0.000 A 
ATOM      9  C   UNL     1       0.657   9.148  21.298  0.00  0.00    +0.000 A 
ATOM     10  S   UNL     1       1.692   7.817  20.772  0.00  0.00    +0.000 S 
ATOM     11  C   UNL     1       1.990   8.168  19.109  0.00  0.00    +0.000 C 
ATOM     12  C   UNL     1       2.602   7.288  18.289  0.00  0.00    +0.000 C 
ATOM     13  H   UNL     1       0.533  11.162  18.636  0.00  0.00    +0.000 HD
ENDROOT
BRANCH  12  14
ATOM     14  C   UNL     1       3.015   5.926  18.647  0.00  0.00    +0.000 A 
ATOM     15  C   UNL     1       4.361   5.607  18.851  0.00  0.00    +0.000 A 
ATOM     16  C   UNL     1       4.723   4.312  19.224  0.00  0.00    +0.000 A 
ATOM     17  C   UNL     1       3.746   3.332  19.399  0.00  0.00    +0.000 A 
ATOM     18  C   UNL     1       2.391   3.635  19.200  0.00  0.00    +0.000 A 
ATOM     19  C   UNL     1       2.037   4.939  18.817  0.00  0.00    +0.000 A 
BRANCH  18  20
ATOM     20  C   UNL     1       1.317   2.595  19.402  0.00  0.00    +0.000 C 
ATOM     21  F   UNL     1       0.341   2.627  18.452  0.00  0.00    +0.000 F 
ATOM     22  F   UNL     1       1.809   1.325  19.384  0.00  0.00    +0.000 F 
ATOM     23  F   UNL     1       0.677   2.730  20.597  0.00  0.00    +0.000 F 
ENDBRANCH  18  20
ENDBRANCH  12  14
TORSDOF 2
ENDMDL
MODEL 2
REMARK VINA RESULT:      -8.1      5.180      7.615
REMARK  Name = 
REMARK  2 active torsions:
REMARK  status: ('A' for Active; 'I' for Inactive)
REMARK    1  A    between atoms: C_12  and  C_13
REMARK    2  A    between atoms: C_17  and  C_18
REMARK                            x       y       z     vdW  Elec       q    Type
REMARK                         _______ _______ _______ _____ _____    ______ ____
ROOT
ATOM      1  O   UNL     1       7.558   6.630  17.417  0.00  0.00    +0.000 OA
ATOM      2  C   UNL     1       7.056   5.837  16.617  0.00  0.00    +0.000 C 
ATOM      3  N   UNL     1       7.551   5.816  15.346  0.00  0.00    +0.000 N 
ATOM      4  C   UNL     1       7.129   5.025  14.276  0.00  0.00    +0.000 A 
ATOM      5  C   UNL     1       7.809   5.157  13.058  0.00  0.00    +0.000 A 
ATOM      6  C   UNL     1       7.417   4.410  11.947  0.00  0.00    +0.000 A 
ATOM      7  C   UNL     1       6.348   3.527  12.048  0.00  0.00    +0.000 A 
ATOM      8  C   UNL     1       5.675   3.391  13.263  0.00  0.00    +0.000 A 
ATOM      9  C   UNL     1       6.059   4.138  14.387  0.00  0.00    +0.000 A 
ATOM     10  S   UNL     1       5.136   3.906  15.876  0.00  0.00    +0.000 S 
ATOM     11  C   UNL     1       5.964   4.893  17.024  0.00  0.00    +0.000 C 
ATOM     12  C   UNL     1       5.675   4.856  18.342  0.00  0.00    +0.000 C 
ATOM     13  H   UNL     1       8.315   6.463  15.202  0.00  0.00    +0.000 HD
ENDROOT
BRANCH  12  14
ATOM     14  C   UNL     1       4.714   3.951  18.984  0.00  0.00    +0.000 A 
ATOM     15  C   UNL     1       5.133   2.982  19.900  0.00  0.00    +0.000 A 
ATOM     16  C   UNL     1       4.195   2.156  20.522  0.00  0.00    +0.000 A 
ATOM     17  C   UNL     1       2.837   2.296  20.236  0.00  0.00    +0.000 A 
ATOM     18  C   UNL     1       2.398   3.265  19.320  0.00  0.00    +0.000 A 
ATOM     19  C   UNL     1       3.351   4.085  18.693  0.00  0.00    +0.000 A 
BRANCH  18  20
ATOM     20  C   UNL     1       0.933   3.446  19.011  0.00  0.00    +0.000 C 
ATOM     21  F   UNL     1       0.700   4.150  17.868  0.00  0.00    +0.000 F 
ATOM     22  F   UNL     1       0.283   2.259  18.854  0.00  0.00    +0.000 F 
ATOM     23  F   UNL     1       0.268   4.108  19.997  0.00  0.00    +0.000 F 
ENDBRANCH  18  20
ENDBRANCH  12  14
TORSDOF 2
ENDMDL
MODEL 3
REMARK VINA RESULT:      -8.0      5.061      7.787
REMARK  Name = 
REMARK  2 active torsions:
REMARK  status: ('A' for Active; 'I' for Inactive)
REMARK    1  A    between atoms: C_12  and  C_13
REMARK    2  A    between atoms: C_17  and  C_18
REMARK                            x       y       z     vdW  Elec       q    Type
REMARK                         _______ _______ _______ _____ _____    ______ ____
ROOT
ATOM      1  O   UNL     1       7.402   6.380  17.488  0.00  0.00    +0.000 OA
ATOM      2  C   UNL     1       6.954   5.683  16.575  0.00  0.00    +0.000 C 
ATOM      3  N   UNL     1       7.568   5.752  15.359  0.00  0.00    +0.000 N 
ATOM      4  C   UNL     1       7.226   5.078  14.187  0.00  0.00    +0.000 A 
ATOM      5  C   UNL     1       8.025   5.286  13.055  0.00  0.00    +0.000 A 
ATOM      6  C   UNL     1       7.718   4.658  11.848  0.00  0.00    +0.000 A 
ATOM      7  C   UNL     1       6.614   3.816  11.768  0.00  0.00    +0.000 A 
ATOM      8  C   UNL     1       5.822   3.603  12.896  0.00  0.00    +0.000 A 
ATOM      9  C   UNL     1       6.121   4.231  14.115  0.00  0.00    +0.000 A 
ATOM     10  S   UNL     1       5.049   3.909  15.483  0.00  0.00    +0.000 S 
ATOM     11  C   UNL     1       5.794   4.756  16.789  0.00  0.00    +0.000 C 
ATOM     12  C   UNL     1       5.377   4.615  18.065  0.00  0.00    +0.000 C 
ATOM     13  H   UNL     1       8.365   6.376  15.348  0.00  0.00    +0.000 HD
ENDROOT
BRANCH  12  14
ATOM     14  C   UNL     1       4.328   3.699  18.529  0.00  0.00    +0.000 A 
ATOM     15  C   UNL     1       4.176   2.428  17.967  0.00  0.00    +0.000 A 
ATOM     16  C   UNL     1       3.191   1.564  18.449  0.00  0.00    +0.000 A 
ATOM     17  C   UNL     1       2.358   1.962  19.495  0.00  0.00    +0.000 A 
ATOM     18  C   UNL     1       2.498   3.233  20.071  0.00  0.00    +0.000 A 
ATOM     19  C   UNL     1       3.486   4.099  19.573  0.00  0.00    +0.000 A 
BRANCH  18  20
ATOM     20  C   UNL     1       1.621   3.677  21.215  0.00  0.00    +0.000 C 
ATOM     21  F   UNL     1       0.835   4.749  20.916  0.00  0.00    +0.000 F 
ATOM     22  F   UNL     1       0.769   2.697  21.630  0.00  0.00    +0.000 F 
ATOM     23  F   UNL     1       2.338   4.037  22.315  0.00  0.00    +0.000 F 
ENDBRANCH  18  20
ENDBRANCH  12  14
TORSDOF 2
ENDMDL
MODEL 4
REMARK VINA RESULT:      -8.0      4.348      7.368
REMARK  Name = 
REMARK  2 active torsions:
REMARK  status: ('A' for Active; 'I' for Inactive)
REMARK    1  A    between atoms: C_12  and  C_13
REMARK    2  A    between atoms: C_17  and  C_18
REMARK                            x       y       z     vdW  Elec       q    Type
REMARK                         _______ _______ _______ _____ _____    ______ ____
ROOT
ATOM      1  O   UNL     1       7.539   6.769  17.495  0.00  0.00    +0.000 OA
ATOM      2  C   UNL     1       6.888   6.068  16.717  0.00  0.00    +0.000 C 
ATOM      3  N   UNL     1       7.462   5.736  15.526  0.00  0.00    +0.000 N 
ATOM      4  C   UNL     1       6.910   4.979  14.491  0.00  0.00    +0.000 A 
ATOM      5  C   UNL     1       7.703   4.742  13.360  0.00  0.00    +0.000 A 
ATOM      6  C   UNL     1       7.198   4.012  12.284  0.00  0.00    +0.000 A 
ATOM      7  C   UNL     1       5.901   3.514  12.334  0.00  0.00    +0.000 A 
ATOM      8  C   UNL     1       5.114   3.745  13.462  0.00  0.00    +0.000 A 
ATOM      9  C   UNL     1       5.611   4.478  14.551  0.00  0.00    +0.000 A 
ATOM     10  S   UNL     1       4.532   4.729  15.928  0.00  0.00    +0.000 S 
ATOM     11  C   UNL     1       5.522   5.560  17.072  0.00  0.00    +0.000 C 
ATOM     12  C   UNL     1       5.119   5.780  18.341  0.00  0.00    +0.000 C 
ATOM     13  H   UNL     1       8.400   6.098  15.418  0.00  0.00    +0.000 HD
ENDROOT
BRANCH  12  14
ATOM     14  C   UNL     1       3.869   5.298  18.940  0.00  0.00    +0.000 A 
ATOM     15  C   UNL     1       3.151   6.083  19.847  0.00  0.00    +0.000 A 
ATOM     16  C   UNL     1       1.948   5.614  20.376  0.00  0.00    +0.000 A 
ATOM     17  C   UNL     1       1.454   4.364  20.002  0.00  0.00    +0.000 A 
ATOM     18  C   UNL     1       2.162   3.564  19.092  0.00  0.00    +0.000 A 
ATOM     19  C   UNL     1       3.376   4.041  18.571  0.00  0.00    +0.000 A 
BRANCH  18  20
ATOM     20  C   UNL     1       1.637   2.218  18.659  0.00  0.00    +0.000 C 
ATOM     21  F   UNL     1       0.290   2.195  18.459  0.00  0.00    +0.000 F 
ATOM     22  F   UNL     1       2.192   1.794  17.489  0.00  0.00    +0.000 F 
ATOM     23  F   UNL     1       1.895   1.239  19.570  0.00  0.00    +0.000 F 
ENDBRANCH  18  20
ENDBRANCH  12  14
TORSDOF 2
ENDMDL
MODEL 5
REMARK VINA RESULT:      -8.0      4.548      7.585
REMARK  Name = 
REMARK  2 active torsions:
REMARK  status: ('A' for Active; 'I' for Inactive)
REMARK    1  A    between atoms: C_12  and  C_13
REMARK    2  A    between atoms: C_17  and  C_18
REMARK                            x       y       z     vdW  Elec       q    Type
REMARK                         _______ _______ _______ _____ _____    ______ ____
ROOT
ATOM      1  O   UNL     1       7.883   6.835  16.999  0.00  0.00    +0.000 OA
ATOM      2  C   UNL     1       7.140   6.114  16.328  0.00  0.00    +0.000 C 
ATOM      3  N   UNL     1       7.601   5.668  15.125  0.00  0.00    +0.000 N 
ATOM      4  C   UNL     1       6.935   4.867  14.196  0.00  0.00    +0.000 A 
ATOM      5  C   UNL     1       7.623   4.509  13.030  0.00  0.00    +0.000 A 
ATOM      6  C   UNL     1       7.001   3.730  12.054  0.00  0.00    +0.000 A 
ATOM      7  C   UNL     1       5.691   3.302  12.241  0.00  0.00    +0.000 A 
ATOM      8  C   UNL     1       5.009   3.653  13.406  0.00  0.00    +0.000 A 
ATOM      9  C   UNL     1       5.624   4.438  14.394  0.00  0.00    +0.000 A 
ATOM     10  S   UNL     1       4.671   4.841  15.827  0.00  0.00    +0.000 S 
ATOM     11  C   UNL     1       5.786   5.701  16.825  0.00  0.00    +0.000 C 
ATOM     12  C   UNL     1       5.497   6.033  18.101  0.00  0.00    +0.000 C 
ATOM     13  H   UNL     1       8.543   5.974  14.919  0.00  0.00    +0.000 HD
ENDROOT
BRANCH  12  14
ATOM     14  C   UNL     1       4.279   5.658  18.830  0.00  0.00    +0.000 A 
ATOM     15  C   UNL     1       3.198   6.539  18.935  0.00  0.00    +0.000 A 
ATOM     16  C   UNL     1       2.039   6.145  19.604  0.00  0.00    +0.000 A 
ATOM     17  C   UNL     1       1.951   4.872  20.168  0.00  0.00    +0.000 A 
ATOM     18  C   UNL     1       3.025   3.975  20.070  0.00  0.00    +0.000 A 
ATOM     19  C   UNL     1       4.191   4.384  19.402  0.00  0.00    +0.000 A 
BRANCH  18  20
ATOM     20  C   UNL     1       2.944   2.588  20.656  0.00  0.00    +0.000 C 
ATOM     21  F   UNL     1       2.779   2.575  22.009  0.00  0.00    +0.000 F 
ATOM     22  F   UNL     1       1.905   1.867  20.150  0.00  0.00    +0.000 F 
ATOM     23  F   UNL     1       4.063   1.851  20.411  0.00  0.00    +0.000 F 
ENDBRANCH  18  20
ENDBRANCH  12  14
TORSDOF 2
ENDMDL
MODEL 6
REMARK VINA RESULT:      -7.8      4.887      6.026
REMARK  Name = 
REMARK  2 active torsions:
REMARK  status: ('A' for Active; 'I' for Inactive)
REMARK    1  A    between atoms: C_12  and  C_13
REMARK    2  A    between atoms: C_17  and  C_18
REMARK                            x       y       z     vdW  Elec       q    Type
REMARK                         _______ _______ _______ _____ _____    ______ ____
ROOT
ATOM      1  O   UNL     1       3.383   2.594  19.419  0.00  0.00    +0.000 OA
ATOM      2  C   UNL     1       3.260   3.795  19.168  0.00  0.00    +0.000 C 
ATOM      3  N   UNL     1       2.521   4.552  20.028  0.00  0.00    +0.000 N 
ATOM      4  C   UNL     1       2.230   5.914  19.936  0.00  0.00    +0.000 A 
ATOM      5  C   UNL     1       1.467   6.490  20.960  0.00  0.00    +0.000 A 
ATOM      6  C   UNL     1       1.124   7.841  20.911  0.00  0.00    +0.000 A 
ATOM      7  C   UNL     1       1.546   8.624  19.842  0.00  0.00    +0.000 A 
ATOM      8  C   UNL     1       2.312   8.052  18.826  0.00  0.00    +0.000 A 
ATOM      9  C   UNL     1       2.662   6.693  18.864  0.00  0.00    +0.000 A 
ATOM     10  S   UNL     1       3.622   6.059  17.522  0.00  0.00    +0.000 S 
ATOM     11  C   UNL     1       3.927   4.424  17.981  0.00  0.00    +0.000 C 
ATOM     12  C   UNL     1       4.788   3.638  17.301  0.00  0.00    +0.000 C 
ATOM     13  H   UNL     1       2.160   4.028  20.815  0.00  0.00    +0.000 HD
ENDROOT
BRANCH  12  14
ATOM     14  C   UNL     1       5.622   4.058  16.168  0.00  0.00    +0.000 A 
ATOM     15  C   UNL     1       6.755   4.854  16.359  0.00  0.00    +0.000 A 
ATOM     16  C   UNL     1       7.549   5.211  15.268  0.00  0.00    +0.000 A 
ATOM     17  C   UNL     1       7.220   4.774  13.985  0.00  0.00    +0.000 A 
ATOM     18  C   UNL     1       6.087   3.973  13.776  0.00  0.00    +0.000 A 
ATOM     19  C   UNL     1       5.289   3.626  14.878  0.00  0.00    +0.000 A 
BRANCH  18  20
ATOM     20  C   UNL     1       5.723   3.474  12.400  0.00  0.00    +0.000 C 
ATOM     21  F   UNL     1       5.892   2.131  12.245  0.00  0.00    +0.000 F 
ATOM     22  F   UNL     1       4.421   3.722  12.082  0.00  0.00    +0.000 F 
ATOM     23  F   UNL     1       6.464   4.058  11.418  0.00  0.00    +0.000 F 
ENDBRANCH  18  20
ENDBRANCH  12  14
TORSDOF 2
ENDMDL
MODEL 7
REMARK VINA RESULT:      -7.7      5.049      7.657
REMARK  Name = 
REMARK  2 active torsions:
REMARK  status: ('A' for Active; 'I' for Inactive)
REMARK    1  A    between atoms: C_12  and  C_13
REMARK    2  A    between atoms: C_17  and  C_18
REMARK                            x       y       z     vdW  Elec       q    Type
REMARK                         _______ _______ _______ _____ _____    ______ ____
ROOT
ATOM      1  O   UNL     1       7.260   6.566  17.509  0.00  0.00    +0.000 OA
ATOM      2  C   UNL     1       6.735   5.886  16.624  0.00  0.00    +0.000 C 
ATOM      3  N   UNL     1       7.437   5.689  15.472  0.00  0.00    +0.000 N 
ATOM      4  C   UNL     1       7.038   4.980  14.337  0.00  0.00    +0.000 A 
ATOM      5  C   UNL     1       7.945   4.887  13.273  0.00  0.00    +0.000 A 
ATOM      6  C   UNL     1       7.595   4.212  12.104  0.00  0.00    +0.000 A 
ATOM      7  C   UNL     1       6.339   3.624  11.994  0.00  0.00    +0.000 A 
ATOM      8  C   UNL     1       5.439   3.711  13.056  0.00  0.00    +0.000 A 
ATOM      9  C   UNL     1       5.780   4.389  14.237  0.00  0.00    +0.000 A 
ATOM     10  S   UNL     1       4.566   4.457  15.520  0.00  0.00    +0.000 S 
ATOM     11  C   UNL     1       5.385   5.259  16.809  0.00  0.00    +0.000 C 
ATOM     12  C   UNL     1       4.854   5.352  18.047  0.00  0.00    +0.000 C 
ATOM     13  H   UNL     1       8.351   6.121  15.481  0.00  0.00    +0.000 HD
ENDROOT
BRANCH  12  14
ATOM     14  C   UNL     1       3.595   4.740  18.489  0.00  0.00    +0.000 A 
ATOM     15  C   UNL     1       2.500   4.635  17.627  0.00  0.00    +0.000 A 
ATOM     16  C   UNL     1       1.326   4.018  18.061  0.00  0.00    +0.000 A 
ATOM     17  C   UNL     1       1.240   3.500  19.354  0.00  0.00    +0.000 A 
ATOM     18  C   UNL     1       2.331   3.596  20.232  0.00  0.00    +0.000 A 
ATOM     19  C   UNL     1       3.505   4.226  19.788  0.00  0.00    +0.000 A 
BRANCH  18  20
ATOM     20  C   UNL     1       2.267   3.027  21.627  0.00  0.00    +0.000 C 
ATOM     21  F   UNL     1       3.207   2.071  21.870  0.00  0.00    +0.000 F 
ATOM     22  F   UNL     1       2.448   3.976  22.587  0.00  0.00    +0.000 F 
ATOM     23  F   UNL     1       1.066   2.445  21.900  0.00  0.00    +0.000 F 
ENDBRANCH  18  20
ENDBRANCH  12  14
TORSDOF 2
ENDMDL
MODEL 8
REMARK VINA RESULT:      -7.6      5.600      7.408
REMARK  Name = 
REMARK  2 active torsions:
REMARK  status: ('A' for Active; 'I' for Inactive)
REMARK    1  A    between atoms: C_12  and  C_13
REMARK    2  A    between atoms: C_17  and  C_18
REMARK                            x       y       z     vdW  Elec       q    Type
REMARK                         _______ _______ _______ _____ _____    ______ ____
ROOT
ATOM      1  O   UNL     1       7.422   4.855  18.845  0.00  0.00    +0.000 OA
ATOM      2  C   UNL     1       6.293   4.641  18.399  0.00  0.00    +0.000 C 
ATOM      3  N   UNL     1       5.256   4.597  19.284  0.00  0.00    +0.000 N 
ATOM      4  C   UNL     1       3.909   4.351  19.013  0.00  0.00    +0.000 A 
ATOM      5  C   UNL     1       3.011   4.381  20.088  0.00  0.00    +0.000 A 
ATOM      6  C   UNL     1       1.656   4.120  19.883  0.00  0.00    +0.000 A 
ATOM      7  C   UNL     1       1.193   3.832  18.604  0.00  0.00    +0.000 A 
ATOM      8  C   UNL     1       2.086   3.809  17.533  0.00  0.00    +0.000 A 
ATOM      9  C   UNL     1       3.451   4.069  17.728  0.00  0.00    +0.000 A 
ATOM     10  S   UNL     1       4.505   4.001  16.311  0.00  0.00    +0.000 S 
ATOM     11  C   UNL     1       6.046   4.473  16.929  0.00  0.00    +0.000 C 
ATOM     12  C   UNL     1       7.097   4.722  16.120  0.00  0.00    +0.000 C 
ATOM     13  H   UNL     1       5.538   4.770  20.240  0.00  0.00    +0.000 HD
ENDROOT
BRANCH  12  14
ATOM     14  C   UNL     1       7.071   4.712  14.652  0.00  0.00    +0.000 A 
ATOM     15  C   UNL     1       8.048   5.378  13.906  0.00  0.00    +0.000 A 
ATOM     16  C   UNL     1       8.019   5.325  12.512  0.00  0.00    +0.000 A 
ATOM     17  C   UNL     1       7.021   4.604  11.857  0.00  0.00    +0.000 A 
ATOM     18  C   UNL     1       6.033   3.929  12.589  0.00  0.00    +0.000 A 
ATOM     19  C   UNL     1       6.065   3.996  13.992  0.00  0.00    +0.000 A 
BRANCH  18  20
ATOM     20  C   UNL     1       4.955   3.129  11.902  0.00  0.00    +0.000 C 
ATOM     21  F   UNL     1       5.346   1.870  11.557  0.00  0.00    +0.000 F 
ATOM     22  F   UNL     1       3.846   2.973  12.678  0.00  0.00    +0.000 F 
ATOM     23  F   UNL     1       4.525   3.714  10.750  0.00  0.00    +0.000 F 
ENDBRANCH  18  20
ENDBRANCH  12  14
TORSDOF 2
ENDMDL
MODEL 9
REMARK VINA RESULT:      -7.6      1.156      1.518
REMARK  Name = 
REMARK  2 active torsions:
REMARK  status: ('A' for Active; 'I' for Inactive)
REMARK    1  A    between atoms: C_12  and  C_13
REMARK    2  A    between atoms: C_17  and  C_18
REMARK                            x       y       z     vdW  Elec       q    Type
REMARK                         _______ _______ _______ _____ _____    ______ ____
ROOT
ATOM      1  O   UNL     1       2.052   9.715  17.368  0.00  0.00    +0.000 OA
ATOM      2  C   UNL     1       1.682   9.385  18.497  0.00  0.00    +0.000 C 
ATOM      3  N   UNL     1       0.978  10.296  19.228  0.00  0.00    +0.000 N 
ATOM      4  C   UNL     1       0.481  10.154  20.524  0.00  0.00    +0.000 A 
ATOM      5  C   UNL     1      -0.242  11.223  21.068  0.00  0.00    +0.000 A 
ATOM      6  C   UNL     1      -0.743  11.149  22.368  0.00  0.00    +0.000 A 
ATOM      7  C   UNL     1      -0.527  10.004  23.128  0.00  0.00    +0.000 A 
ATOM      8  C   UNL     1       0.187   8.937  22.584  0.00  0.00    +0.000 A 
ATOM      9  C   UNL     1       0.697   9.001  21.278  0.00  0.00    +0.000 A 
ATOM     10  S   UNL     1       1.601   7.603  20.685  0.00  0.00    +0.000 S 
ATOM     11  C   UNL     1       1.957   8.017  19.047  0.00  0.00    +0.000 C 
ATOM     12  C   UNL     1       2.490   7.127  18.183  0.00  0.00    +0.000 C 
ATOM     13  H   UNL     1       0.815  11.165  18.736  0.00  0.00    +0.000 HD
ENDROOT
BRANCH  12  14
ATOM     14  C   UNL     1       2.758   5.712  18.465  0.00  0.00    +0.000 A 
ATOM     15  C   UNL     1       3.426   4.904  17.541  0.00  0.00    +0.000 A 
ATOM     16  C   UNL     1       3.698   3.570  17.849  0.00  0.00    +0.000 A 
ATOM     17  C   UNL     1       3.310   3.039  19.079  0.00  0.00    +0.000 A 
ATOM     18  C   UNL     1       2.640   3.836  20.019  0.00  0.00    +0.000 A 
ATOM     19  C   UNL     1       2.363   5.175  19.697  0.00  0.00    +0.000 A 
BRANCH  18  20
ATOM     20  C   UNL     1       2.228   3.288  21.362  0.00  0.00    +0.000 C 
ATOM     21  F   UNL     1       2.972   2.220  21.767  0.00  0.00    +0.000 F 
ATOM     22  F   UNL     1       2.334   4.212  22.358  0.00  0.00    +0.000 F 
ATOM     23  F   UNL     1       0.933   2.867  21.380  0.00  0.00    +0.000 F 
ENDBRANCH  18  20
ENDBRANCH  12  14
TORSDOF 2
ENDMDL
