MODEL 1
REMARK VINA RESULT:      -7.9      0.000      0.000
REMARK  Name = 
REMARK  7 active torsions:
REMARK  status: ('A' for Active; 'I' for Inactive)
REMARK    1  A    between atoms: C_1  and  S_2
REMARK    2  A    between atoms: S_2  and  N_5
REMARK    3  A    between atoms: N_5  and  C_6
REMARK    4  A    between atoms: N_5  and  C_10
REMARK    5  A    between atoms: C_6  and  C_7
REMARK    6  A    between atoms: C_7  and  O_9
REMARK    7  A    between atoms: C_13  and  C_14
REMARK                            x       y       z     vdW  Elec       q    Type
REMARK                         _______ _______ _______ _____ _____    ______ ____
ROOT
ATOM      1  C   UNL     1       0.867   9.777  19.306  0.00  0.00    +0.000 A 
ATOM      2  C   UNL     1       1.093   8.830  20.292  0.00  0.00    +0.000 A 
ATOM      3  C   UNL     1       1.869   7.701  20.014  0.00  0.00    +0.000 A 
ATOM      4  C   UNL     1       2.425   7.473  18.740  0.00  0.00    +0.000 A 
ATOM      5  C   UNL     1       2.178   8.448  17.755  0.00  0.00    +0.000 A 
ATOM      6  C   UNL     1       1.399   9.587  18.031  0.00  0.00    +0.000 A 
ENDROOT
BRANCH   4   7
ATOM      7  C   UNL     1       3.242   6.202  18.425  0.00  0.00    +0.000 C 
ATOM      8  C   UNL     1       3.898   5.584  19.701  0.00  0.00    +0.000 C 
ATOM      9  C   UNL     1       4.677   4.303  19.389  0.00  0.00    +0.000 C 
ATOM     10  C   UNL     1       3.715   3.271  18.787  0.00  0.00    +0.000 C 
ATOM     11  C   UNL     1       3.105   3.825  17.492  0.00  0.00    +0.000 C 
ATOM     12  C   UNL     1       4.233   4.144  16.497  0.00  0.00    +0.000 C 
ATOM     13  C   UNL     1       5.182   5.194  17.097  0.00  0.00    +0.000 C 
ATOM     14  C   UNL     1       5.792   4.630  18.389  0.00  0.00    +0.000 C 
ATOM     15  C   UNL     1       4.391   6.484  17.413  0.00  0.00    +0.000 C 
ATOM     16  C   UNL     1       2.319   5.113  17.803  0.00  0.00    +0.000 C 
ENDBRANCH   4   7
BRANCH   1  17
ATOM     17  N   UNL     1       0.075  10.919  19.633  0.00  0.00    +0.000 N 
BRANCH  17  19
ATOM     18  C   UNL     1      -0.412  13.442  20.544  0.00  0.00    +0.000 C 
ATOM     19  S   UNL     1       0.879  12.366  19.951  0.00  0.00    +0.000 S 
ATOM     20  O   UNL     1       1.341  12.892  18.681  0.00  0.00    +0.000 OA
ATOM     21  O   UNL     1       1.800  12.177  21.052  0.00  0.00    +0.000 OA
ENDBRANCH  17  19
BRANCH  17  22
ATOM     22  C   UNL     1      -1.354  10.923  19.263  0.00  0.00    +0.000 C 
BRANCH  22  23
ATOM     23  C   UNL     1      -1.600  11.098  17.776  0.00  0.00    +0.000 C 
ATOM     24  O   UNL     1      -1.893  10.203  16.995  0.00  0.00    +0.000 OA
BRANCH  23  25
ATOM     25  O   UNL     1      -1.459  12.378  17.350  0.00  0.00    +0.000 OA
ATOM     26  H   UNL     1      -2.283  12.900  17.307  0.00  0.00    +0.000 HD
ENDBRANCH  23  25
ENDBRANCH  22  23
ENDBRANCH  17  22
ENDBRANCH   1  17
TORSDOF 6
ENDMDL
MODEL 2
REMARK VINA RESULT:      -7.9      0.078      1.521
REMARK  Name = 
REMARK  7 active torsions:
REMARK  status: ('A' for Active; 'I' for Inactive)
REMARK    1  A    between atoms: C_1  and  S_2
REMARK    2  A    between atoms: S_2  and  N_5
REMARK    3  A    between atoms: N_5  and  C_6
REMARK    4  A    between atoms: N_5  and  C_10
REMARK    5  A    between atoms: C_6  and  C_7
REMARK    6  A    between atoms: C_7  and  O_9
REMARK    7  A    between atoms: C_13  and  C_14
REMARK                            x       y       z     vdW  Elec       q    Type
REMARK                         _______ _______ _______ _____ _____    ______ ____
ROOT
ATOM      1  C   UNL     1       0.881   9.771  19.282  0.00  0.00    +0.000 A 
ATOM      2  C   UNL     1       1.111   8.815  20.259  0.00  0.00    +0.000 A 
ATOM      3  C   UNL     1       1.889   7.690  19.969  0.00  0.00    +0.000 A 
ATOM      4  C   UNL     1       2.444   7.476  18.691  0.00  0.00    +0.000 A 
ATOM      5  C   UNL     1       2.194   8.461  17.716  0.00  0.00    +0.000 A 
ATOM      6  C   UNL     1       1.413   9.594  18.005  0.00  0.00    +0.000 A 
ENDROOT
BRANCH   4   7
ATOM      7  C   UNL     1       3.264   6.210  18.364  0.00  0.00    +0.000 C 
ATOM      8  C   UNL     1       4.395   6.486  17.323  0.00  0.00    +0.000 C 
ATOM      9  C   UNL     1       5.229   5.235  17.029  0.00  0.00    +0.000 C 
ATOM     10  C   UNL     1       5.874   4.750  18.333  0.00  0.00    +0.000 C 
ATOM     11  C   UNL     1       4.781   4.406  19.356  0.00  0.00    +0.000 C 
ATOM     12  C   UNL     1       3.871   3.312  18.774  0.00  0.00    +0.000 C 
ATOM     13  C   UNL     1       3.210   3.810  17.478  0.00  0.00    +0.000 C 
ATOM     14  C   UNL     1       4.310   4.147  16.459  0.00  0.00    +0.000 C 
ATOM     15  C   UNL     1       2.373   5.075  17.779  0.00  0.00    +0.000 C 
ATOM     16  C   UNL     1       3.942   5.663  19.654  0.00  0.00    +0.000 C 
ENDBRANCH   4   7
BRANCH   1  17
ATOM     17  N   UNL     1       0.087  10.908  19.621  0.00  0.00    +0.000 N 
BRANCH  17  19
ATOM     18  C   UNL     1      -0.393  13.410  20.592  0.00  0.00    +0.000 C 
ATOM     19  S   UNL     1       0.887  12.358  19.938  0.00  0.00    +0.000 S 
ATOM     20  O   UNL     1       1.303  12.910  18.663  0.00  0.00    +0.000 OA
ATOM     21  O   UNL     1       1.846  12.159  21.005  0.00  0.00    +0.000 OA
ENDBRANCH  17  19
BRANCH  17  22
ATOM     22  C   UNL     1      -1.345  10.908  19.264  0.00  0.00    +0.000 C 
BRANCH  22  23
ATOM     23  C   UNL     1      -1.606  11.089  17.780  0.00  0.00    +0.000 C 
ATOM     24  O   UNL     1      -1.916  10.199  17.000  0.00  0.00    +0.000 OA
BRANCH  23  25
ATOM     25  O   UNL     1      -1.455  12.368  17.355  0.00  0.00    +0.000 OA
ATOM     26  H   UNL     1      -1.888  12.583  16.507  0.00  0.00    +0.000 HD
ENDBRANCH  23  25
ENDBRANCH  22  23
ENDBRANCH  17  22
ENDBRANCH   1  17
TORSDOF 6
ENDMDL
MODEL 3
REMARK VINA RESULT:      -7.8      0.182      1.776
REMARK  Name = 
REMARK  7 active torsions:
REMARK  status: ('A' for Active; 'I' for Inactive)
REMARK    1  A    between atoms: C_1  and  S_2
REMARK    2  A    between atoms: S_2  and  N_5
REMARK    3  A    between atoms: N_5  and  C_6
REMARK    4  A    between atoms: N_5  and  C_10
REMARK    5  A    between atoms: C_6  and  C_7
REMARK    6  A    between atoms: C_7  and  O_9
REMARK    7  A    between atoms: C_13  and  C_14
REMARK                            x       y       z     vdW  Elec       q    Type
REMARK                         _______ _______ _______ _____ _____    ______ ____
ROOT
ATOM      1  C   UNL     1       0.887   9.739  19.353  0.00  0.00    +0.000 A 
ATOM      2  C   UNL     1       1.403   9.584  18.076  0.00  0.00    +0.000 A 
ATOM      3  C   UNL     1       2.161   8.451  17.760  0.00  0.00    +0.000 A 
ATOM      4  C   UNL     1       2.442   7.452  18.712  0.00  0.00    +0.000 A 
ATOM      5  C   UNL     1       1.909   7.635  20.003  0.00  0.00    +0.000 A 
ATOM      6  C   UNL     1       1.144   8.771  20.324  0.00  0.00    +0.000 A 
ENDROOT
BRANCH   4   7
ATOM      7  C   UNL     1       3.318   6.228  18.371  0.00  0.00    +0.000 C 
ATOM      8  C   UNL     1       2.486   5.049  17.774  0.00  0.00    +0.000 C 
ATOM      9  C   UNL     1       3.364   3.849  17.403  0.00  0.00    +0.000 C 
ATOM     10  C   UNL     1       4.397   4.295  16.360  0.00  0.00    +0.000 C 
ATOM     11  C   UNL     1       5.276   5.410  16.944  0.00  0.00    +0.000 C 
ATOM     12  C   UNL     1       5.985   4.888  18.204  0.00  0.00    +0.000 C 
ATOM     13  C   UNL     1       4.946   4.463  19.254  0.00  0.00    +0.000 C 
ATOM     14  C   UNL     1       4.074   3.344  18.664  0.00  0.00    +0.000 C 
ATOM     15  C   UNL     1       4.059   5.675  19.623  0.00  0.00    +0.000 C 
ATOM     16  C   UNL     1       4.395   6.618  17.316  0.00  0.00    +0.000 C 
ENDBRANCH   4   7
BRANCH   1  17
ATOM     17  N   UNL     1       0.113  10.905  19.632  0.00  0.00    +0.000 N 
BRANCH  17  19
ATOM     18  C   UNL     1      -0.322  13.460  20.476  0.00  0.00    +0.000 C 
ATOM     19  S   UNL     1       0.939  12.355  19.875  0.00  0.00    +0.000 S 
ATOM     20  O   UNL     1       1.360  12.836  18.573  0.00  0.00    +0.000 OA
ATOM     21  O   UNL     1       1.896  12.194  20.948  0.00  0.00    +0.000 OA
ENDBRANCH  17  19
BRANCH  17  22
ATOM     22  C   UNL     1      -1.318  10.912  19.275  0.00  0.00    +0.000 C 
BRANCH  22  23
ATOM     23  C   UNL     1      -1.577  11.064  17.787  0.00  0.00    +0.000 C 
ATOM     24  O   UNL     1      -1.856  10.154  17.018  0.00  0.00    +0.000 OA
BRANCH  23  25
ATOM     25  O   UNL     1      -1.464  12.341  17.345  0.00  0.00    +0.000 OA
ATOM     26  H   UNL     1      -2.296  12.852  17.319  0.00  0.00    +0.000 HD
ENDBRANCH  23  25
ENDBRANCH  22  23
ENDBRANCH  17  22
ENDBRANCH   1  17
TORSDOF 6
ENDMDL
MODEL 4
REMARK VINA RESULT:      -7.8      4.207      8.005
REMARK  Name = 
REMARK  7 active torsions:
REMARK  status: ('A' for Active; 'I' for Inactive)
REMARK    1  A    between atoms: C_1  and  S_2
REMARK    2  A    between atoms: S_2  and  N_5
REMARK    3  A    between atoms: N_5  and  C_6
REMARK    4  A    between atoms: N_5  and  C_10
REMARK    5  A    between atoms: C_6  and  C_7
REMARK    6  A    between atoms: C_7  and  O_9
REMARK    7  A    between atoms: C_13  and  C_14
REMARK                            x       y       z     vdW  Elec       q    Type
REMARK                         _______ _______ _______ _____ _____    ______ ____
ROOT
ATOM      1  C   UNL     1       2.773   6.531  18.668  0.00  0.00    +0.000 A 
ATOM      2  C   UNL     1       2.671   7.467  17.652  0.00  0.00    +0.000 A 
ATOM      3  C   UNL     1       2.053   8.698  17.893  0.00  0.00    +0.000 A 
ATOM      4  C   UNL     1       1.501   9.022  19.148  0.00  0.00    +0.000 A 
ATOM      5  C   UNL     1       1.615   8.053  20.163  0.00  0.00    +0.000 A 
ATOM      6  C   UNL     1       2.238   6.815  19.925  0.00  0.00    +0.000 A 
ENDROOT
BRANCH   4   7
ATOM      7  C   UNL     1       0.778  10.364  19.395  0.00  0.00    +0.000 C 
ATOM      8  C   UNL     1      -0.690  10.356  18.865  0.00  0.00    +0.000 C 
ATOM      9  C   UNL     1      -1.415  11.677  19.145  0.00  0.00    +0.000 C 
ATOM     10  C   UNL     1      -1.445  11.914  20.660  0.00  0.00    +0.000 C 
ATOM     11  C   UNL     1      -0.010  11.994  21.201  0.00  0.00    +0.000 C 
ATOM     12  C   UNL     1       0.733  13.142  20.498  0.00  0.00    +0.000 C 
ATOM     13  C   UNL     1       0.779  12.889  18.982  0.00  0.00    +0.000 C 
ATOM     14  C   UNL     1      -0.660  12.815  18.448  0.00  0.00    +0.000 C 
ATOM     15  C   UNL     1       1.507  11.554  18.704  0.00  0.00    +0.000 C 
ATOM     16  C   UNL     1       0.720  10.666  20.922  0.00  0.00    +0.000 C 
ENDBRANCH   4   7
BRANCH   1  17
ATOM     17  N   UNL     1       3.418   5.289  18.383  0.00  0.00    +0.000 N 
BRANCH  17  19
ATOM     18  C   UNL     1       2.061   3.247  19.573  0.00  0.00    +0.000 C 
ATOM     19  S   UNL     1       2.444   3.970  17.991  0.00  0.00    +0.000 S 
ATOM     20  O   UNL     1       3.268   3.025  17.263  0.00  0.00    +0.000 OA
ATOM     21  O   UNL     1       1.192   4.441  17.437  0.00  0.00    +0.000 OA
ENDBRANCH  17  19
BRANCH  17  22
ATOM     22  C   UNL     1       4.847   5.299  18.013  0.00  0.00    +0.000 C 
BRANCH  22  23
ATOM     23  C   UNL     1       5.757   4.706  19.073  0.00  0.00    +0.000 C 
ATOM     24  O   UNL     1       6.544   5.337  19.766  0.00  0.00    +0.000 OA
BRANCH  23  25
ATOM     25  O   UNL     1       5.640   3.361  19.199  0.00  0.00    +0.000 OA
ATOM     26  H   UNL     1       6.372   2.838  18.821  0.00  0.00    +0.000 HD
ENDBRANCH  23  25
ENDBRANCH  22  23
ENDBRANCH  17  22
ENDBRANCH   1  17
TORSDOF 6
ENDMDL
MODEL 5
REMARK VINA RESULT:      -7.8      4.210      8.001
REMARK  Name = 
REMARK  7 active torsions:
REMARK  status: ('A' for Active; 'I' for Inactive)
REMARK    1  A    between atoms: C_1  and  S_2
REMARK    2  A    between atoms: S_2  and  N_5
REMARK    3  A    between atoms: N_5  and  C_6
REMARK    4  A    between atoms: N_5  and  C_10
REMARK    5  A    between atoms: C_6  and  C_7
REMARK    6  A    between atoms: C_7  and  O_9
REMARK    7  A    between atoms: C_13  and  C_14
REMARK                            x       y       z     vdW  Elec       q    Type
REMARK                         _______ _______ _______ _____ _____    ______ ____
ROOT
ATOM      1  C   UNL     1       2.731   6.501  18.686  0.00  0.00    +0.000 A 
ATOM      2  C   UNL     1       2.613   7.439  17.673  0.00  0.00    +0.000 A 
ATOM      3  C   UNL     1       2.003   8.672  17.928  0.00  0.00    +0.000 A 
ATOM      4  C   UNL     1       1.476   8.996  19.193  0.00  0.00    +0.000 A 
ATOM      5  C   UNL     1       1.605   8.025  20.204  0.00  0.00    +0.000 A 
ATOM      6  C   UNL     1       2.220   6.785  19.952  0.00  0.00    +0.000 A 
ENDROOT
BRANCH   4   7
ATOM      7  C   UNL     1       0.763  10.340  19.456  0.00  0.00    +0.000 C 
ATOM      8  C   UNL     1       1.459  11.535  18.732  0.00  0.00    +0.000 C 
ATOM      9  C   UNL     1       0.726  12.860  18.966  0.00  0.00    +0.000 C 
ATOM     10  C   UNL     1      -0.706  12.736  18.434  0.00  0.00    +0.000 C 
ATOM     11  C   UNL     1      -1.440  11.609  19.176  0.00  0.00    +0.000 C 
ATOM     12  C   UNL     1      -1.457  11.923  20.682  0.00  0.00    +0.000 C 
ATOM     13  C   UNL     1      -0.019  12.025  21.214  0.00  0.00    +0.000 C 
ATOM     14  C   UNL     1       0.706  13.158  20.470  0.00  0.00    +0.000 C 
ATOM     15  C   UNL     1       0.718  10.688  20.973  0.00  0.00    +0.000 C 
ATOM     16  C   UNL     1      -0.706  10.276  18.941  0.00  0.00    +0.000 C 
ENDBRANCH   4   7
BRANCH   1  17
ATOM     17  N   UNL     1       3.366   5.258  18.386  0.00  0.00    +0.000 N 
BRANCH  17  19
ATOM     18  C   UNL     1       1.899   3.287  19.567  0.00  0.00    +0.000 C 
ATOM     19  S   UNL     1       2.381   3.950  17.985  0.00  0.00    +0.000 S 
ATOM     20  O   UNL     1       3.218   2.963  17.331  0.00  0.00    +0.000 OA
ATOM     21  O   UNL     1       1.172   4.431  17.351  0.00  0.00    +0.000 OA
ENDBRANCH  17  19
BRANCH  17  22
ATOM     22  C   UNL     1       4.793   5.261  18.012  0.00  0.00    +0.000 C 
BRANCH  22  23
ATOM     23  C   UNL     1       5.706   4.677  19.074  0.00  0.00    +0.000 C 
ATOM     24  O   UNL     1       6.514   5.309  19.741  0.00  0.00    +0.000 OA
BRANCH  23  25
ATOM     25  O   UNL     1       5.563   3.338  19.236  0.00  0.00    +0.000 OA
ATOM     26  H   UNL     1       4.964   2.900  18.602  0.00  0.00    +0.000 HD
ENDBRANCH  23  25
ENDBRANCH  22  23
ENDBRANCH  17  22
ENDBRANCH   1  17
TORSDOF 6
ENDMDL
MODEL 6
REMARK VINA RESULT:      -7.8      4.189      8.009
REMARK  Name = 
REMARK  7 active torsions:
REMARK  status: ('A' for Active; 'I' for Inactive)
REMARK    1  A    between atoms: C_1  and  S_2
REMARK    2  A    between atoms: S_2  and  N_5
REMARK    3  A    between atoms: N_5  and  C_6
REMARK    4  A    between atoms: N_5  and  C_10
REMARK    5  A    between atoms: C_6  and  C_7
REMARK    6  A    between atoms: C_7  and  O_9
REMARK    7  A    between atoms: C_13  and  C_14
REMARK                            x       y       z     vdW  Elec       q    Type
REMARK                         _______ _______ _______ _____ _____    ______ ____
ROOT
ATOM      1  C   UNL     1       2.759   6.574  18.667  0.00  0.00    +0.000 A 
ATOM      2  C   UNL     1       2.637   7.510  17.653  0.00  0.00    +0.000 A 
ATOM      3  C   UNL     1       2.004   8.732  17.900  0.00  0.00    +0.000 A 
ATOM      4  C   UNL     1       1.456   9.048  19.159  0.00  0.00    +0.000 A 
ATOM      5  C   UNL     1       1.591   8.079  20.172  0.00  0.00    +0.000 A 
ATOM      6  C   UNL     1       2.229   6.849  19.928  0.00  0.00    +0.000 A 
ENDROOT
BRANCH   4   7
ATOM      7  C   UNL     1       0.718  10.379  19.414  0.00  0.00    +0.000 C 
ATOM      8  C   UNL     1       0.620  10.725  20.933  0.00  0.00    +0.000 C 
ATOM      9  C   UNL     1      -0.081  12.065  21.178  0.00  0.00    +0.000 C 
ATOM     10  C   UNL     1       0.710  13.175  20.475  0.00  0.00    +0.000 C 
ATOM     11  C   UNL     1       0.766  12.897  18.966  0.00  0.00    +0.000 C 
ATOM     12  C   UNL     1      -0.666  12.832  18.411  0.00  0.00    +0.000 C 
ATOM     13  C   UNL     1      -1.449  11.704  19.103  0.00  0.00    +0.000 C 
ATOM     14  C   UNL     1      -1.504  11.992  20.612  0.00  0.00    +0.000 C 
ATOM     15  C   UNL     1      -0.736  10.354  18.857  0.00  0.00    +0.000 C 
ATOM     16  C   UNL     1       1.472  11.550  18.718  0.00  0.00    +0.000 C 
ENDBRANCH   4   7
BRANCH   1  17
ATOM     17  N   UNL     1       3.418   5.342  18.376  0.00  0.00    +0.000 N 
BRANCH  17  19
ATOM     18  C   UNL     1       2.095   3.258  19.533  0.00  0.00    +0.000 C 
ATOM     19  S   UNL     1       2.460   4.017  17.963  0.00  0.00    +0.000 S 
ATOM     20  O   UNL     1       3.293   3.097  17.212  0.00  0.00    +0.000 OA
ATOM     21  O   UNL     1       1.199   4.481  17.424  0.00  0.00    +0.000 OA
ENDBRANCH  17  19
BRANCH  17  22
ATOM     22  C   UNL     1       4.849   5.368  18.018  0.00  0.00    +0.000 C 
BRANCH  22  23
ATOM     23  C   UNL     1       5.754   4.747  19.066  0.00  0.00    +0.000 C 
ATOM     24  O   UNL     1       6.544   5.357  19.774  0.00  0.00    +0.000 OA
BRANCH  23  25
ATOM     25  O   UNL     1       5.626   3.400  19.163  0.00  0.00    +0.000 OA
ATOM     26  H   UNL     1       4.715   3.072  19.283  0.00  0.00    +0.000 HD
ENDBRANCH  23  25
ENDBRANCH  22  23
ENDBRANCH  17  22
ENDBRANCH   1  17
TORSDOF 6
ENDMDL
MODEL 7
REMARK VINA RESULT:      -7.7      0.714      1.794
REMARK  Name = 
REMARK  7 active torsions:
REMARK  status: ('A' for Active; 'I' for Inactive)
REMARK    1  A    between atoms: C_1  and  S_2
REMARK    2  A    between atoms: S_2  and  N_5
REMARK    3  A    between atoms: N_5  and  C_6
REMARK    4  A    between atoms: N_5  and  C_10
REMARK    5  A    between atoms: C_6  and  C_7
REMARK    6  A    between atoms: C_7  and  O_9
REMARK    7  A    between atoms: C_13  and  C_14
REMARK                            x       y       z     vdW  Elec       q    Type
REMARK                         _______ _______ _______ _____ _____    ______ ____
ROOT
ATOM      1  C   UNL     1       0.870   9.730  19.292  0.00  0.00    +0.000 A 
ATOM      2  C   UNL     1       1.151   8.813  20.292  0.00  0.00    +0.000 A 
ATOM      3  C   UNL     1       1.928   7.685  20.010  0.00  0.00    +0.000 A 
ATOM      4  C   UNL     1       2.429   7.428  18.719  0.00  0.00    +0.000 A 
ATOM      5  C   UNL     1       2.127   8.374  17.719  0.00  0.00    +0.000 A 
ATOM      6  C   UNL     1       1.348   9.511  18.000  0.00  0.00    +0.000 A 
ENDROOT
BRANCH   4   7
ATOM      7  C   UNL     1       3.247   6.158  18.402  0.00  0.00    +0.000 C 
ATOM      8  C   UNL     1       2.369   5.023  17.788  0.00  0.00    +0.000 C 
ATOM      9  C   UNL     1       3.192   3.777  17.441  0.00  0.00    +0.000 C 
ATOM     10  C   UNL     1       4.272   4.164  16.424  0.00  0.00    +0.000 C 
ATOM     11  C   UNL     1       5.194   5.233  17.026  0.00  0.00    +0.000 C 
ATOM     12  C   UNL     1       5.843   4.679  18.305  0.00  0.00    +0.000 C 
ATOM     13  C   UNL     1       4.757   4.313  19.330  0.00  0.00    +0.000 C 
ATOM     14  C   UNL     1       3.842   3.240  18.721  0.00  0.00    +0.000 C 
ATOM     15  C   UNL     1       3.927   5.572  19.674  0.00  0.00    +0.000 C 
ATOM     16  C   UNL     1       4.369   6.487  17.373  0.00  0.00    +0.000 C 
ENDBRANCH   4   7
BRANCH   1  17
ATOM     17  N   UNL     1       0.080  10.872  19.623  0.00  0.00    +0.000 N 
BRANCH  17  19
ATOM     18  C   UNL     1       2.065  12.454  18.629  0.00  0.00    +0.000 C 
ATOM     19  S   UNL     1       0.887  12.314  19.958  0.00  0.00    +0.000 S 
ATOM     20  O   UNL     1       1.631  12.118  21.187  0.00  0.00    +0.000 OA
ATOM     21  O   UNL     1      -0.030  13.426  19.818  0.00  0.00    +0.000 OA
ENDBRANCH  17  19
BRANCH  17  22
ATOM     22  C   UNL     1      -1.346  10.885  19.244  0.00  0.00    +0.000 C 
BRANCH  22  23
ATOM     23  C   UNL     1      -1.583  11.084  17.759  0.00  0.00    +0.000 C 
ATOM     24  O   UNL     1      -1.866  10.201  16.960  0.00  0.00    +0.000 OA
BRANCH  23  25
ATOM     25  O   UNL     1      -1.445  12.372  17.356  0.00  0.00    +0.000 OA
ATOM     26  H   UNL     1      -0.715  12.541  16.730  0.00  0.00    +0.000 HD
ENDBRANCH  23  25
ENDBRANCH  22  23
ENDBRANCH  17  22
ENDBRANCH   1  17
TORSDOF 6
ENDMDL
MODEL 8
REMARK VINA RESULT:      -7.7      0.999      1.889
REMARK  Name = 
REMARK  7 active torsions:
REMARK  status: ('A' for Active; 'I' for Inactive)
REMARK    1  A    between atoms: C_1  and  S_2
REMARK    2  A    between atoms: S_2  and  N_5
REMARK    3  A    between atoms: N_5  and  C_6
REMARK    4  A    between atoms: N_5  and  C_10
REMARK    5  A    between atoms: C_6  and  C_7
REMARK    6  A    between atoms: C_7  and  O_9
REMARK    7  A    between atoms: C_13  and  C_14
REMARK                            x       y       z     vdW  Elec       q    Type
REMARK                         _______ _______ _______ _____ _____    ______ ____
ROOT
ATOM      1  C   UNL     1       1.057   9.890  19.099  0.00  0.00    +0.000 A 
ATOM      2  C   UNL     1       1.200   9.066  20.203  0.00  0.00    +0.000 A 
ATOM      3  C   UNL     1       1.792   7.806  20.066  0.00  0.00    +0.000 A 
ATOM      4  C   UNL     1       2.238   7.324  18.820  0.00  0.00    +0.000 A 
ATOM      5  C   UNL     1       2.079   8.179  17.712  0.00  0.00    +0.000 A 
ATOM      6  C   UNL     1       1.486   9.448  17.847  0.00  0.00    +0.000 A 
ENDROOT
BRANCH   4   7
ATOM      7  C   UNL     1       2.848   5.914  18.665  0.00  0.00    +0.000 C 
ATOM      8  C   UNL     1       1.955   4.970  17.800  0.00  0.00    +0.000 C 
ATOM      9  C   UNL     1       2.581   3.584  17.618  0.00  0.00    +0.000 C 
ATOM     10  C   UNL     1       3.940   3.741  16.925  0.00  0.00    +0.000 C 
ATOM     11  C   UNL     1       4.866   4.611  17.787  0.00  0.00    +0.000 C 
ATOM     12  C   UNL     1       5.045   3.949  19.163  0.00  0.00    +0.000 C 
ATOM     13  C   UNL     1       3.683   3.814  19.863  0.00  0.00    +0.000 C 
ATOM     14  C   UNL     1       2.765   2.938  18.996  0.00  0.00    +0.000 C 
ATOM     15  C   UNL     1       3.052   5.214  20.041  0.00  0.00    +0.000 C 
ATOM     16  C   UNL     1       4.238   6.006  17.969  0.00  0.00    +0.000 C 
ENDBRANCH   4   7
BRANCH   1  17
ATOM     17  N   UNL     1       0.455  11.171  19.283  0.00  0.00    +0.000 N 
BRANCH  17  19
ATOM     18  C   UNL     1       1.954  13.038  20.586  0.00  0.00    +0.000 C 
ATOM     19  S   UNL     1       1.398  12.533  18.971  0.00  0.00    +0.000 S 
ATOM     20  O   UNL     1       0.513  13.566  18.469  0.00  0.00    +0.000 OA
ATOM     21  O   UNL     1       2.578  12.146  18.228  0.00  0.00    +0.000 OA
ENDBRANCH  17  19
BRANCH  17  22
ATOM     22  C   UNL     1      -1.017  11.269  19.300  0.00  0.00    +0.000 C 
BRANCH  22  23
ATOM     23  C   UNL     1      -1.667  10.955  17.965  0.00  0.00    +0.000 C 
ATOM     24  O   UNL     1      -2.183   9.889  17.660  0.00  0.00    +0.000 OA
BRANCH  23  25
ATOM     25  O   UNL     1      -1.626  11.988  17.086  0.00  0.00    +0.000 OA
ATOM     26  H   UNL     1      -1.768  12.874  17.472  0.00  0.00    +0.000 HD
ENDBRANCH  23  25
ENDBRANCH  22  23
ENDBRANCH  17  22
ENDBRANCH   1  17
TORSDOF 6
ENDMDL
MODEL 9
REMARK VINA RESULT:      -7.6      4.175      7.966
REMARK  Name = 
REMARK  7 active torsions:
REMARK  status: ('A' for Active; 'I' for Inactive)
REMARK    1  A    between atoms: C_1  and  S_2
REMARK    2  A    between atoms: S_2  and  N_5
REMARK    3  A    between atoms: N_5  and  C_6
REMARK    4  A    between atoms: N_5  and  C_10
REMARK    5  A    between atoms: C_6  and  C_7
REMARK    6  A    between atoms: C_7  and  O_9
REMARK    7  A    between atoms: C_13  and  C_14
REMARK                            x       y       z     vdW  Elec       q    Type
REMARK                         _______ _______ _______ _____ _____    ______ ____
ROOT
ATOM      1  C   UNL     1       2.880   6.744  18.560  0.00  0.00    +0.000 A 
ATOM      2  C   UNL     1       2.304   6.954  19.802  0.00  0.00    +0.000 A 
ATOM      3  C   UNL     1       1.606   8.138  20.059  0.00  0.00    +0.000 A 
ATOM      4  C   UNL     1       1.480   9.155  19.093  0.00  0.00    +0.000 A 
ATOM      5  C   UNL     1       2.076   8.918  17.839  0.00  0.00    +0.000 A 
ATOM      6  C   UNL     1       2.777   7.727  17.576  0.00  0.00    +0.000 A 
ENDROOT
BRANCH   4   7
ATOM      7  C   UNL     1       0.748  10.479  19.397  0.00  0.00    +0.000 C 
ATOM      8  C   UNL     1       1.487  11.719  18.800  0.00  0.00    +0.000 C 
ATOM      9  C   UNL     1       0.738  13.027  19.073  0.00  0.00    +0.000 C 
ATOM     10  C   UNL     1      -0.657  12.941  18.443  0.00  0.00    +0.000 C 
ATOM     11  C   UNL     1      -1.435  11.769  19.061  0.00  0.00    +0.000 C 
ATOM     12  C   UNL     1      -1.549  11.983  20.579  0.00  0.00    +0.000 C 
ATOM     13  C   UNL     1      -0.148  12.048  21.209  0.00  0.00    +0.000 C 
ATOM     14  C   UNL     1       0.620  13.225  20.589  0.00  0.00    +0.000 C 
ATOM     15  C   UNL     1       0.606  10.727  20.928  0.00  0.00    +0.000 C 
ATOM     16  C   UNL     1      -0.684  10.452  18.786  0.00  0.00    +0.000 C 
ENDBRANCH   4   7
BRANCH   1  17
ATOM     17  N   UNL     1       3.577   5.518  18.335  0.00  0.00    +0.000 N 
BRANCH  17  19
ATOM     18  C   UNL     1       2.487   3.336  19.552  0.00  0.00    +0.000 C 
ATOM     19  S   UNL     1       2.661   4.149  17.977  0.00  0.00    +0.000 S 
ATOM     20  O   UNL     1       3.472   3.296  17.129  0.00  0.00    +0.000 OA
ATOM     21  O   UNL     1       1.332   4.548  17.567  0.00  0.00    +0.000 OA
ENDBRANCH  17  19
BRANCH  17  22
ATOM     22  C   UNL     1       5.011   5.569  17.993  0.00  0.00    +0.000 C 
BRANCH  22  23
ATOM     23  C   UNL     1       5.905   4.862  18.995  0.00  0.00    +0.000 C 
ATOM     24  O   UNL     1       6.615   5.413  19.825  0.00  0.00    +0.000 OA
BRANCH  23  25
ATOM     25  O   UNL     1       5.868   3.510  18.896  0.00  0.00    +0.000 OA
ATOM     26  H   UNL     1       5.294   3.155  18.190  0.00  0.00    +0.000 HD
ENDBRANCH  23  25
ENDBRANCH  22  23
ENDBRANCH  17  22
ENDBRANCH   1  17
TORSDOF 6
ENDMDL
