MODEL 1
REMARK VINA RESULT:      -8.1      0.000      0.000
REMARK  Name = 
REMARK  10 active torsions:
REMARK  status: ('A' for Active; 'I' for Inactive)
REMARK    1  A    between atoms: C_1  and  C_2
REMARK    2  A    between atoms: C_5  and  S_6
REMARK    3  A    between atoms: S_6  and  N_9
REMARK    4  A    between atoms: C_18  and  C_19
REMARK    5  A    between atoms: C_19  and  C_20
REMARK    6  A    between atoms: N_22  and  C_23
REMARK    7  A    between atoms: C_23  and  C_24
REMARK    8  A    between atoms: C_24  and  C_25
REMARK    9  A    between atoms: C_25  and  C_26
REMARK   10  A    between atoms: C_26  and  N_27
REMARK                            x       y       z     vdW  Elec       q    Type
REMARK                         _______ _______ _______ _____ _____    ______ ____
ROOT
ATOM      1  N   UNL     1       1.760   8.172  19.172  0.00  0.00    +0.000 NA
ATOM      2  C   UNL     1       1.324   8.076  20.602  0.00  0.00    +0.000 C 
ATOM      3  C   UNL     1       1.264   6.649  21.180  0.00  0.00    +0.000 C 
ATOM      4  C   UNL     1       1.470   5.526  20.203  0.00  0.00    +0.000 A 
ATOM      5  C   UNL     1       1.051   4.226  20.521  0.00  0.00    +0.000 A 
ATOM      6  C   UNL     1       1.145   3.209  19.575  0.00  0.00    +0.000 A 
ATOM      7  C   UNL     1       1.612   3.496  18.297  0.00  0.00    +0.000 A 
ATOM      8  C   UNL     1       2.082   4.775  17.995  0.00  0.00    +0.000 A 
ATOM      9  C   UNL     1       2.097   5.781  18.971  0.00  0.00    +0.000 A 
ATOM     10  C   UNL     1       2.789   7.142  18.829  0.00  0.00    +0.000 C 
ENDROOT
BRANCH   1  11
ATOM     11  S   UNL     1       1.646   9.712  18.495  0.00  0.00    +0.000 S 
ATOM     12  O   UNL     1       2.104   9.611  17.124  0.00  0.00    +0.000 OA
ATOM     13  O   UNL     1       2.239  10.700  19.374  0.00  0.00    +0.000 OA
BRANCH  11  18
ATOM     14  C   UNL     1      -4.091  11.459  17.623  0.00  0.00    +0.000 C 
ATOM     15  C   UNL     1      -2.745  10.895  17.963  0.00  0.00    +0.000 A 
ATOM     16  C   UNL     1      -2.013  11.395  19.050  0.00  0.00    +0.000 A 
ATOM     17  C   UNL     1      -0.696  10.983  19.271  0.00  0.00    +0.000 A 
ATOM     18  C   UNL     1      -0.108  10.054  18.413  0.00  0.00    +0.000 A 
ATOM     19  C   UNL     1      -0.848   9.510  17.350  0.00  0.00    +0.000 A 
ATOM     20  C   UNL     1      -2.160   9.933  17.130  0.00  0.00    +0.000 A 
ENDBRANCH  11  18
ENDBRANCH   1  11
BRANCH  10  21
ATOM     21  C   UNL     1       3.544   7.337  17.511  0.00  0.00    +0.000 C 
BRANCH  21  22
ATOM     22  C   UNL     1       4.917   6.684  17.511  0.00  0.00    +0.000 C 
ATOM     23  O   UNL     1       5.491   6.279  18.515  0.00  0.00    +0.000 OA
ATOM     24  N   UNL     1       5.465   6.614  16.251  0.00  0.00    +0.000 N 
ATOM     25  H   UNL     1       4.934   6.969  15.462  0.00  0.00    +0.000 HD
BRANCH  24  26
ATOM     26  C   UNL     1       6.716   5.928  15.987  0.00  0.00    +0.000 C 
BRANCH  26  27
ATOM     27  C   UNL     1       6.566   4.411  16.098  0.00  0.00    +0.000 C 
BRANCH  27  28
ATOM     28  C   UNL     1       5.792   3.817  14.918  0.00  0.00    +0.000 C 
BRANCH  28  29
ATOM     29  C   UNL     1       6.401   4.233  13.581  0.00  0.00    +0.000 C 
BRANCH  29  30
ATOM     30  N   UNL     1       6.537   3.075  12.719  0.00  0.00    +0.000 N 
ATOM     31  C   UNL     1       5.564   2.639  11.890  0.00  0.00    +0.000 C 
ATOM     32  N   UNL     1       4.461   3.211  11.587  0.00  0.00    +0.000 NA
ATOM     33  N   UNL     1       5.870   1.450  11.336  0.00  0.00    +0.000 N 
ATOM     34  H   UNL     1       7.082   2.316  13.112  0.00  0.00    +0.000 HD
ATOM     35  H   UNL     1       4.387   4.097  12.087  0.00  0.00    +0.000 HD
ATOM     36  H   UNL     1       6.827   1.390  11.015  0.00  0.00    +0.000 HD
ATOM     37  H   UNL     1       5.224   1.264  10.574  0.00  0.00    +0.000 HD
ENDBRANCH  29  30
ENDBRANCH  28  29
ENDBRANCH  27  28
ENDBRANCH  26  27
ENDBRANCH  24  26
ENDBRANCH  21  22
ENDBRANCH  10  21
TORSDOF 9
ENDMDL
MODEL 2
REMARK VINA RESULT:      -7.9      3.406      4.921
REMARK  Name = 
REMARK  10 active torsions:
REMARK  status: ('A' for Active; 'I' for Inactive)
REMARK    1  A    between atoms: C_1  and  C_2
REMARK    2  A    between atoms: C_5  and  S_6
REMARK    3  A    between atoms: S_6  and  N_9
REMARK    4  A    between atoms: C_18  and  C_19
REMARK    5  A    between atoms: C_19  and  C_20
REMARK    6  A    between atoms: N_22  and  C_23
REMARK    7  A    between atoms: C_23  and  C_24
REMARK    8  A    between atoms: C_24  and  C_25
REMARK    9  A    between atoms: C_25  and  C_26
REMARK   10  A    between atoms: C_26  and  N_27
REMARK                            x       y       z     vdW  Elec       q    Type
REMARK                         _______ _______ _______ _____ _____    ______ ____
ROOT
ATOM      1  N   UNL     1       1.691   8.299  19.962  0.00  0.00    +0.000 NA
ATOM      2  C   UNL     1       1.443   8.905  18.614  0.00  0.00    +0.000 C 
ATOM      3  C   UNL     1       2.272   8.311  17.460  0.00  0.00    +0.000 C 
ATOM      4  C   UNL     1       3.348   7.333  17.847  0.00  0.00    +0.000 A 
ATOM      5  C   UNL     1       4.394   7.046  16.959  0.00  0.00    +0.000 A 
ATOM      6  C   UNL     1       5.445   6.224  17.358  0.00  0.00    +0.000 A 
ATOM      7  C   UNL     1       5.477   5.727  18.656  0.00  0.00    +0.000 A 
ATOM      8  C   UNL     1       4.411   5.966  19.524  0.00  0.00    +0.000 A 
ATOM      9  C   UNL     1       3.293   6.699  19.099  0.00  0.00    +0.000 A 
ATOM     10  C   UNL     1       1.977   6.833  19.873  0.00  0.00    +0.000 C 
ENDROOT
BRANCH   1  11
ATOM     11  S   UNL     1       0.920   9.075  21.244  0.00  0.00    +0.000 S 
ATOM     12  O   UNL     1       1.926   9.337  22.252  0.00  0.00    +0.000 OA
ATOM     13  O   UNL     1      -0.291   8.368  21.613  0.00  0.00    +0.000 OA
BRANCH  11  18
ATOM     14  C   UNL     1      -0.900  14.688  19.864  0.00  0.00    +0.000 C 
ATOM     15  C   UNL     1      -0.412  13.279  20.015  0.00  0.00    +0.000 A 
ATOM     16  C   UNL     1      -1.292  12.197  19.870  0.00  0.00    +0.000 A 
ATOM     17  C   UNL     1      -0.876  10.896  20.167  0.00  0.00    +0.000 A 
ATOM     18  C   UNL     1       0.432  10.669  20.596  0.00  0.00    +0.000 A 
ATOM     19  C   UNL     1       1.336  11.739  20.698  0.00  0.00    +0.000 A 
ATOM     20  C   UNL     1       0.911  13.037  20.409  0.00  0.00    +0.000 A 
ENDBRANCH  11  18
ENDBRANCH   1  11
BRANCH  10  21
ATOM     21  C   UNL     1       1.926   6.043  21.184  0.00  0.00    +0.000 C 
BRANCH  21  22
ATOM     22  C   UNL     1       1.870   4.539  20.969  0.00  0.00    +0.000 C 
ATOM     23  O   UNL     1       2.568   3.728  21.566  0.00  0.00    +0.000 OA
ATOM     24  N   UNL     1       0.960   4.179  20.002  0.00  0.00    +0.000 N 
ATOM     25  H   UNL     1       0.413   4.903  19.546  0.00  0.00    +0.000 HD
BRANCH  24  26
ATOM     26  C   UNL     1       0.649   2.794  19.707  0.00  0.00    +0.000 C 
BRANCH  26  27
ATOM     27  C   UNL     1       1.073   2.405  18.291  0.00  0.00    +0.000 C 
BRANCH  27  28
ATOM     28  C   UNL     1       1.932   3.486  17.626  0.00  0.00    +0.000 C 
BRANCH  28  29
ATOM     29  C   UNL     1       3.344   2.982  17.339  0.00  0.00    +0.000 C 
BRANCH  29  30
ATOM     30  N   UNL     1       4.094   2.887  18.576  0.00  0.00    +0.000 N 
ATOM     31  C   UNL     1       4.447   1.717  19.151  0.00  0.00    +0.000 C 
ATOM     32  N   UNL     1       4.347   0.534  18.674  0.00  0.00    +0.000 NA
ATOM     33  N   UNL     1       4.977   1.897  20.375  0.00  0.00    +0.000 N 
ATOM     34  H   UNL     1       3.881   3.607  19.257  0.00  0.00    +0.000 HD
ATOM     35  H   UNL     1       3.931   0.575  17.743  0.00  0.00    +0.000 HD
ATOM     36  H   UNL     1       5.635   2.663  20.420  0.00  0.00    +0.000 HD
ATOM     37  H   UNL     1       5.414   1.031  20.678  0.00  0.00    +0.000 HD
ENDBRANCH  29  30
ENDBRANCH  28  29
ENDBRANCH  27  28
ENDBRANCH  26  27
ENDBRANCH  24  26
ENDBRANCH  21  22
ENDBRANCH  10  21
TORSDOF 9
ENDMDL
MODEL 3
REMARK VINA RESULT:      -7.7      0.908      1.110
REMARK  Name = 
REMARK  10 active torsions:
REMARK  status: ('A' for Active; 'I' for Inactive)
REMARK    1  A    between atoms: C_1  and  C_2
REMARK    2  A    between atoms: C_5  and  S_6
REMARK    3  A    between atoms: S_6  and  N_9
REMARK    4  A    between atoms: C_18  and  C_19
REMARK    5  A    between atoms: C_19  and  C_20
REMARK    6  A    between atoms: N_22  and  C_23
REMARK    7  A    between atoms: C_23  and  C_24
REMARK    8  A    between atoms: C_24  and  C_25
REMARK    9  A    between atoms: C_25  and  C_26
REMARK   10  A    between atoms: C_26  and  N_27
REMARK                            x       y       z     vdW  Elec       q    Type
REMARK                         _______ _______ _______ _____ _____    ______ ____
ROOT
ATOM      1  N   UNL     1       1.834   8.078  19.113  0.00  0.00    +0.000 NA
ATOM      2  C   UNL     1       1.501   7.978  20.570  0.00  0.00    +0.000 C 
ATOM      3  C   UNL     1       1.446   6.548  21.140  0.00  0.00    +0.000 C 
ATOM      4  C   UNL     1       1.553   5.429  20.141  0.00  0.00    +0.000 A 
ATOM      5  C   UNL     1       1.126   4.137  20.478  0.00  0.00    +0.000 A 
ATOM      6  C   UNL     1       1.125   3.127  19.520  0.00  0.00    +0.000 A 
ATOM      7  C   UNL     1       1.506   3.416  18.214  0.00  0.00    +0.000 A 
ATOM      8  C   UNL     1       1.984   4.685  17.888  0.00  0.00    +0.000 A 
ATOM      9  C   UNL     1       2.095   5.682  18.869  0.00  0.00    +0.000 A 
ATOM     10  C   UNL     1       2.809   7.026  18.689  0.00  0.00    +0.000 C 
ENDROOT
BRANCH   1  11
ATOM     11  S   UNL     1       1.711   9.626  18.459  0.00  0.00    +0.000 S 
ATOM     12  O   UNL     1       2.118   9.538  17.072  0.00  0.00    +0.000 OA
ATOM     13  O   UNL     1       2.345  10.598  19.328  0.00  0.00    +0.000 OA
BRANCH  11  18
ATOM     14  C   UNL     1      -4.031  11.466  17.849  0.00  0.00    +0.000 C 
ATOM     15  C   UNL     1      -2.682  10.872  18.118  0.00  0.00    +0.000 A 
ATOM     16  C   UNL     1      -1.918  11.297  19.215  0.00  0.00    +0.000 A 
ATOM     17  C   UNL     1      -0.599  10.863  19.375  0.00  0.00    +0.000 A 
ATOM     18  C   UNL     1      -0.042   9.986  18.445  0.00  0.00    +0.000 A 
ATOM     19  C   UNL     1      -0.814   9.515  17.370  0.00  0.00    +0.000 A 
ATOM     20  C   UNL     1      -2.127   9.960  17.211  0.00  0.00    +0.000 A 
ENDBRANCH  11  18
ENDBRANCH   1  11
BRANCH  10  21
ATOM     21  C   UNL     1       3.472   7.216  17.321  0.00  0.00    +0.000 C 
BRANCH  21  22
ATOM     22  C   UNL     1       4.978   7.012  17.358  0.00  0.00    +0.000 C 
ATOM     23  O   UNL     1       5.786   7.707  16.754  0.00  0.00    +0.000 OA
ATOM     24  N   UNL     1       5.344   5.934  18.132  0.00  0.00    +0.000 N 
ATOM     25  H   UNL     1       4.622   5.400  18.606  0.00  0.00    +0.000 HD
BRANCH  24  26
ATOM     26  C   UNL     1       6.731   5.615  18.410  0.00  0.00    +0.000 C 
BRANCH  26  27
ATOM     27  C   UNL     1       7.262   4.528  17.476  0.00  0.00    +0.000 C 
BRANCH  27  28
ATOM     28  C   UNL     1       6.256   4.161  16.382  0.00  0.00    +0.000 C 
BRANCH  28  29
ATOM     29  C   UNL     1       6.808   4.456  14.990  0.00  0.00    +0.000 C 
BRANCH  29  30
ATOM     30  N   UNL     1       6.174   3.591  14.014  0.00  0.00    +0.000 N 
ATOM     31  C   UNL     1       6.388   3.677  12.684  0.00  0.00    +0.000 C 
ATOM     32  N   UNL     1       7.260   4.377  12.062  0.00  0.00    +0.000 NA
ATOM     33  N   UNL     1       5.550   2.887  11.986  0.00  0.00    +0.000 N 
ATOM     34  H   UNL     1       5.221   3.326  14.238  0.00  0.00    +0.000 HD
ATOM     35  H   UNL     1       7.811   4.912  12.733  0.00  0.00    +0.000 HD
ATOM     36  H   UNL     1       5.438   1.966  12.387  0.00  0.00    +0.000 HD
ATOM     37  H   UNL     1       5.878   2.822  11.026  0.00  0.00    +0.000 HD
ENDBRANCH  29  30
ENDBRANCH  28  29
ENDBRANCH  27  28
ENDBRANCH  26  27
ENDBRANCH  24  26
ENDBRANCH  21  22
ENDBRANCH  10  21
TORSDOF 9
ENDMDL
MODEL 4
REMARK VINA RESULT:      -7.7      2.041      2.819
REMARK  Name = 
REMARK  10 active torsions:
REMARK  status: ('A' for Active; 'I' for Inactive)
REMARK    1  A    between atoms: C_1  and  C_2
REMARK    2  A    between atoms: C_5  and  S_6
REMARK    3  A    between atoms: S_6  and  N_9
REMARK    4  A    between atoms: C_18  and  C_19
REMARK    5  A    between atoms: C_19  and  C_20
REMARK    6  A    between atoms: N_22  and  C_23
REMARK    7  A    between atoms: C_23  and  C_24
REMARK    8  A    between atoms: C_24  and  C_25
REMARK    9  A    between atoms: C_25  and  C_26
REMARK   10  A    between atoms: C_26  and  N_27
REMARK                            x       y       z     vdW  Elec       q    Type
REMARK                         _______ _______ _______ _____ _____    ______ ____
ROOT
ATOM      1  N   UNL     1       1.614   8.546  19.257  0.00  0.00    +0.000 NA
ATOM      2  C   UNL     1       1.437   8.369  20.734  0.00  0.00    +0.000 C 
ATOM      3  C   UNL     1       1.517   6.916  21.240  0.00  0.00    +0.000 C 
ATOM      4  C   UNL     1       1.581   5.846  20.184  0.00  0.00    +0.000 A 
ATOM      5  C   UNL     1       1.259   4.519  20.503  0.00  0.00    +0.000 A 
ATOM      6  C   UNL     1       1.214   3.550  19.504  0.00  0.00    +0.000 A 
ATOM      7  C   UNL     1       1.444   3.913  18.181  0.00  0.00    +0.000 A 
ATOM      8  C   UNL     1       1.818   5.220  17.868  0.00  0.00    +0.000 A 
ATOM      9  C   UNL     1       1.976   6.180  18.878  0.00  0.00    +0.000 A 
ATOM     10  C   UNL     1       2.595   7.570  18.689  0.00  0.00    +0.000 C 
ENDROOT
BRANCH   1  11
ATOM     11  S   UNL     1       1.342  10.110  18.690  0.00  0.00    +0.000 S 
ATOM     12  O   UNL     1       1.954  10.203  17.381  0.00  0.00    +0.000 OA
ATOM     13  O   UNL     1       1.682  11.086  19.706  0.00  0.00    +0.000 OA
BRANCH  11  18
ATOM     14  C   UNL     1      -4.459  11.039  17.206  0.00  0.00    +0.000 C 
ATOM     15  C   UNL     1      -3.091  10.671  17.694  0.00  0.00    +0.000 A 
ATOM     16  C   UNL     1      -2.547  11.285  18.831  0.00  0.00    +0.000 A 
ATOM     17  C   UNL     1      -1.216  11.062  19.193  0.00  0.00    +0.000 A 
ATOM     18  C   UNL     1      -0.425  10.207  18.426  0.00  0.00    +0.000 A 
ATOM     19  C   UNL     1      -0.973   9.549  17.313  0.00  0.00    +0.000 A 
ATOM     20  C   UNL     1      -2.300   9.784  16.952  0.00  0.00    +0.000 A 
ENDBRANCH  11  18
ENDBRANCH   1  11
BRANCH  10  21
ATOM     21  C   UNL     1       3.103   7.852  17.273  0.00  0.00    +0.000 C 
BRANCH  21  22
ATOM     22  C   UNL     1       4.483   7.269  17.009  0.00  0.00    +0.000 C 
ATOM     23  O   UNL     1       5.321   7.055  17.876  0.00  0.00    +0.000 OA
ATOM     24  N   UNL     1       4.704   7.026  15.673  0.00  0.00    +0.000 N 
ATOM     25  H   UNL     1       3.964   7.226  15.007  0.00  0.00    +0.000 HD
BRANCH  24  26
ATOM     26  C   UNL     1       5.902   6.363  15.194  0.00  0.00    +0.000 C 
BRANCH  26  27
ATOM     27  C   UNL     1       5.664   4.875  14.936  0.00  0.00    +0.000 C 
BRANCH  27  28
ATOM     28  C   UNL     1       6.811   4.005  15.460  0.00  0.00    +0.000 C 
BRANCH  28  29
ATOM     29  C   UNL     1       7.125   4.313  16.922  0.00  0.00    +0.000 C 
BRANCH  29  30
ATOM     30  N   UNL     1       6.013   3.909  17.760  0.00  0.00    +0.000 N 
ATOM     31  C   UNL     1       5.867   4.291  19.047  0.00  0.00    +0.000 C 
ATOM     32  N   UNL     1       6.540   5.161  19.700  0.00  0.00    +0.000 NA
ATOM     33  N   UNL     1       4.855   3.642  19.654  0.00  0.00    +0.000 N 
ATOM     34  H   UNL     1       5.675   2.968  17.593  0.00  0.00    +0.000 HD
ATOM     35  H   UNL     1       7.261   5.558  19.098  0.00  0.00    +0.000 HD
ATOM     36  H   UNL     1       4.022   3.573  19.084  0.00  0.00    +0.000 HD
ATOM     37  H   UNL     1       4.648   4.101  20.536  0.00  0.00    +0.000 HD
ENDBRANCH  29  30
ENDBRANCH  28  29
ENDBRANCH  27  28
ENDBRANCH  26  27
ENDBRANCH  24  26
ENDBRANCH  21  22
ENDBRANCH  10  21
TORSDOF 9
ENDMDL
MODEL 5
REMARK VINA RESULT:      -7.7      2.765      8.327
REMARK  Name = 
REMARK  10 active torsions:
REMARK  status: ('A' for Active; 'I' for Inactive)
REMARK    1  A    between atoms: C_1  and  C_2
REMARK    2  A    between atoms: C_5  and  S_6
REMARK    3  A    between atoms: S_6  and  N_9
REMARK    4  A    between atoms: C_18  and  C_19
REMARK    5  A    between atoms: C_19  and  C_20
REMARK    6  A    between atoms: N_22  and  C_23
REMARK    7  A    between atoms: C_23  and  C_24
REMARK    8  A    between atoms: C_24  and  C_25
REMARK    9  A    between atoms: C_25  and  C_26
REMARK   10  A    between atoms: C_26  and  N_27
REMARK                            x       y       z     vdW  Elec       q    Type
REMARK                         _______ _______ _______ _____ _____    ______ ____
ROOT
ATOM      1  N   UNL     1       3.848   5.132  17.817  0.00  0.00    +0.000 NA
ATOM      2  C   UNL     1       3.292   4.062  16.928  0.00  0.00    +0.000 C 
ATOM      3  C   UNL     1       2.271   3.117  17.590  0.00  0.00    +0.000 C 
ATOM      4  C   UNL     1       2.092   3.266  19.076  0.00  0.00    +0.000 A 
ATOM      5  C   UNL     1       1.515   2.231  19.825  0.00  0.00    +0.000 A 
ATOM      6  C   UNL     1       1.447   2.324  21.212  0.00  0.00    +0.000 A 
ATOM      7  C   UNL     1       1.998   3.427  21.856  0.00  0.00    +0.000 A 
ATOM      8  C   UNL     1       2.524   4.483  21.111  0.00  0.00    +0.000 A 
ATOM      9  C   UNL     1       2.497   4.453  19.710  0.00  0.00    +0.000 A 
ATOM     10  C   UNL     1       2.832   5.634  18.792  0.00  0.00    +0.000 C 
ENDROOT
BRANCH   1  11
ATOM     11  S   UNL     1       5.096   6.041  17.141  0.00  0.00    +0.000 S 
ATOM     12  O   UNL     1       6.195   6.028  18.085  0.00  0.00    +0.000 OA
ATOM     13  O   UNL     1       4.594   7.309  16.649  0.00  0.00    +0.000 OA
BRANCH  11  18
ATOM     14  C   UNL     1       6.939   3.591  11.914  0.00  0.00    +0.000 C 
ATOM     15  C   UNL     1       6.502   4.017  13.282  0.00  0.00    +0.000 A 
ATOM     16  C   UNL     1       5.153   3.944  13.659  0.00  0.00    +0.000 A 
ATOM     17  C   UNL     1       4.722   4.489  14.871  0.00  0.00    +0.000 A 
ATOM     18  C   UNL     1       5.643   5.097  15.723  0.00  0.00    +0.000 A 
ATOM     19  C   UNL     1       7.004   5.133  15.379  0.00  0.00    +0.000 A 
ATOM     20  C   UNL     1       7.427   4.595  14.162  0.00  0.00    +0.000 A 
ENDBRANCH  11  18
ENDBRANCH   1  11
BRANCH  10  21
ATOM     21  C   UNL     1       3.169   6.935  19.527  0.00  0.00    +0.000 C 
BRANCH  21  22
ATOM     22  C   UNL     1       1.937   7.752  19.883  0.00  0.00    +0.000 C 
ATOM     23  O   UNL     1       1.179   7.494  20.811  0.00  0.00    +0.000 OA
ATOM     24  N   UNL     1       1.745   8.814  19.029  0.00  0.00    +0.000 N 
ATOM     25  H   UNL     1       2.413   8.970  18.280  0.00  0.00    +0.000 HD
BRANCH  24  26
ATOM     26  C   UNL     1       0.704   9.800  19.240  0.00  0.00    +0.000 C 
BRANCH  26  27
ATOM     27  C   UNL     1      -0.253   9.880  18.051  0.00  0.00    +0.000 C 
BRANCH  27  28
ATOM     28  C   UNL     1      -1.629  10.423  18.449  0.00  0.00    +0.000 C 
BRANCH  28  29
ATOM     29  C   UNL     1      -1.988  11.677  17.656  0.00  0.00    +0.000 C 
BRANCH  29  30
ATOM     30  N   UNL     1      -2.279  11.323  16.280  0.00  0.00    +0.000 N 
ATOM     31  C   UNL     1      -3.511  10.993  15.835  0.00  0.00    +0.000 C 
ATOM     32  N   UNL     1      -4.629  11.079  16.451  0.00  0.00    +0.000 NA
ATOM     33  N   UNL     1      -3.484  10.536  14.569  0.00  0.00    +0.000 N 
ATOM     34  H   UNL     1      -1.544  10.807  15.810  0.00  0.00    +0.000 HD
ATOM     35  H   UNL     1      -4.474  11.444  17.391  0.00  0.00    +0.000 HD
ATOM     36  H   UNL     1      -2.891  11.080  13.957  0.00  0.00    +0.000 HD
ATOM     37  H   UNL     1      -4.433  10.500  14.209  0.00  0.00    +0.000 HD
ENDBRANCH  29  30
ENDBRANCH  28  29
ENDBRANCH  27  28
ENDBRANCH  26  27
ENDBRANCH  24  26
ENDBRANCH  21  22
ENDBRANCH  10  21
TORSDOF 9
ENDMDL
MODEL 6
REMARK VINA RESULT:      -7.6      6.553      9.048
REMARK  Name = 
REMARK  10 active torsions:
REMARK  status: ('A' for Active; 'I' for Inactive)
REMARK    1  A    between atoms: C_1  and  C_2
REMARK    2  A    between atoms: C_5  and  S_6
REMARK    3  A    between atoms: S_6  and  N_9
REMARK    4  A    between atoms: C_18  and  C_19
REMARK    5  A    between atoms: C_19  and  C_20
REMARK    6  A    between atoms: N_22  and  C_23
REMARK    7  A    between atoms: C_23  and  C_24
REMARK    8  A    between atoms: C_24  and  C_25
REMARK    9  A    between atoms: C_25  and  C_26
REMARK   10  A    between atoms: C_26  and  N_27
REMARK                            x       y       z     vdW  Elec       q    Type
REMARK                         _______ _______ _______ _____ _____    ______ ____
ROOT
ATOM      1  N   UNL     1      -0.210  13.406  20.371  0.00  0.00    +0.000 NA
ATOM      2  C   UNL     1      -1.099  14.572  20.064  0.00  0.00    +0.000 C 
ATOM      3  C   UNL     1      -0.487  15.646  19.145  0.00  0.00    +0.000 C 
ATOM      4  C   UNL     1       0.972  15.489  18.818  0.00  0.00    +0.000 A 
ATOM      5  C   UNL     1       1.711  16.582  18.342  0.00  0.00    +0.000 A 
ATOM      6  C   UNL     1       3.084  16.465  18.141  0.00  0.00    +0.000 A 
ATOM      7  C   UNL     1       3.728  15.274  18.458  0.00  0.00    +0.000 A 
ATOM      8  C   UNL     1       2.988  14.168  18.879  0.00  0.00    +0.000 A 
ATOM      9  C   UNL     1       1.591  14.238  18.980  0.00  0.00    +0.000 A 
ATOM     10  C   UNL     1       0.659  13.043  19.208  0.00  0.00    +0.000 C 
ENDROOT
BRANCH   1  11
ATOM     11  S   UNL     1      -0.816  12.331  21.519  0.00  0.00    +0.000 S 
ATOM     12  O   UNL     1       0.321  11.738  22.192  0.00  0.00    +0.000 OA
ATOM     13  O   UNL     1      -1.824  11.471  20.930  0.00  0.00    +0.000 OA
BRANCH  11  18
ATOM     14  C   UNL     1      -3.787  16.333  24.965  0.00  0.00    +0.000 C 
ATOM     15  C   UNL     1      -3.028  15.240  24.277  0.00  0.00    +0.000 A 
ATOM     16  C   UNL     1      -1.629  15.281  24.195  0.00  0.00    +0.000 A 
ATOM     17  C   UNL     1      -0.933  14.351  23.419  0.00  0.00    +0.000 A 
ATOM     18  C   UNL     1      -1.635  13.361  22.731  0.00  0.00    +0.000 A 
ATOM     19  C   UNL     1      -3.032  13.280  22.845  0.00  0.00    +0.000 A 
ATOM     20  C   UNL     1      -3.721  14.218  23.615  0.00  0.00    +0.000 A 
ENDBRANCH  11  18
ENDBRANCH   1  11
BRANCH  10  21
ATOM     21  C   UNL     1       1.368  11.687  19.278  0.00  0.00    +0.000 C 
BRANCH  21  22
ATOM     22  C   UNL     1       0.689  10.618  18.437  0.00  0.00    +0.000 C 
ATOM     23  O   UNL     1       1.251   9.621  17.998  0.00  0.00    +0.000 OA
ATOM     24  N   UNL     1      -0.636  10.902  18.195  0.00  0.00    +0.000 N 
ATOM     25  H   UNL     1      -1.038  11.746  18.590  0.00  0.00    +0.000 HD
BRANCH  24  26
ATOM     26  C   UNL     1      -1.516   9.971  17.515  0.00  0.00    +0.000 C 
BRANCH  26  27
ATOM     27  C   UNL     1      -2.341  10.661  16.428  0.00  0.00    +0.000 C 
BRANCH  27  28
ATOM     28  C   UNL     1      -3.055   9.657  15.518  0.00  0.00    +0.000 C 
BRANCH  28  29
ATOM     29  C   UNL     1      -3.251  10.216  14.111  0.00  0.00    +0.000 C 
BRANCH  29  30
ATOM     30  N   UNL     1      -4.520   9.764  13.574  0.00  0.00    +0.000 N 
ATOM     31  C   UNL     1      -4.772   9.636  12.253  0.00  0.00    +0.000 C 
ATOM     32  N   UNL     1      -3.951   9.718  11.275  0.00  0.00    +0.000 NA
ATOM     33  N   UNL     1      -6.070   9.373  12.011  0.00  0.00    +0.000 N 
ATOM     34  H   UNL     1      -5.334  10.065  14.098  0.00  0.00    +0.000 HD
ATOM     35  H   UNL     1      -3.016   9.917  11.629  0.00  0.00    +0.000 HD
ATOM     36  H   UNL     1      -6.465   8.684  12.636  0.00  0.00    +0.000 HD
ATOM     37  H   UNL     1      -6.174   9.081  11.043  0.00  0.00    +0.000 HD
ENDBRANCH  29  30
ENDBRANCH  28  29
ENDBRANCH  27  28
ENDBRANCH  26  27
ENDBRANCH  24  26
ENDBRANCH  21  22
ENDBRANCH  10  21
TORSDOF 9
ENDMDL
MODEL 7
REMARK VINA RESULT:      -7.6      3.154      4.925
REMARK  Name = 
REMARK  10 active torsions:
REMARK  status: ('A' for Active; 'I' for Inactive)
REMARK    1  A    between atoms: C_1  and  C_2
REMARK    2  A    between atoms: C_5  and  S_6
REMARK    3  A    between atoms: S_6  and  N_9
REMARK    4  A    between atoms: C_18  and  C_19
REMARK    5  A    between atoms: C_19  and  C_20
REMARK    6  A    between atoms: N_22  and  C_23
REMARK    7  A    between atoms: C_23  and  C_24
REMARK    8  A    between atoms: C_24  and  C_25
REMARK    9  A    between atoms: C_25  and  C_26
REMARK   10  A    between atoms: C_26  and  N_27
REMARK                            x       y       z     vdW  Elec       q    Type
REMARK                         _______ _______ _______ _____ _____    ______ ____
ROOT
ATOM      1  N   UNL     1       1.852   7.902  19.103  0.00  0.00    +0.000 NA
ATOM      2  C   UNL     1       1.385   7.854  20.526  0.00  0.00    +0.000 C 
ATOM      3  C   UNL     1       1.282   6.446  21.141  0.00  0.00    +0.000 C 
ATOM      4  C   UNL     1       1.484   5.291  20.199  0.00  0.00    +0.000 A 
ATOM      5  C   UNL     1       1.030   4.011  20.543  0.00  0.00    +0.000 A 
ATOM      6  C   UNL     1       1.121   2.965  19.627  0.00  0.00    +0.000 A 
ATOM      7  C   UNL     1       1.621   3.208  18.353  0.00  0.00    +0.000 A 
ATOM      8  C   UNL     1       2.124   4.467  18.025  0.00  0.00    +0.000 A 
ATOM      9  C   UNL     1       2.141   5.500  18.974  0.00  0.00    +0.000 A 
ATOM     10  C   UNL     1       2.865   6.841  18.810  0.00  0.00    +0.000 C 
ENDROOT
BRANCH   1  11
ATOM     11  S   UNL     1       1.786   9.424  18.382  0.00  0.00    +0.000 S 
ATOM     12  O   UNL     1       2.146   9.254  16.990  0.00  0.00    +0.000 OA
ATOM     13  O   UNL     1       2.494  10.400  19.187  0.00  0.00    +0.000 OA
BRANCH  11  18
ATOM     14  C   UNL     1      -3.866  11.549  17.878  0.00  0.00    +0.000 C 
ATOM     15  C   UNL     1      -2.544  10.889  18.123  0.00  0.00    +0.000 A 
ATOM     16  C   UNL     1      -1.737  11.281  19.201  0.00  0.00    +0.000 A 
ATOM     17  C   UNL     1      -0.438  10.782  19.337  0.00  0.00    +0.000 A 
ATOM     18  C   UNL     1       0.054   9.872  18.401  0.00  0.00    +0.000 A 
ATOM     19  C   UNL     1      -0.763   9.435  17.346  0.00  0.00    +0.000 A 
ATOM     20  C   UNL     1      -2.055   9.945  17.211  0.00  0.00    +0.000 A 
ENDBRANCH  11  18
ENDBRANCH   1  11
BRANCH  10  21
ATOM     21  C   UNL     1       3.652   6.984  17.504  0.00  0.00    +0.000 C 
BRANCH  21  22
ATOM     22  C   UNL     1       5.106   6.559  17.637  0.00  0.00    +0.000 C 
ATOM     23  O   UNL     1       5.478   5.524  18.177  0.00  0.00    +0.000 OA
ATOM     24  N   UNL     1       5.974   7.482  17.100  0.00  0.00    +0.000 N 
ATOM     25  H   UNL     1       5.597   8.319  16.667  0.00  0.00    +0.000 HD
BRANCH  24  26
ATOM     26  C   UNL     1       7.401   7.240  17.006  0.00  0.00    +0.000 C 
BRANCH  26  27
ATOM     27  C   UNL     1       8.179   8.010  18.073  0.00  0.00    +0.000 C 
BRANCH  27  28
ATOM     28  C   UNL     1       8.139   9.523  17.841  0.00  0.00    +0.000 C 
BRANCH  28  29
ATOM     29  C   UNL     1       9.128  10.255  18.745  0.00  0.00    +0.000 C 
BRANCH  29  30
ATOM     30  N   UNL     1      10.193  10.829  17.946  0.00  0.00    +0.000 N 
ATOM     31  C   UNL     1      11.209  11.554  18.461  0.00  0.00    +0.000 C 
ATOM     32  N   UNL     1      11.516  11.733  19.690  0.00  0.00    +0.000 NA
ATOM     33  N   UNL     1      11.963  12.120  17.500  0.00  0.00    +0.000 N 
ATOM     34  H   UNL     1       9.908  11.155  17.030  0.00  0.00    +0.000 HD
ATOM     35  H   UNL     1      10.852  11.237  20.284  0.00  0.00    +0.000 HD
ATOM     36  H   UNL     1      12.169  11.497  16.731  0.00  0.00    +0.000 HD
ATOM     37  H   UNL     1      12.820  12.473  17.915  0.00  0.00    +0.000 HD
ENDBRANCH  29  30
ENDBRANCH  28  29
ENDBRANCH  27  28
ENDBRANCH  26  27
ENDBRANCH  24  26
ENDBRANCH  21  22
ENDBRANCH  10  21
TORSDOF 9
ENDMDL
MODEL 8
REMARK VINA RESULT:      -7.6      2.000      2.775
REMARK  Name = 
REMARK  10 active torsions:
REMARK  status: ('A' for Active; 'I' for Inactive)
REMARK    1  A    between atoms: C_1  and  C_2
REMARK    2  A    between atoms: C_5  and  S_6
REMARK    3  A    between atoms: S_6  and  N_9
REMARK    4  A    between atoms: C_18  and  C_19
REMARK    5  A    between atoms: C_19  and  C_20
REMARK    6  A    between atoms: N_22  and  C_23
REMARK    7  A    between atoms: C_23  and  C_24
REMARK    8  A    between atoms: C_24  and  C_25
REMARK    9  A    between atoms: C_25  and  C_26
REMARK   10  A    between atoms: C_26  and  N_27
REMARK                            x       y       z     vdW  Elec       q    Type
REMARK                         _______ _______ _______ _____ _____    ______ ____
ROOT
ATOM      1  N   UNL     1       1.653   8.415  19.128  0.00  0.00    +0.000 NA
ATOM      2  C   UNL     1       1.541   8.360  20.621  0.00  0.00    +0.000 C 
ATOM      3  C   UNL     1       1.739   6.967  21.249  0.00  0.00    +0.000 C 
ATOM      4  C   UNL     1       1.840   5.813  20.290  0.00  0.00    +0.000 A 
ATOM      5  C   UNL     1       1.623   4.503  20.737  0.00  0.00    +0.000 A 
ATOM      6  C   UNL     1       1.611   3.446  19.829  0.00  0.00    +0.000 A 
ATOM      7  C   UNL     1       1.769   3.702  18.472  0.00  0.00    +0.000 A 
ATOM      8  C   UNL     1       2.040   4.998  18.030  0.00  0.00    +0.000 A 
ATOM      9  C   UNL     1       2.166   6.054  18.944  0.00  0.00    +0.000 A 
ATOM     10  C   UNL     1       2.680   7.458  18.609  0.00  0.00    +0.000 C 
ENDROOT
BRANCH   1  11
ATOM     11  S   UNL     1       1.253   9.899  18.438  0.00  0.00    +0.000 S 
ATOM     12  O   UNL     1       0.121   9.673  17.563  0.00  0.00    +0.000 OA
ATOM     13  O   UNL     1       2.437  10.554  17.917  0.00  0.00    +0.000 OA
BRANCH  11  18
ATOM     14  C   UNL     1      -1.171  13.758  22.433  0.00  0.00    +0.000 C 
ATOM     15  C   UNL     1      -0.505  12.705  21.600  0.00  0.00    +0.000 A 
ATOM     16  C   UNL     1       0.838  12.836  21.219  0.00  0.00    +0.000 A 
ATOM     17  C   UNL     1       1.412  11.939  20.313  0.00  0.00    +0.000 A 
ATOM     18  C   UNL     1       0.647  10.894  19.796  0.00  0.00    +0.000 A 
ATOM     19  C   UNL     1      -0.685  10.725  20.208  0.00  0.00    +0.000 A 
ATOM     20  C   UNL     1      -1.254  11.629  21.105  0.00  0.00    +0.000 A 
ENDBRANCH  11  18
ENDBRANCH   1  11
BRANCH  10  21
ATOM     21  C   UNL     1       3.118   7.645  17.153  0.00  0.00    +0.000 C 
BRANCH  21  22
ATOM     22  C   UNL     1       4.500   7.078  16.872  0.00  0.00    +0.000 C 
ATOM     23  O   UNL     1       4.726   6.159  16.093  0.00  0.00    +0.000 OA
ATOM     24  N   UNL     1       5.482   7.696  17.611  0.00  0.00    +0.000 N 
ATOM     25  H   UNL     1       5.225   8.451  18.238  0.00  0.00    +0.000 HD
BRANCH  24  26
ATOM     26  C   UNL     1       6.891   7.403  17.427  0.00  0.00    +0.000 C 
BRANCH  26  27
ATOM     27  C   UNL     1       7.448   6.549  18.565  0.00  0.00    +0.000 C 
BRANCH  27  28
ATOM     28  C   UNL     1       7.023   5.082  18.451  0.00  0.00    +0.000 C 
BRANCH  28  29
ATOM     29  C   UNL     1       7.764   4.369  17.323  0.00  0.00    +0.000 C 
BRANCH  29  30
ATOM     30  N   UNL     1       6.827   3.973  16.291  0.00  0.00    +0.000 N 
ATOM     31  C   UNL     1       6.793   4.522  15.058  0.00  0.00    +0.000 C 
ATOM     32  N   UNL     1       7.628   5.330  14.523  0.00  0.00    +0.000 NA
ATOM     33  N   UNL     1       5.724   4.109  14.351  0.00  0.00    +0.000 N 
ATOM     34  H   UNL     1       5.906   3.719  16.629  0.00  0.00    +0.000 HD
ATOM     35  H   UNL     1       8.375   5.538  15.186  0.00  0.00    +0.000 HD
ATOM     36  H   UNL     1       5.547   3.117  14.431  0.00  0.00    +0.000 HD
ATOM     37  H   UNL     1       5.847   4.373  13.378  0.00  0.00    +0.000 HD
ENDBRANCH  29  30
ENDBRANCH  28  29
ENDBRANCH  27  28
ENDBRANCH  26  27
ENDBRANCH  24  26
ENDBRANCH  21  22
ENDBRANCH  10  21
TORSDOF 9
ENDMDL
MODEL 9
REMARK VINA RESULT:      -7.6      3.525      5.412
REMARK  Name = 
REMARK  10 active torsions:
REMARK  status: ('A' for Active; 'I' for Inactive)
REMARK    1  A    between atoms: C_1  and  C_2
REMARK    2  A    between atoms: C_5  and  S_6
REMARK    3  A    between atoms: S_6  and  N_9
REMARK    4  A    between atoms: C_18  and  C_19
REMARK    5  A    between atoms: C_19  and  C_20
REMARK    6  A    between atoms: N_22  and  C_23
REMARK    7  A    between atoms: C_23  and  C_24
REMARK    8  A    between atoms: C_24  and  C_25
REMARK    9  A    between atoms: C_25  and  C_26
REMARK   10  A    between atoms: C_26  and  N_27
REMARK                            x       y       z     vdW  Elec       q    Type
REMARK                         _______ _______ _______ _____ _____    ______ ____
ROOT
ATOM      1  N   UNL     1       2.181   6.958  18.972  0.00  0.00    +0.000 NA
ATOM      2  C   UNL     1       1.772   6.650  20.380  0.00  0.00    +0.000 C 
ATOM      3  C   UNL     1       1.871   5.168  20.789  0.00  0.00    +0.000 C 
ATOM      4  C   UNL     1       2.189   4.194  19.689  0.00  0.00    +0.000 A 
ATOM      5  C   UNL     1       1.916   2.829  19.853  0.00  0.00    +0.000 A 
ATOM      6  C   UNL     1       2.110   1.943  18.796  0.00  0.00    +0.000 A 
ATOM      7  C   UNL     1       2.532   2.425  17.562  0.00  0.00    +0.000 A 
ATOM      8  C   UNL     1       2.858   3.773  17.411  0.00  0.00    +0.000 A 
ATOM      9  C   UNL     1       2.773   4.656  18.497  0.00  0.00    +0.000 A 
ATOM     10  C   UNL     1       3.313   6.091  18.516  0.00  0.00    +0.000 C 
ENDROOT
BRANCH   1  11
ATOM     11  S   UNL     1       1.896   8.543  18.477  0.00  0.00    +0.000 S 
ATOM     12  O   UNL     1       1.052   8.479  17.302  0.00  0.00    +0.000 OA
ATOM     13  O   UNL     1       3.136   9.292  18.424  0.00  0.00    +0.000 OA
BRANCH  11  18
ATOM     14  C   UNL     1      -1.009  11.677  22.773  0.00  0.00    +0.000 C 
ATOM     15  C   UNL     1      -0.420  10.759  21.746  0.00  0.00    +0.000 A 
ATOM     16  C   UNL     1       0.574   9.834  22.098  0.00  0.00    +0.000 A 
ATOM     17  C   UNL     1       1.236   9.092  21.116  0.00  0.00    +0.000 A 
ATOM     18  C   UNL     1       0.895   9.261  19.774  0.00  0.00    +0.000 A 
ATOM     19  C   UNL     1      -0.133  10.148  19.415  0.00  0.00    +0.000 A 
ATOM     20  C   UNL     1      -0.783  10.893  20.400  0.00  0.00    +0.000 A 
ENDBRANCH  11  18
ENDBRANCH   1  11
BRANCH  10  21
ATOM     21  C   UNL     1       4.030   6.518  17.232  0.00  0.00    +0.000 C 
BRANCH  21  22
ATOM     22  C   UNL     1       5.541   6.366  17.318  0.00  0.00    +0.000 C 
ATOM     23  O   UNL     1       6.139   5.305  17.182  0.00  0.00    +0.000 OA
ATOM     24  N   UNL     1       6.174   7.557  17.591  0.00  0.00    +0.000 N 
ATOM     25  H   UNL     1       5.616   8.399  17.691  0.00  0.00    +0.000 HD
BRANCH  24  26
ATOM     26  C   UNL     1       7.619   7.681  17.604  0.00  0.00    +0.000 C 
BRANCH  26  27
ATOM     27  C   UNL     1       8.063   9.142  17.665  0.00  0.00    +0.000 C 
BRANCH  27  28
ATOM     28  C   UNL     1       8.959   9.426  18.875  0.00  0.00    +0.000 C 
BRANCH  28  29
ATOM     29  C   UNL     1       9.217  10.921  19.043  0.00  0.00    +0.000 C 
BRANCH  29  30
ATOM     30  N   UNL     1      10.538  11.252  18.547  0.00  0.00    +0.000 N 
ATOM     31  C   UNL     1      10.779  12.230  17.649  0.00  0.00    +0.000 C 
ATOM     32  N   UNL     1       9.973  13.119  17.204  0.00  0.00    +0.000 NA
ATOM     33  N   UNL     1      12.056  12.219  17.220  0.00  0.00    +0.000 N 
ATOM     34  H   UNL     1      11.160  10.459  18.435  0.00  0.00    +0.000 HD
ATOM     35  H   UNL     1       9.055  12.990  17.629  0.00  0.00    +0.000 HD
ATOM     36  H   UNL     1      12.728  12.083  17.962  0.00  0.00    +0.000 HD
ATOM     37  H   UNL     1      12.245  13.081  16.718  0.00  0.00    +0.000 HD
ENDBRANCH  29  30
ENDBRANCH  28  29
ENDBRANCH  27  28
ENDBRANCH  26  27
ENDBRANCH  24  26
ENDBRANCH  21  22
ENDBRANCH  10  21
TORSDOF 9
ENDMDL
