MODEL 1
REMARK VINA RESULT:      -7.9      0.000      0.000
REMARK  Name = 
REMARK  5 active torsions:
REMARK  status: ('A' for Active; 'I' for Inactive)
REMARK    1  A    between atoms: C_1  and  C_2
REMARK    2  A    between atoms: C_2  and  C_3
REMARK    3  A    between atoms: C_2  and  N_8
REMARK    4  A    between atoms: C_9  and  C_11
REMARK    5  A    between atoms: C_14  and  C_15
REMARK                            x       y       z     vdW  Elec       q    Type
REMARK                         _______ _______ _______ _____ _____    ______ ____
ROOT
ATOM      1  N   UNL     1       3.797   5.334  18.041  0.00  0.00    +0.000 N 
ATOM      2  C   UNL     1       3.818   6.742  17.960  0.00  0.00    +0.000 C 
ATOM      3  O   UNL     1       4.760   7.363  17.479  0.00  0.00    +0.000 OA
ATOM      4  C   UNL     1       2.827   4.638  18.801  0.00  0.00    +0.000 A 
ATOM      5  C   UNL     1       2.612   4.976  20.137  0.00  0.00    +0.000 A 
ATOM      6  C   UNL     1       1.497   4.459  20.793  0.00  0.00    +0.000 A 
ATOM      7  C   UNL     1       0.632   3.622  20.103  0.00  0.00    +0.000 A 
ATOM      8  C   UNL     1       0.945   3.297  18.789  0.00  0.00    +0.000 A 
ATOM      9  N   UNL     1       2.030   3.770  18.138  0.00  0.00    +0.000 NA
ENDROOT
BRANCH   2  10
ATOM     10  C   UNL     1       2.638   7.574  18.407  0.00  0.00    +0.000 A 
ATOM     11  C   UNL     1       2.353   7.656  19.781  0.00  0.00    +0.000 A 
ATOM     12  C   UNL     1       1.350   8.515  20.262  0.00  0.00    +0.000 A 
ATOM     13  C   UNL     1       0.609   9.313  19.384  0.00  0.00    +0.000 A 
ATOM     14  C   UNL     1       0.847   9.191  18.009  0.00  0.00    +0.000 A 
ATOM     15  C   UNL     1       1.870   8.358  17.533  0.00  0.00    +0.000 A 
BRANCH  13  16
ATOM     16  C   UNL     1      -0.371  10.353  19.883  0.00  0.00    +0.000 C 
ATOM     17  F   UNL     1      -1.539  10.385  19.184  0.00  0.00    +0.000 F 
ATOM     18  F   UNL     1      -0.723  10.138  21.183  0.00  0.00    +0.000 F 
ATOM     19  F   UNL     1       0.129  11.618  19.839  0.00  0.00    +0.000 F 
ENDBRANCH  13  16
ENDBRANCH   2  10
BRANCH   1  21
ATOM     20  C   UNL     1       4.942   4.433  15.922  0.00  0.00    +0.000 C 
ATOM     21  C   UNL     1       4.855   4.476  17.452  0.00  0.00    +0.000 C 
BRANCH  21  22
ATOM     22  C   UNL     1       6.206   4.800  18.036  0.00  0.00    +0.000 A 
ATOM     23  C   UNL     1       7.504   4.734  17.564  0.00  0.00    +0.000 A 
ATOM     24  C   UNL     1       8.347   5.067  18.651  0.00  0.00    +0.000 A 
ATOM     25  C   UNL     1       7.517   5.293  19.721  0.00  0.00    +0.000 A 
ATOM     26  O   UNL     1       6.218   5.142  19.358  0.00  0.00    +0.000 OA
ENDBRANCH  21  22
ENDBRANCH   1  21
TORSDOF 4
ENDMDL
MODEL 2
REMARK VINA RESULT:      -7.2      1.340      1.943
REMARK  Name = 
REMARK  5 active torsions:
REMARK  status: ('A' for Active; 'I' for Inactive)
REMARK    1  A    between atoms: C_1  and  C_2
REMARK    2  A    between atoms: C_2  and  C_3
REMARK    3  A    between atoms: C_2  and  N_8
REMARK    4  A    between atoms: C_9  and  C_11
REMARK    5  A    between atoms: C_14  and  C_15
REMARK                            x       y       z     vdW  Elec       q    Type
REMARK                         _______ _______ _______ _____ _____    ______ ____
ROOT
ATOM      1  N   UNL     1       3.920   4.765  18.287  0.00  0.00    +0.000 N 
ATOM      2  C   UNL     1       4.090   6.165  18.255  0.00  0.00    +0.000 C 
ATOM      3  O   UNL     1       5.143   6.696  17.917  0.00  0.00    +0.000 OA
ATOM      4  C   UNL     1       2.796   4.157  18.897  0.00  0.00    +0.000 A 
ATOM      5  C   UNL     1       2.445   4.489  20.204  0.00  0.00    +0.000 A 
ATOM      6  C   UNL     1       1.210   4.075  20.697  0.00  0.00    +0.000 A 
ATOM      7  C   UNL     1       0.362   3.344  19.878  0.00  0.00    +0.000 A 
ATOM      8  C   UNL     1       0.809   3.015  18.604  0.00  0.00    +0.000 A 
ATOM      9  N   UNL     1       2.010   3.387  18.110  0.00  0.00    +0.000 NA
ENDROOT
BRANCH   2  10
ATOM     10  C   UNL     1       2.949   7.104  18.576  0.00  0.00    +0.000 A 
ATOM     11  C   UNL     1       2.553   7.249  19.916  0.00  0.00    +0.000 A 
ATOM     12  C   UNL     1       1.588   8.201  20.287  0.00  0.00    +0.000 A 
ATOM     13  C   UNL     1       0.997   9.031  19.328  0.00  0.00    +0.000 A 
ATOM     14  C   UNL     1       1.344   8.851  17.983  0.00  0.00    +0.000 A 
ATOM     15  C   UNL     1       2.331   7.922  17.620  0.00  0.00    +0.000 A 
BRANCH  13  16
ATOM     16  C   UNL     1       0.069  10.163  19.714  0.00  0.00    +0.000 C 
ATOM     17  F   UNL     1      -0.509  10.004  20.936  0.00  0.00    +0.000 F 
ATOM     18  F   UNL     1       0.722  11.360  19.766  0.00  0.00    +0.000 F 
ATOM     19  F   UNL     1      -0.953  10.337  18.833  0.00  0.00    +0.000 F 
ENDBRANCH  13  16
ENDBRANCH   2  10
BRANCH   1  21
ATOM     20  C   UNL     1       4.574   2.330  17.785  0.00  0.00    +0.000 C 
ATOM     21  C   UNL     1       4.955   3.815  17.810  0.00  0.00    +0.000 C 
BRANCH  21  22
ATOM     22  C   UNL     1       5.498   4.231  16.468  0.00  0.00    +0.000 A 
ATOM     23  C   UNL     1       4.954   4.358  15.202  0.00  0.00    +0.000 A 
ATOM     24  C   UNL     1       6.025   4.677  14.332  0.00  0.00    +0.000 A 
ATOM     25  C   UNL     1       7.154   4.705  15.113  0.00  0.00    +0.000 A 
ATOM     26  O   UNL     1       6.846   4.444  16.408  0.00  0.00    +0.000 OA
ENDBRANCH  21  22
ENDBRANCH   1  21
TORSDOF 4
ENDMDL
MODEL 3
REMARK VINA RESULT:      -7.1      0.377      1.013
REMARK  Name = 
REMARK  5 active torsions:
REMARK  status: ('A' for Active; 'I' for Inactive)
REMARK    1  A    between atoms: C_1  and  C_2
REMARK    2  A    between atoms: C_2  and  C_3
REMARK    3  A    between atoms: C_2  and  N_8
REMARK    4  A    between atoms: C_9  and  C_11
REMARK    5  A    between atoms: C_14  and  C_15
REMARK                            x       y       z     vdW  Elec       q    Type
REMARK                         _______ _______ _______ _____ _____    ______ ____
ROOT
ATOM      1  N   UNL     1       3.823   5.423  17.917  0.00  0.00    +0.000 N 
ATOM      2  C   UNL     1       3.929   6.826  17.819  0.00  0.00    +0.000 C 
ATOM      3  O   UNL     1       4.857   7.380  17.239  0.00  0.00    +0.000 OA
ATOM      4  C   UNL     1       2.890   4.796  18.778  0.00  0.00    +0.000 A 
ATOM      5  C   UNL     1       2.833   5.154  20.124  0.00  0.00    +0.000 A 
ATOM      6  C   UNL     1       1.758   4.715  20.894  0.00  0.00    +0.000 A 
ATOM      7  C   UNL     1       0.774   3.935  20.303  0.00  0.00    +0.000 A 
ATOM      8  C   UNL     1       0.932   3.584  18.969  0.00  0.00    +0.000 A 
ATOM      9  N   UNL     1       1.975   3.980  18.207  0.00  0.00    +0.000 NA
ENDROOT
BRANCH   2  10
ATOM     10  C   UNL     1       2.857   7.737  18.373  0.00  0.00    +0.000 A 
ATOM     11  C   UNL     1       2.154   8.567  17.483  0.00  0.00    +0.000 A 
ATOM     12  C   UNL     1       1.062   9.337  17.921  0.00  0.00    +0.000 A 
ATOM     13  C   UNL     1       0.647   9.296  19.257  0.00  0.00    +0.000 A 
ATOM     14  C   UNL     1       1.381   8.517  20.160  0.00  0.00    +0.000 A 
ATOM     15  C   UNL     1       2.449   7.723  19.715  0.00  0.00    +0.000 A 
BRANCH  13  16
ATOM     16  C   UNL     1      -0.610   9.995  19.725  0.00  0.00    +0.000 C 
ATOM     17  F   UNL     1      -1.677   9.815  18.897  0.00  0.00    +0.000 F 
ATOM     18  F   UNL     1      -1.014   9.551  20.950  0.00  0.00    +0.000 F 
ATOM     19  F   UNL     1      -0.455  11.341  19.852  0.00  0.00    +0.000 F 
ENDBRANCH  13  16
ENDBRANCH   2  10
BRANCH   1  21
ATOM     20  C   UNL     1       4.748   4.502  15.702  0.00  0.00    +0.000 C 
ATOM     21  C   UNL     1       4.758   4.493  17.235  0.00  0.00    +0.000 C 
BRANCH  21  22
ATOM     22  C   UNL     1       6.165   4.668  17.743  0.00  0.00    +0.000 A 
ATOM     23  C   UNL     1       7.421   4.477  17.195  0.00  0.00    +0.000 A 
ATOM     24  C   UNL     1       8.354   4.704  18.235  0.00  0.00    +0.000 A 
ATOM     25  C   UNL     1       7.614   4.997  19.354  0.00  0.00    +0.000 A 
ATOM     26  O   UNL     1       6.288   4.986  19.065  0.00  0.00    +0.000 OA
ENDBRANCH  21  22
ENDBRANCH   1  21
TORSDOF 4
ENDMDL
MODEL 4
REMARK VINA RESULT:      -7.0      1.201      1.843
REMARK  Name = 
REMARK  5 active torsions:
REMARK  status: ('A' for Active; 'I' for Inactive)
REMARK    1  A    between atoms: C_1  and  C_2
REMARK    2  A    between atoms: C_2  and  C_3
REMARK    3  A    between atoms: C_2  and  N_8
REMARK    4  A    between atoms: C_9  and  C_11
REMARK    5  A    between atoms: C_14  and  C_15
REMARK                            x       y       z     vdW  Elec       q    Type
REMARK                         _______ _______ _______ _____ _____    ______ ____
ROOT
ATOM      1  N   UNL     1       4.078   4.906  18.466  0.00  0.00    +0.000 N 
ATOM      2  C   UNL     1       4.218   6.307  18.380  0.00  0.00    +0.000 C 
ATOM      3  O   UNL     1       5.289   6.850  18.129  0.00  0.00    +0.000 OA
ATOM      4  C   UNL     1       2.909   4.297  18.983  0.00  0.00    +0.000 A 
ATOM      5  C   UNL     1       2.411   4.683  20.226  0.00  0.00    +0.000 A 
ATOM      6  C   UNL     1       1.140   4.259  20.606  0.00  0.00    +0.000 A 
ATOM      7  C   UNL     1       0.403   3.465  19.739  0.00  0.00    +0.000 A 
ATOM      8  C   UNL     1       0.991   3.086  18.539  0.00  0.00    +0.000 A 
ATOM      9  N   UNL     1       2.230   3.467  18.158  0.00  0.00    +0.000 NA
ENDROOT
BRANCH   2  10
ATOM     10  C   UNL     1       3.028   7.228  18.528  0.00  0.00    +0.000 A 
ATOM     11  C   UNL     1       2.507   7.453  19.813  0.00  0.00    +0.000 A 
ATOM     12  C   UNL     1       1.487   8.396  20.025  0.00  0.00    +0.000 A 
ATOM     13  C   UNL     1       0.965   9.138  18.959  0.00  0.00    +0.000 A 
ATOM     14  C   UNL     1       1.438   8.875  17.669  0.00  0.00    +0.000 A 
ATOM     15  C   UNL     1       2.479   7.957  17.463  0.00  0.00    +0.000 A 
BRANCH  13  16
ATOM     16  C   UNL     1      -0.024  10.262  19.178  0.00  0.00    +0.000 C 
ATOM     17  F   UNL     1      -0.891  10.439  18.142  0.00  0.00    +0.000 F 
ATOM     18  F   UNL     1      -0.802  10.050  20.278  0.00  0.00    +0.000 F 
ATOM     19  F   UNL     1       0.576  11.468  19.376  0.00  0.00    +0.000 F 
ENDBRANCH  13  16
ENDBRANCH   2  10
BRANCH   1  21
ATOM     20  C   UNL     1       4.907   2.474  18.390  0.00  0.00    +0.000 C 
ATOM     21  C   UNL     1       5.180   3.964  18.152  0.00  0.00    +0.000 C 
BRANCH  21  22
ATOM     22  C   UNL     1       5.696   4.177  16.753  0.00  0.00    +0.000 A 
ATOM     23  C   UNL     1       6.929   4.498  16.216  0.00  0.00    +0.000 A 
ATOM     24  C   UNL     1       6.732   4.673  14.825  0.00  0.00    +0.000 A 
ATOM     25  C   UNL     1       5.392   4.470  14.602  0.00  0.00    +0.000 A 
ATOM     26  O   UNL     1       4.757   4.161  15.761  0.00  0.00    +0.000 OA
ENDBRANCH  21  22
ENDBRANCH   1  21
TORSDOF 4
ENDMDL
MODEL 5
REMARK VINA RESULT:      -7.0      7.057      8.773
REMARK  Name = 
REMARK  5 active torsions:
REMARK  status: ('A' for Active; 'I' for Inactive)
REMARK    1  A    between atoms: C_1  and  C_2
REMARK    2  A    between atoms: C_2  and  C_3
REMARK    3  A    between atoms: C_2  and  N_8
REMARK    4  A    between atoms: C_9  and  C_11
REMARK    5  A    between atoms: C_14  and  C_15
REMARK                            x       y       z     vdW  Elec       q    Type
REMARK                         _______ _______ _______ _____ _____    ______ ____
ROOT
ATOM      1  N   UNL     1       0.607  12.985  20.051  0.00  0.00    +0.000 N 
ATOM      2  C   UNL     1       0.253  13.359  21.364  0.00  0.00    +0.000 C 
ATOM      3  O   UNL     1       1.036  13.919  22.126  0.00  0.00    +0.000 OA
ATOM      4  C   UNL     1      -0.210  12.138  19.264  0.00  0.00    +0.000 A 
ATOM      5  C   UNL     1      -0.644  10.915  19.773  0.00  0.00    +0.000 A 
ATOM      6  C   UNL     1      -1.637  10.214  19.093  0.00  0.00    +0.000 A 
ATOM      7  C   UNL     1      -2.168  10.749  17.928  0.00  0.00    +0.000 A 
ATOM      8  C   UNL     1      -1.647  11.950  17.464  0.00  0.00    +0.000 A 
ATOM      9  N   UNL     1      -0.670  12.639  18.095  0.00  0.00    +0.000 NA
ENDROOT
BRANCH   2  10
ATOM     10  C   UNL     1      -1.147  13.150  21.893  0.00  0.00    +0.000 A 
ATOM     11  C   UNL     1      -1.339  12.252  22.956  0.00  0.00    +0.000 A 
ATOM     12  C   UNL     1      -2.595  12.115  23.571  0.00  0.00    +0.000 A 
ATOM     13  C   UNL     1      -3.690  12.872  23.138  0.00  0.00    +0.000 A 
ATOM     14  C   UNL     1      -3.520  13.724  22.040  0.00  0.00    +0.000 A 
ATOM     15  C   UNL     1      -2.258  13.884  21.450  0.00  0.00    +0.000 A 
BRANCH  13  16
ATOM     16  C   UNL     1      -5.012  12.857  23.874  0.00  0.00    +0.000 C 
ATOM     17  F   UNL     1      -5.411  14.083  24.310  0.00  0.00    +0.000 F 
ATOM     18  F   UNL     1      -6.027  12.396  23.087  0.00  0.00    +0.000 F 
ATOM     19  F   UNL     1      -5.001  12.051  24.971  0.00  0.00    +0.000 F 
ENDBRANCH  13  16
ENDBRANCH   2  10
BRANCH   1  21
ATOM     20  C   UNL     1       2.421  12.409  18.323  0.00  0.00    +0.000 C 
ATOM     21  C   UNL     1       1.912  13.332  19.436  0.00  0.00    +0.000 C 
BRANCH  21  22
ATOM     22  C   UNL     1       1.928  14.764  18.967  0.00  0.00    +0.000 A 
ATOM     23  C   UNL     1       0.987  15.776  18.919  0.00  0.00    +0.000 A 
ATOM     24  C   UNL     1       1.597  16.863  18.248  0.00  0.00    +0.000 A 
ATOM     25  C   UNL     1       2.860  16.443  17.911  0.00  0.00    +0.000 A 
ATOM     26  O   UNL     1       3.074  15.176  18.348  0.00  0.00    +0.000 OA
ENDBRANCH  21  22
ENDBRANCH   1  21
TORSDOF 4
ENDMDL
MODEL 6
REMARK VINA RESULT:      -7.0      4.682      7.556
REMARK  Name = 
REMARK  5 active torsions:
REMARK  status: ('A' for Active; 'I' for Inactive)
REMARK    1  A    between atoms: C_1  and  C_2
REMARK    2  A    between atoms: C_2  and  C_3
REMARK    3  A    between atoms: C_2  and  N_8
REMARK    4  A    between atoms: C_9  and  C_11
REMARK    5  A    between atoms: C_14  and  C_15
REMARK                            x       y       z     vdW  Elec       q    Type
REMARK                         _______ _______ _______ _____ _____    ______ ____
ROOT
ATOM      1  N   UNL     1       0.252  11.299  20.486  0.00  0.00    +0.000 N 
ATOM      2  C   UNL     1       1.075  12.428  20.673  0.00  0.00    +0.000 C 
ATOM      3  O   UNL     1       2.172  12.364  21.217  0.00  0.00    +0.000 OA
ATOM      4  C   UNL     1      -1.099  11.411  20.075  0.00  0.00    +0.000 A 
ATOM      5  C   UNL     1      -1.970  12.255  20.764  0.00  0.00    +0.000 A 
ATOM      6  C   UNL     1      -3.214  12.541  20.206  0.00  0.00    +0.000 A 
ATOM      7  C   UNL     1      -3.554  11.982  18.983  0.00  0.00    +0.000 A 
ATOM      8  C   UNL     1      -2.648  11.115  18.386  0.00  0.00    +0.000 A 
ATOM      9  N   UNL     1      -1.444  10.805  18.917  0.00  0.00    +0.000 NA
ENDROOT
BRANCH   2  10
ATOM     10  C   UNL     1       0.677  13.789  20.147  0.00  0.00    +0.000 A 
ATOM     11  C   UNL     1       0.406  13.928  18.776  0.00  0.00    +0.000 A 
ATOM     12  C   UNL     1      -0.091  15.135  18.255  0.00  0.00    +0.000 A 
ATOM     13  C   UNL     1      -0.331  16.231  19.092  0.00  0.00    +0.000 A 
ATOM     14  C   UNL     1      -0.007  16.117  20.449  0.00  0.00    +0.000 A 
ATOM     15  C   UNL     1       0.458  14.902  20.972  0.00  0.00    +0.000 A 
BRANCH  13  16
ATOM     16  C   UNL     1      -1.004  17.489  18.587  0.00  0.00    +0.000 C 
ATOM     17  F   UNL     1      -0.526  18.631  19.154  0.00  0.00    +0.000 F 
ATOM     18  F   UNL     1      -0.842  17.648  17.242  0.00  0.00    +0.000 F 
ATOM     19  F   UNL     1      -2.348  17.495  18.801  0.00  0.00    +0.000 F 
ENDBRANCH  13  16
ENDBRANCH   2  10
BRANCH   1  21
ATOM     20  C   UNL     1      -0.394   8.972  21.370  0.00  0.00    +0.000 C 
ATOM     21  C   UNL     1       0.682   9.920  20.826  0.00  0.00    +0.000 C 
BRANCH  21  22
ATOM     22  C   UNL     1       1.402   9.275  19.671  0.00  0.00    +0.000 A 
ATOM     23  C   UNL     1       1.626   9.627  18.352  0.00  0.00    +0.000 A 
ATOM     24  C   UNL     1       2.276   8.527  17.744  0.00  0.00    +0.000 A 
ATOM     25  C   UNL     1       2.390   7.566  18.718  0.00  0.00    +0.000 A 
ATOM     26  O   UNL     1       1.872   8.011  19.891  0.00  0.00    +0.000 OA
ENDBRANCH  21  22
ENDBRANCH   1  21
TORSDOF 4
ENDMDL
MODEL 7
REMARK VINA RESULT:      -6.9      6.229      7.974
REMARK  Name = 
REMARK  5 active torsions:
REMARK  status: ('A' for Active; 'I' for Inactive)
REMARK    1  A    between atoms: C_1  and  C_2
REMARK    2  A    between atoms: C_2  and  C_3
REMARK    3  A    between atoms: C_2  and  N_8
REMARK    4  A    between atoms: C_9  and  C_11
REMARK    5  A    between atoms: C_14  and  C_15
REMARK                            x       y       z     vdW  Elec       q    Type
REMARK                         _______ _______ _______ _____ _____    ______ ____
ROOT
ATOM      1  N   UNL     1       0.621  12.333  19.836  0.00  0.00    +0.000 N 
ATOM      2  C   UNL     1      -0.442  13.039  19.235  0.00  0.00    +0.000 C 
ATOM      3  O   UNL     1      -0.268  14.060  18.576  0.00  0.00    +0.000 OA
ATOM      4  C   UNL     1       0.400  11.302  20.781  0.00  0.00    +0.000 A 
ATOM      5  C   UNL     1      -0.416  11.532  21.888  0.00  0.00    +0.000 A 
ATOM      6  C   UNL     1      -0.819  10.449  22.666  0.00  0.00    +0.000 A 
ATOM      7  C   UNL     1      -0.399   9.173  22.321  0.00  0.00    +0.000 A 
ATOM      8  C   UNL     1       0.452   9.036  21.232  0.00  0.00    +0.000 A 
ATOM      9  N   UNL     1       0.873  10.073  20.474  0.00  0.00    +0.000 NA
ENDROOT
BRANCH   2  10
ATOM     10  C   UNL     1      -1.865  12.536  19.312  0.00  0.00    +0.000 A 
ATOM     11  C   UNL     1      -2.736  13.123  20.245  0.00  0.00    +0.000 A 
ATOM     12  C   UNL     1      -4.101  12.786  20.273  0.00  0.00    +0.000 A 
ATOM     13  C   UNL     1      -4.627  11.855  19.369  0.00  0.00    +0.000 A 
ATOM     14  C   UNL     1      -3.752  11.224  18.477  0.00  0.00    +0.000 A 
ATOM     15  C   UNL     1      -2.397  11.585  18.429  0.00  0.00    +0.000 A 
BRANCH  13  16
ATOM     16  C   UNL     1      -6.112  11.584  19.276  0.00  0.00    +0.000 C 
ATOM     17  F   UNL     1      -6.749  11.600  20.480  0.00  0.00    +0.000 F 
ATOM     18  F   UNL     1      -6.752  12.512  18.507  0.00  0.00    +0.000 F 
ATOM     19  F   UNL     1      -6.399  10.378  18.714  0.00  0.00    +0.000 F 
ENDBRANCH  13  16
ENDBRANCH   2  10
BRANCH   1  21
ATOM     20  C   UNL     1       2.580  12.634  18.198  0.00  0.00    +0.000 C 
ATOM     21  C   UNL     1       2.046  12.694  19.635  0.00  0.00    +0.000 C 
BRANCH  21  22
ATOM     22  C   UNL     1       2.360  14.034  20.246  0.00  0.00    +0.000 A 
ATOM     23  C   UNL     1       2.853  15.229  19.755  0.00  0.00    +0.000 A 
ATOM     24  C   UNL     1       3.036  16.081  20.871  0.00  0.00    +0.000 A 
ATOM     25  C   UNL     1       2.666  15.349  21.973  0.00  0.00    +0.000 A 
ATOM     26  O   UNL     1       2.248  14.112  21.605  0.00  0.00    +0.000 OA
ENDBRANCH  21  22
ENDBRANCH   1  21
TORSDOF 4
ENDMDL
MODEL 8
REMARK VINA RESULT:      -6.9      4.800      7.585
REMARK  Name = 
REMARK  5 active torsions:
REMARK  status: ('A' for Active; 'I' for Inactive)
REMARK    1  A    between atoms: C_1  and  C_2
REMARK    2  A    between atoms: C_2  and  C_3
REMARK    3  A    between atoms: C_2  and  N_8
REMARK    4  A    between atoms: C_9  and  C_11
REMARK    5  A    between atoms: C_14  and  C_15
REMARK                            x       y       z     vdW  Elec       q    Type
REMARK                         _______ _______ _______ _____ _____    ______ ____
ROOT
ATOM      1  N   UNL     1       0.100  11.313  20.365  0.00  0.00    +0.000 N 
ATOM      2  C   UNL     1       0.827  12.503  20.575  0.00  0.00    +0.000 C 
ATOM      3  O   UNL     1       1.887  12.530  21.194  0.00  0.00    +0.000 OA
ATOM      4  C   UNL     1      -1.224  11.319  19.863  0.00  0.00    +0.000 A 
ATOM      5  C   UNL     1      -2.197  12.114  20.467  0.00  0.00    +0.000 A 
ATOM      6  C   UNL     1      -3.416  12.298  19.820  0.00  0.00    +0.000 A 
ATOM      7  C   UNL     1      -3.631  11.687  18.593  0.00  0.00    +0.000 A 
ATOM      8  C   UNL     1      -2.628  10.874  18.082  0.00  0.00    +0.000 A 
ATOM      9  N   UNL     1      -1.445  10.663  18.701  0.00  0.00    +0.000 NA
ENDROOT
BRANCH   2  10
ATOM     10  C   UNL     1       0.373  13.819  19.986  0.00  0.00    +0.000 A 
ATOM     11  C   UNL     1       0.072  14.879  20.858  0.00  0.00    +0.000 A 
ATOM     12  C   UNL     1      -0.231  16.159  20.364  0.00  0.00    +0.000 A 
ATOM     13  C   UNL     1      -0.239  16.412  18.987  0.00  0.00    +0.000 A 
ATOM     14  C   UNL     1       0.001  15.346  18.112  0.00  0.00    +0.000 A 
ATOM     15  C   UNL     1       0.335  14.076  18.608  0.00  0.00    +0.000 A 
BRANCH  13  16
ATOM     16  C   UNL     1      -0.413  17.809  18.432  0.00  0.00    +0.000 C 
ATOM     17  F   UNL     1       0.645  18.631  18.677  0.00  0.00    +0.000 F 
ATOM     18  F   UNL     1      -0.571  17.802  17.077  0.00  0.00    +0.000 F 
ATOM     19  F   UNL     1      -1.508  18.446  18.929  0.00  0.00    +0.000 F 
ENDBRANCH  13  16
ENDBRANCH   2  10
BRANCH   1  21
ATOM     20  C   UNL     1      -0.423   9.006  21.371  0.00  0.00    +0.000 C 
ATOM     21  C   UNL     1       0.601   9.978  20.772  0.00  0.00    +0.000 C 
BRANCH  21  22
ATOM     22  C   UNL     1       1.349   9.311  19.647  0.00  0.00    +0.000 A 
ATOM     23  C   UNL     1       1.625   9.651  18.335  0.00  0.00    +0.000 A 
ATOM     24  C   UNL     1       2.275   8.535  17.756  0.00  0.00    +0.000 A 
ATOM     25  C   UNL     1       2.336   7.578  18.739  0.00  0.00    +0.000 A 
ATOM     26  O   UNL     1       1.786   8.040  19.890  0.00  0.00    +0.000 OA
ENDBRANCH  21  22
ENDBRANCH   1  21
TORSDOF 4
ENDMDL
MODEL 9
REMARK VINA RESULT:      -6.8      5.270      9.436
REMARK  Name = 
REMARK  5 active torsions:
REMARK  status: ('A' for Active; 'I' for Inactive)
REMARK    1  A    between atoms: C_1  and  C_2
REMARK    2  A    between atoms: C_2  and  C_3
REMARK    3  A    between atoms: C_2  and  N_8
REMARK    4  A    between atoms: C_9  and  C_11
REMARK    5  A    between atoms: C_14  and  C_15
REMARK                            x       y       z     vdW  Elec       q    Type
REMARK                         _______ _______ _______ _____ _____    ______ ____
ROOT
ATOM      1  N   UNL     1      -0.535  12.316  22.195  0.00  0.00    +0.000 N 
ATOM      2  C   UNL     1      -0.417  10.927  22.409  0.00  0.00    +0.000 C 
ATOM      3  O   UNL     1      -0.839  10.377  23.422  0.00  0.00    +0.000 OA
ATOM      4  C   UNL     1       0.154  12.976  21.148  0.00  0.00    +0.000 A 
ATOM      5  C   UNL     1       1.530  12.808  21.002  0.00  0.00    +0.000 A 
ATOM      6  C   UNL     1       2.145  13.258  19.836  0.00  0.00    +0.000 A 
ATOM      7  C   UNL     1       1.375  13.862  18.853  0.00  0.00    +0.000 A 
ATOM      8  C   UNL     1       0.018  14.034  19.098  0.00  0.00    +0.000 A 
ATOM      9  N   UNL     1      -0.598  13.624  20.229  0.00  0.00    +0.000 NA
ENDROOT
BRANCH   2  10
ATOM     10  C   UNL     1       0.182  10.016  21.363  0.00  0.00    +0.000 A 
ATOM     11  C   UNL     1      -0.192  10.194  20.021  0.00  0.00    +0.000 A 
ATOM     12  C   UNL     1       0.429   9.464  18.993  0.00  0.00    +0.000 A 
ATOM     13  C   UNL     1       1.439   8.539  19.281  0.00  0.00    +0.000 A 
ATOM     14  C   UNL     1       1.774   8.313  20.622  0.00  0.00    +0.000 A 
ATOM     15  C   UNL     1       1.177   9.067  21.643  0.00  0.00    +0.000 A 
BRANCH  13  16
ATOM     16  C   UNL     1       2.227   7.850  18.188  0.00  0.00    +0.000 C 
ATOM     17  F   UNL     1       3.388   7.286  18.622  0.00  0.00    +0.000 F 
ATOM     18  F   UNL     1       1.517   6.837  17.611  0.00  0.00    +0.000 F 
ATOM     19  F   UNL     1       2.571   8.687  17.172  0.00  0.00    +0.000 F 
ENDBRANCH  13  16
ENDBRANCH   2  10
BRANCH   1  21
ATOM     20  C   UNL     1      -0.928  14.708  23.049  0.00  0.00    +0.000 C 
ATOM     21  C   UNL     1      -1.274  13.216  23.114  0.00  0.00    +0.000 C 
BRANCH  21  22
ATOM     22  C   UNL     1      -2.762  13.025  22.983  0.00  0.00    +0.000 A 
ATOM     23  C   UNL     1      -3.630  12.897  21.913  0.00  0.00    +0.000 A 
ATOM     24  C   UNL     1      -4.937  12.865  22.454  0.00  0.00    +0.000 A 
ATOM     25  C   UNL     1      -4.790  12.996  23.813  0.00  0.00    +0.000 A 
ATOM     26  O   UNL     1      -3.477  13.086  24.145  0.00  0.00    +0.000 OA
ENDBRANCH  21  22
ENDBRANCH   1  21
TORSDOF 4
ENDMDL
