MODEL 1
REMARK VINA RESULT:      -8.0      0.000      0.000
REMARK  Name = 
REMARK  4 active torsions:
REMARK  status: ('A' for Active; 'I' for Inactive)
REMARK    1  A    between atoms: C_1  and  C_2
REMARK    2  A    between atoms: C_8  and  C_9
REMARK    3  A    between atoms: C_11  and  O_12
REMARK    4  A    between atoms: C_21  and  O_22
REMARK                            x       y       z     vdW  Elec       q    Type
REMARK                         _______ _______ _______ _____ _____    ______ ____
ROOT
ATOM      1  C   UNL     1       0.708   3.310  18.966  0.00  0.00    +0.000 C 
ATOM      2  C   UNL     1       2.216   3.488  19.293  0.00  0.00    +0.000 C 
ATOM      3  C   UNL     1       2.365   3.989  20.726  0.00  0.00    +0.000 C 
ATOM      4  C   UNL     1       1.782   5.386  20.877  0.00  0.00    +0.000 C 
ATOM      5  C   UNL     1       2.381   6.398  19.878  0.00  0.00    +0.000 C 
ATOM      6  C   UNL     1       1.764   7.789  19.977  0.00  0.00    +0.000 A 
ATOM      7  C   UNL     1       1.060   8.210  21.131  0.00  0.00    +0.000 A 
ATOM      8  C   UNL     1       0.509   9.496  21.232  0.00  0.00    +0.000 A 
ATOM      9  C   UNL     1       0.687  10.381  20.177  0.00  0.00    +0.000 A 
ATOM     10  C   UNL     1       1.398   9.996  19.036  0.00  0.00    +0.000 A 
ATOM     11  C   UNL     1       1.943   8.700  18.925  0.00  0.00    +0.000 A 
ATOM     12  C   UNL     1       2.662   8.319  17.645  0.00  0.00    +0.000 C 
ATOM     13  C   UNL     1       3.259   6.902  17.612  0.00  0.00    +0.000 C 
ATOM     14  C   UNL     1       2.393   5.895  18.393  0.00  0.00    +0.000 C 
ATOM     15  C   UNL     1       2.949   4.460  18.337  0.00  0.00    +0.000 C 
ATOM     16  C   UNL     1       2.959   3.644  17.039  0.00  0.00    +0.000 C 
ATOM     17  C   UNL     1       3.347   2.228  17.533  0.00  0.00    +0.000 C 
ATOM     18  C   UNL     1       3.026   2.202  19.040  0.00  0.00    +0.000 C 
ENDROOT
BRANCH   8  19
ATOM     19  C   UNL     1      -0.209   9.856  22.423  0.00  0.00    +0.000 C 
ATOM     20  N   UNL     1      -0.777  10.166  23.390  0.00  0.00    +0.000 NA
ENDBRANCH   8  19
BRANCH   9  21
ATOM     21  O   UNL     1       0.186  11.658  20.170  0.00  0.00    +0.000 OA
ATOM     22  H   UNL     1       0.829  12.283  20.550  0.00  0.00    +0.000 HD
ENDBRANCH   9  21
BRANCH  18  23
ATOM     23  O   UNL     1       2.385   1.015  19.460  0.00  0.00    +0.000 OA
ATOM     24  H   UNL     1       2.994   0.500  20.011  0.00  0.00    +0.000 HD
ENDBRANCH  18  23
TORSDOF 3
ENDMDL
MODEL 2
REMARK VINA RESULT:      -7.2      2.990      4.232
REMARK  Name = 
REMARK  4 active torsions:
REMARK  status: ('A' for Active; 'I' for Inactive)
REMARK    1  A    between atoms: C_1  and  C_2
REMARK    2  A    between atoms: C_8  and  C_9
REMARK    3  A    between atoms: C_11  and  O_12
REMARK    4  A    between atoms: C_21  and  O_22
REMARK                            x       y       z     vdW  Elec       q    Type
REMARK                         _______ _______ _______ _____ _____    ______ ____
ROOT
ATOM      1  C   UNL     1       6.813   7.314  17.425  0.00  0.00    +0.000 C 
ATOM      2  C   UNL     1       5.911   6.231  16.774  0.00  0.00    +0.000 C 
ATOM      3  C   UNL     1       4.818   6.911  15.956  0.00  0.00    +0.000 C 
ATOM      4  C   UNL     1       3.872   7.692  16.857  0.00  0.00    +0.000 C 
ATOM      5  C   UNL     1       3.260   6.828  17.979  0.00  0.00    +0.000 C 
ATOM      6  C   UNL     1       2.356   7.610  18.926  0.00  0.00    +0.000 A 
ATOM      7  C   UNL     1       1.798   8.858  18.558  0.00  0.00    +0.000 A 
ATOM      8  C   UNL     1       0.950   9.571  19.421  0.00  0.00    +0.000 A 
ATOM      9  C   UNL     1       0.636   9.015  20.654  0.00  0.00    +0.000 A 
ATOM     10  C   UNL     1       1.158   7.773  21.030  0.00  0.00    +0.000 A 
ATOM     11  C   UNL     1       2.020   7.060  20.171  0.00  0.00    +0.000 A 
ATOM     12  C   UNL     1       2.595   5.741  20.650  0.00  0.00    +0.000 C 
ATOM     13  C   UNL     1       3.499   5.004  19.646  0.00  0.00    +0.000 C 
ATOM     14  C   UNL     1       4.312   5.985  18.779  0.00  0.00    +0.000 C 
ATOM     15  C   UNL     1       5.257   5.269  17.795  0.00  0.00    +0.000 C 
ATOM     16  C   UNL     1       6.479   4.475  18.275  0.00  0.00    +0.000 C 
ATOM     17  C   UNL     1       7.234   4.186  16.954  0.00  0.00    +0.000 C 
ATOM     18  C   UNL     1       6.720   5.222  15.936  0.00  0.00    +0.000 C 
ENDROOT
BRANCH   8  19
ATOM     19  C   UNL     1       0.430  10.840  18.996  0.00  0.00    +0.000 C 
ATOM     20  N   UNL     1      -0.010  11.865  18.666  0.00  0.00    +0.000 NA
ENDBRANCH   8  19
BRANCH   9  21
ATOM     21  O   UNL     1      -0.178   9.628  21.573  0.00  0.00    +0.000 OA
ATOM     22  H   UNL     1       0.042   9.337  22.476  0.00  0.00    +0.000 HD
ENDBRANCH   9  21
BRANCH  18  23
ATOM     23  O   UNL     1       7.745   5.800  15.153  0.00  0.00    +0.000 OA
ATOM     24  H   UNL     1       8.352   5.105  14.856  0.00  0.00    +0.000 HD
ENDBRANCH  18  23
TORSDOF 3
ENDMDL
MODEL 3
REMARK VINA RESULT:      -7.0      5.047      7.058
REMARK  Name = 
REMARK  4 active torsions:
REMARK  status: ('A' for Active; 'I' for Inactive)
REMARK    1  A    between atoms: C_1  and  C_2
REMARK    2  A    between atoms: C_8  and  C_9
REMARK    3  A    between atoms: C_11  and  O_12
REMARK    4  A    between atoms: C_21  and  O_22
REMARK                            x       y       z     vdW  Elec       q    Type
REMARK                         _______ _______ _______ _____ _____    ______ ____
ROOT
ATOM      1  C   UNL     1       2.692   1.842  19.104  0.00  0.00    +0.000 C 
ATOM      2  C   UNL     1       2.033   3.247  19.054  0.00  0.00    +0.000 C 
ATOM      3  C   UNL     1       1.580   3.542  17.627  0.00  0.00    +0.000 C 
ATOM      4  C   UNL     1       2.774   3.657  16.692  0.00  0.00    +0.000 C 
ATOM      5  C   UNL     1       3.810   4.697  17.164  0.00  0.00    +0.000 C 
ATOM      6  C   UNL     1       5.041   4.782  16.268  0.00  0.00    +0.000 A 
ATOM      7  C   UNL     1       5.027   4.295  14.938  0.00  0.00    +0.000 A 
ATOM      8  C   UNL     1       6.153   4.389  14.106  0.00  0.00    +0.000 A 
ATOM      9  C   UNL     1       7.297   5.001  14.600  0.00  0.00    +0.000 A 
ATOM     10  C   UNL     1       7.327   5.510  15.903  0.00  0.00    +0.000 A 
ATOM     11  C   UNL     1       6.202   5.406  16.747  0.00  0.00    +0.000 A 
ATOM     12  C   UNL     1       6.307   5.930  18.166  0.00  0.00    +0.000 C 
ATOM     13  C   UNL     1       5.029   5.814  19.016  0.00  0.00    +0.000 C 
ATOM     14  C   UNL     1       4.223   4.548  18.669  0.00  0.00    +0.000 C 
ATOM     15  C   UNL     1       2.961   4.388  19.538  0.00  0.00    +0.000 C 
ATOM     16  C   UNL     1       3.043   4.084  21.039  0.00  0.00    +0.000 C 
ATOM     17  C   UNL     1       1.572   3.758  21.398  0.00  0.00    +0.000 C 
ATOM     18  C   UNL     1       0.882   3.390  20.069  0.00  0.00    +0.000 C 
ENDROOT
BRANCH   8  19
ATOM     19  C   UNL     1       6.080   3.861  12.772  0.00  0.00    +0.000 C 
ATOM     20  N   UNL     1       6.034   3.414  11.698  0.00  0.00    +0.000 NA
ENDBRANCH   8  19
BRANCH   9  21
ATOM     21  O   UNL     1       8.452   5.141  13.873  0.00  0.00    +0.000 OA
ATOM     22  H   UNL     1       8.537   4.425  13.219  0.00  0.00    +0.000 HD
ENDBRANCH   9  21
BRANCH  18  23
ATOM     23  O   UNL     1       0.041   2.259  20.164  0.00  0.00    +0.000 OA
ATOM     24  H   UNL     1      -0.567   2.373  20.911  0.00  0.00    +0.000 HD
ENDBRANCH  18  23
TORSDOF 3
ENDMDL
MODEL 4
REMARK VINA RESULT:      -7.0      2.939      7.281
REMARK  Name = 
REMARK  4 active torsions:
REMARK  status: ('A' for Active; 'I' for Inactive)
REMARK    1  A    between atoms: C_1  and  C_2
REMARK    2  A    between atoms: C_8  and  C_9
REMARK    3  A    between atoms: C_11  and  O_12
REMARK    4  A    between atoms: C_21  and  O_22
REMARK                            x       y       z     vdW  Elec       q    Type
REMARK                         _______ _______ _______ _____ _____    ______ ____
ROOT
ATOM      1  C   UNL     1      -0.244   9.565  17.599  0.00  0.00    +0.000 C 
ATOM      2  C   UNL     1       0.802  10.104  18.611  0.00  0.00    +0.000 C 
ATOM      3  C   UNL     1       2.181  10.109  17.958  0.00  0.00    +0.000 C 
ATOM      4  C   UNL     1       2.645   8.690  17.661  0.00  0.00    +0.000 C 
ATOM      5  C   UNL     1       2.632   7.780  18.906  0.00  0.00    +0.000 C 
ATOM      6  C   UNL     1       3.038   6.340  18.613  0.00  0.00    +0.000 A 
ATOM      7  C   UNL     1       3.763   5.995  17.446  0.00  0.00    +0.000 A 
ATOM      8  C   UNL     1       4.154   4.673  17.184  0.00  0.00    +0.000 A 
ATOM      9  C   UNL     1       3.841   3.689  18.112  0.00  0.00    +0.000 A 
ATOM     10  C   UNL     1       3.145   4.010  19.283  0.00  0.00    +0.000 A 
ATOM     11  C   UNL     1       2.739   5.335  19.544  0.00  0.00    +0.000 A 
ATOM     12  C   UNL     1       1.945   5.617  20.805  0.00  0.00    +0.000 C 
ATOM     13  C   UNL     1       1.567   7.090  21.040  0.00  0.00    +0.000 C 
ATOM     14  C   UNL     1       1.291   7.829  19.716  0.00  0.00    +0.000 C 
ATOM     15  C   UNL     1       0.868   9.295  19.929  0.00  0.00    +0.000 C 
ATOM     16  C   UNL     1      -0.474   9.668  20.570  0.00  0.00    +0.000 C 
ATOM     17  C   UNL     1      -0.553  11.195  20.325  0.00  0.00    +0.000 C 
ATOM     18  C   UNL     1       0.420  11.489  19.167  0.00  0.00    +0.000 C 
ENDROOT
BRANCH   8  19
ATOM     19  C   UNL     1       4.872   4.385  15.974  0.00  0.00    +0.000 C 
ATOM     20  N   UNL     1       5.474   4.152  15.005  0.00  0.00    +0.000 NA
ENDBRANCH   8  19
BRANCH   9  21
ATOM     21  O   UNL     1       4.171   2.367  17.952  0.00  0.00    +0.000 OA
ATOM     22  H   UNL     1       3.650   1.807  18.554  0.00  0.00    +0.000 HD
ENDBRANCH   9  21
BRANCH  18  23
ATOM     23  O   UNL     1      -0.103  12.382  18.204  0.00  0.00    +0.000 OA
ATOM     24  H   UNL     1       0.326  13.246  18.302  0.00  0.00    +0.000 HD
ENDBRANCH  18  23
TORSDOF 3
ENDMDL
MODEL 5
REMARK VINA RESULT:      -6.6      2.924      6.641
REMARK  Name = 
REMARK  4 active torsions:
REMARK  status: ('A' for Active; 'I' for Inactive)
REMARK    1  A    between atoms: C_1  and  C_2
REMARK    2  A    between atoms: C_8  and  C_9
REMARK    3  A    between atoms: C_11  and  O_12
REMARK    4  A    between atoms: C_21  and  O_22
REMARK                            x       y       z     vdW  Elec       q    Type
REMARK                         _______ _______ _______ _____ _____    ______ ____
ROOT
ATOM      1  C   UNL     1       1.761   9.416  22.378  0.00  0.00    +0.000 C 
ATOM      2  C   UNL     1       0.563   9.140  21.430  0.00  0.00    +0.000 C 
ATOM      3  C   UNL     1       0.166   7.670  21.535  0.00  0.00    +0.000 C 
ATOM      4  C   UNL     1       1.275   6.770  21.008  0.00  0.00    +0.000 C 
ATOM      5  C   UNL     1       1.701   7.122  19.568  0.00  0.00    +0.000 C 
ATOM      6  C   UNL     1       2.852   6.267  19.047  0.00  0.00    +0.000 A 
ATOM      7  C   UNL     1       3.180   5.023  19.639  0.00  0.00    +0.000 A 
ATOM      8  C   UNL     1       4.226   4.225  19.149  0.00  0.00    +0.000 A 
ATOM      9  C   UNL     1       4.934   4.665  18.039  0.00  0.00    +0.000 A 
ATOM     10  C   UNL     1       4.614   5.880  17.424  0.00  0.00    +0.000 A 
ATOM     11  C   UNL     1       3.572   6.691  17.921  0.00  0.00    +0.000 A 
ATOM     12  C   UNL     1       3.300   8.021  17.246  0.00  0.00    +0.000 C 
ATOM     13  C   UNL     1       2.126   8.833  17.820  0.00  0.00    +0.000 C 
ATOM     14  C   UNL     1       1.991   8.646  19.344  0.00  0.00    +0.000 C 
ATOM     15  C   UNL     1       0.849   9.484  19.949  0.00  0.00    +0.000 C 
ATOM     16  C   UNL     1       0.910  11.015  20.009  0.00  0.00    +0.000 C 
ATOM     17  C   UNL     1      -0.298  11.366  20.913  0.00  0.00    +0.000 C 
ATOM     18  C   UNL     1      -0.626  10.082  21.699  0.00  0.00    +0.000 C 
ENDROOT
BRANCH   8  19
ATOM     19  C   UNL     1       4.520   2.981  19.804  0.00  0.00    +0.000 C 
ATOM     20  N   UNL     1       4.780   1.976  20.330  0.00  0.00    +0.000 NA
ENDBRANCH   8  19
BRANCH   9  21
ATOM     21  O   UNL     1       5.976   3.967  17.483  0.00  0.00    +0.000 OA
ATOM     22  H   UNL     1       6.547   4.558  16.961  0.00  0.00    +0.000 HD
ENDBRANCH   9  21
BRANCH  18  23
ATOM     23  O   UNL     1      -0.894  10.311  23.068  0.00  0.00    +0.000 OA
ATOM     24  H   UNL     1      -0.083  10.172  23.581  0.00  0.00    +0.000 HD
ENDBRANCH  18  23
TORSDOF 3
ENDMDL
MODEL 6
REMARK VINA RESULT:      -6.5      2.854      7.344
REMARK  Name = 
REMARK  4 active torsions:
REMARK  status: ('A' for Active; 'I' for Inactive)
REMARK    1  A    between atoms: C_1  and  C_2
REMARK    2  A    between atoms: C_8  and  C_9
REMARK    3  A    between atoms: C_11  and  O_12
REMARK    4  A    between atoms: C_21  and  O_22
REMARK                            x       y       z     vdW  Elec       q    Type
REMARK                         _______ _______ _______ _____ _____    ______ ____
ROOT
ATOM      1  C   UNL     1      -0.947  10.161  17.579  0.00  0.00    +0.000 C 
ATOM      2  C   UNL     1       0.092  10.896  18.468  0.00  0.00    +0.000 C 
ATOM      3  C   UNL     1       1.469  10.802  17.816  0.00  0.00    +0.000 C 
ATOM      4  C   UNL     1       1.956   9.360  17.785  0.00  0.00    +0.000 C 
ATOM      5  C   UNL     1       1.962   8.698  19.178  0.00  0.00    +0.000 C 
ATOM      6  C   UNL     1       2.393   7.235  19.156  0.00  0.00    +0.000 A 
ATOM      7  C   UNL     1       3.120   6.691  18.069  0.00  0.00    +0.000 A 
ATOM      8  C   UNL     1       3.533   5.350  18.055  0.00  0.00    +0.000 A 
ATOM      9  C   UNL     1       3.239   4.551  19.152  0.00  0.00    +0.000 A 
ATOM     10  C   UNL     1       2.542   5.072  20.246  0.00  0.00    +0.000 A 
ATOM     11  C   UNL     1       2.113   6.416  20.259  0.00  0.00    +0.000 A 
ATOM     12  C   UNL     1       1.318   6.915  21.450  0.00  0.00    +0.000 C 
ATOM     13  C   UNL     1       0.916   8.399  21.410  0.00  0.00    +0.000 C 
ATOM     14  C   UNL     1       0.623   8.875  19.973  0.00  0.00    +0.000 C 
ATOM     15  C   UNL     1       0.176  10.348  19.912  0.00  0.00    +0.000 C 
ATOM     16  C   UNL     1      -1.171  10.811  20.481  0.00  0.00    +0.000 C 
ATOM     17  C   UNL     1      -1.277  12.265  19.957  0.00  0.00    +0.000 C 
ATOM     18  C   UNL     1      -0.312  12.354  18.758  0.00  0.00    +0.000 C 
ENDROOT
BRANCH   8  19
ATOM     19  C   UNL     1       4.253   4.854  16.915  0.00  0.00    +0.000 C 
ATOM     20  N   UNL     1       4.855   4.452  16.004  0.00  0.00    +0.000 NA
ENDBRANCH   8  19
BRANCH   9  21
ATOM     21  O   UNL     1       3.592   3.228  19.238  0.00  0.00    +0.000 OA
ATOM     22  H   UNL     1       2.808   2.672  19.396  0.00  0.00    +0.000 HD
ENDBRANCH   9  21
BRANCH  18  23
ATOM     23  O   UNL     1      -0.853  13.044  17.649  0.00  0.00    +0.000 OA
ATOM     24  H   UNL     1      -0.801  13.999  17.809  0.00  0.00    +0.000 HD
ENDBRANCH  18  23
TORSDOF 3
ENDMDL
MODEL 7
REMARK VINA RESULT:      -6.5      9.823     11.965
REMARK  Name = 
REMARK  4 active torsions:
REMARK  status: ('A' for Active; 'I' for Inactive)
REMARK    1  A    between atoms: C_1  and  C_2
REMARK    2  A    between atoms: C_8  and  C_9
REMARK    3  A    between atoms: C_11  and  O_12
REMARK    4  A    between atoms: C_21  and  O_22
REMARK                            x       y       z     vdW  Elec       q    Type
REMARK                         _______ _______ _______ _____ _____    ______ ____
ROOT
ATOM      1  C   UNL     1       6.861  14.489  22.993  0.00  0.00    +0.000 C 
ATOM      2  C   UNL     1       8.100  13.833  23.661  0.00  0.00    +0.000 C 
ATOM      3  C   UNL     1       9.303  14.759  23.511  0.00  0.00    +0.000 C 
ATOM      4  C   UNL     1       9.699  14.903  22.049  0.00  0.00    +0.000 C 
ATOM      5  C   UNL     1       9.962  13.548  21.361  0.00  0.00    +0.000 C 
ATOM      6  C   UNL     1      10.303  13.672  19.880  0.00  0.00    +0.000 A 
ATOM      7  C   UNL     1      10.757  14.892  19.322  0.00  0.00    +0.000 A 
ATOM      8  C   UNL     1      11.089  15.003  17.963  0.00  0.00    +0.000 A 
ATOM      9  C   UNL     1      10.991  13.875  17.159  0.00  0.00    +0.000 A 
ATOM     10  C   UNL     1      10.566  12.654  17.693  0.00  0.00    +0.000 A 
ATOM     11  C   UNL     1      10.219  12.541  19.055  0.00  0.00    +0.000 A 
ATOM     12  C   UNL     1       9.717  11.205  19.570  0.00  0.00    +0.000 C 
ATOM     13  C   UNL     1       9.392  11.149  21.073  0.00  0.00    +0.000 C 
ATOM     14  C   UNL     1       8.830  12.488  21.588  0.00  0.00    +0.000 C 
ATOM     15  C   UNL     1       8.456  12.442  23.082  0.00  0.00    +0.000 C 
ATOM     16  C   UNL     1       7.283  11.600  23.599  0.00  0.00    +0.000 C 
ATOM     17  C   UNL     1       7.145  12.078  25.066  0.00  0.00    +0.000 C 
ATOM     18  C   UNL     1       7.840  13.452  25.131  0.00  0.00    +0.000 C 
ENDROOT
BRANCH   8  19
ATOM     19  C   UNL     1      11.528  16.272  17.454  0.00  0.00    +0.000 C 
ATOM     20  N   UNL     1      11.877  17.311  17.061  0.00  0.00    +0.000 NA
ENDBRANCH   8  19
BRANCH   9  21
ATOM     21  O   UNL     1      11.286  13.875  15.819  0.00  0.00    +0.000 OA
ATOM     22  H   UNL     1      12.220  14.107  15.672  0.00  0.00    +0.000 HD
ENDBRANCH   9  21
BRANCH  18  23
ATOM     23  O   UNL     1       7.115  14.417  25.866  0.00  0.00    +0.000 OA
ATOM     24  H   UNL     1       6.417  14.790  25.306  0.00  0.00    +0.000 HD
ENDBRANCH  18  23
TORSDOF 3
ENDMDL
MODEL 8
REMARK VINA RESULT:      -6.5      9.114     10.758
REMARK  Name = 
REMARK  4 active torsions:
REMARK  status: ('A' for Active; 'I' for Inactive)
REMARK    1  A    between atoms: C_1  and  C_2
REMARK    2  A    between atoms: C_8  and  C_9
REMARK    3  A    between atoms: C_11  and  O_12
REMARK    4  A    between atoms: C_21  and  O_22
REMARK                            x       y       z     vdW  Elec       q    Type
REMARK                         _______ _______ _______ _____ _____    ______ ____
ROOT
ATOM      1  C   UNL     1       9.368  12.590  18.367  0.00  0.00    +0.000 C 
ATOM      2  C   UNL     1      10.638  12.501  19.254  0.00  0.00    +0.000 C 
ATOM      3  C   UNL     1      10.499  11.327  20.219  0.00  0.00    +0.000 C 
ATOM      4  C   UNL     1       9.368  11.569  21.208  0.00  0.00    +0.000 C 
ATOM      5  C   UNL     1       9.517  12.897  21.979  0.00  0.00    +0.000 C 
ATOM      6  C   UNL     1       8.361  13.181  22.932  0.00  0.00    +0.000 A 
ATOM      7  C   UNL     1       7.497  12.153  23.380  0.00  0.00    +0.000 A 
ATOM      8  C   UNL     1       6.444  12.410  24.271  0.00  0.00    +0.000 A 
ATOM      9  C   UNL     1       6.271  13.705  24.741  0.00  0.00    +0.000 A 
ATOM     10  C   UNL     1       7.126  14.733  24.330  0.00  0.00    +0.000 A 
ATOM     11  C   UNL     1       8.177  14.482  23.424  0.00  0.00    +0.000 A 
ATOM     12  C   UNL     1       9.043  15.643  22.975  0.00  0.00    +0.000 C 
ATOM     13  C   UNL     1      10.191  15.286  22.014  0.00  0.00    +0.000 C 
ATOM     14  C   UNL     1       9.806  14.136  21.063  0.00  0.00    +0.000 C 
ATOM     15  C   UNL     1      10.925  13.790  20.062  0.00  0.00    +0.000 C 
ATOM     16  C   UNL     1      11.338  14.753  18.942  0.00  0.00    +0.000 C 
ATOM     17  C   UNL     1      12.273  13.877  18.072  0.00  0.00    +0.000 C 
ATOM     18  C   UNL     1      11.931  12.416  18.420  0.00  0.00    +0.000 C 
ENDROOT
BRANCH   8  19
ATOM     19  C   UNL     1       5.592  11.327  24.675  0.00  0.00    +0.000 C 
ATOM     20  N   UNL     1       4.893  10.462  25.018  0.00  0.00    +0.000 NA
ENDBRANCH   8  19
BRANCH   9  21
ATOM     21  O   UNL     1       5.272  14.066  25.611  0.00  0.00    +0.000 OA
ATOM     22  H   UNL     1       4.743  13.290  25.868  0.00  0.00    +0.000 HD
ENDBRANCH   9  21
BRANCH  18  23
ATOM     23  O   UNL     1      11.843  11.572  17.289  0.00  0.00    +0.000 OA
ATOM     24  H   UNL     1      11.111  10.949  17.411  0.00  0.00    +0.000 HD
ENDBRANCH  18  23
TORSDOF 3
ENDMDL
MODEL 9
REMARK VINA RESULT:      -6.4      9.314     10.476
REMARK  Name = 
REMARK  4 active torsions:
REMARK  status: ('A' for Active; 'I' for Inactive)
REMARK    1  A    between atoms: C_1  and  C_2
REMARK    2  A    between atoms: C_8  and  C_9
REMARK    3  A    between atoms: C_11  and  O_12
REMARK    4  A    between atoms: C_21  and  O_22
REMARK                            x       y       z     vdW  Elec       q    Type
REMARK                         _______ _______ _______ _____ _____    ______ ____
ROOT
ATOM      1  C   UNL     1       9.519  11.410  18.450  0.00  0.00    +0.000 C 
ATOM      2  C   UNL     1      10.598  12.388  18.988  0.00  0.00    +0.000 C 
ATOM      3  C   UNL     1      11.026  11.948  20.384  0.00  0.00    +0.000 C 
ATOM      4  C   UNL     1       9.876  12.081  21.372  0.00  0.00    +0.000 C 
ATOM      5  C   UNL     1       9.274  13.501  21.405  0.00  0.00    +0.000 C 
ATOM      6  C   UNL     1       8.082  13.635  22.348  0.00  0.00    +0.000 A 
ATOM      7  C   UNL     1       7.847  12.701  23.386  0.00  0.00    +0.000 A 
ATOM      8  C   UNL     1       6.761  12.833  24.266  0.00  0.00    +0.000 A 
ATOM      9  C   UNL     1       5.917  13.926  24.122  0.00  0.00    +0.000 A 
ATOM     10  C   UNL     1       6.143  14.874  23.118  0.00  0.00    +0.000 A 
ATOM     11  C   UNL     1       7.225  14.738  22.223  0.00  0.00    +0.000 A 
ATOM     12  C   UNL     1       7.393  15.768  21.123  0.00  0.00    +0.000 C 
ATOM     13  C   UNL     1       8.615  15.574  20.209  0.00  0.00    +0.000 C 
ATOM     14  C   UNL     1       8.936  14.083  19.989  0.00  0.00    +0.000 C 
ATOM     15  C   UNL     1      10.130  13.863  19.041  0.00  0.00    +0.000 C 
ATOM     16  C   UNL     1      10.053  14.201  17.547  0.00  0.00    +0.000 C 
ATOM     17  C   UNL     1      11.356  13.574  16.992  0.00  0.00    +0.000 C 
ATOM     18  C   UNL     1      11.796  12.523  18.029  0.00  0.00    +0.000 C 
ENDROOT
BRANCH   8  19
ATOM     19  C   UNL     1       6.568  11.843  25.287  0.00  0.00    +0.000 C 
ATOM     20  N   UNL     1       6.391  11.051  26.122  0.00  0.00    +0.000 NA
ENDBRANCH   8  19
BRANCH   9  21
ATOM     21  O   UNL     1       4.827  14.148  24.924  0.00  0.00    +0.000 OA
ATOM     22  H   UNL     1       4.470  13.308  25.262  0.00  0.00    +0.000 HD
ENDBRANCH   9  21
BRANCH  18  23
ATOM     23  O   UNL     1      12.223  11.305  17.451  0.00  0.00    +0.000 OA
ATOM     24  H   UNL     1      12.159  11.368  16.486  0.00  0.00    +0.000 HD
ENDBRANCH  18  23
TORSDOF 3
ENDMDL
