MODEL 1
REMARK VINA RESULT:      -7.1      0.000      0.000
REMARK  Name = 
REMARK  12 active torsions:
REMARK  status: ('A' for Active; 'I' for Inactive)
REMARK    1  A    between atoms: C_1  and  O_2
REMARK    2  A    between atoms: O_2  and  C_3
REMARK    3  A    between atoms: C_3  and  C_5
REMARK    4  A    between atoms: C_5  and  C_6
REMARK    5  A    between atoms: C_5  and  C_16
REMARK    6  A    between atoms: C_6  and  N_7
REMARK    7  A    between atoms: C_8  and  C_10
REMARK    8  A    between atoms: C_10  and  N_11
REMARK    9  A    between atoms: C_10  and  C_12
REMARK   10  A    between atoms: C_12  and  C_13
REMARK   11  A    between atoms: C_13  and  O_15
REMARK   12  A    between atoms: C_16  and  C_17
REMARK                            x       y       z     vdW  Elec       q    Type
REMARK                         _______ _______ _______ _____ _____    ______ ____
ROOT
ATOM      1  C   UNL     1       3.898   7.497  17.276  0.00  0.00    +0.000 C 
ENDROOT
BRANCH   1   2
ATOM      2  N   UNL     1       4.715   6.302  17.210  0.00  0.00    +0.000 N 
ATOM      3  C   UNL     1       6.066   6.319  16.962  0.00  0.00    +0.000 C 
ATOM      4  O   UNL     1       6.703   7.336  16.692  0.00  0.00    +0.000 OA
ATOM      5  H   UNL     1       4.346   5.407  17.542  0.00  0.00    +0.000 HD
BRANCH   3   6
ATOM      6  C   UNL     1       6.729   4.927  17.040  0.00  0.00    +0.000 C 
BRANCH   6   7
ATOM      7  N   UNL     1       5.695   3.873  17.176  0.00  0.00    +0.000 NA
ATOM      8  H   UNL     1       4.809   4.312  17.451  0.00  0.00    +0.000 HD
ATOM      9  H   UNL     1       5.932   3.283  17.979  0.00  0.00    +0.000 HD
ENDBRANCH   6   7
BRANCH   6  10
ATOM     10  C   UNL     1       7.788   4.912  18.141  0.00  0.00    +0.000 C 
BRANCH  10  11
ATOM     11  C   UNL     1       7.188   5.152  19.501  0.00  0.00    +0.000 C 
ATOM     12  O   UNL     1       5.992   5.037  19.730  0.00  0.00    +0.000 OA
BRANCH  11  13
ATOM     13  O   UNL     1       8.070   5.551  20.440  0.00  0.00    +0.000 OA
ATOM     14  H   UNL     1       8.483   6.428  20.254  0.00  0.00    +0.000 HD
ENDBRANCH  11  13
ENDBRANCH  10  11
ENDBRANCH   6  10
ENDBRANCH   3   6
ENDBRANCH   1   2
BRANCH   1  15
ATOM     15  C   UNL     1       2.562   7.312  18.011  0.00  0.00    +0.000 C 
BRANCH  15  16
ATOM     16  C   UNL     1       1.988   8.687  18.280  0.00  0.00    +0.000 C 
ATOM     17  O   UNL     1       1.911   9.585  17.452  0.00  0.00    +0.000 OA
BRANCH  16  19
ATOM     18  C   UNL     1       0.586   9.824  19.782  0.00  0.00    +0.000 C 
ATOM     19  O   UNL     1       1.496   8.747  19.551  0.00  0.00    +0.000 OA
ENDBRANCH  16  19
ENDBRANCH  15  16
BRANCH  15  20
ATOM     20  C   UNL     1       2.811   6.558  19.330  0.00  0.00    +0.000 C 
BRANCH  20  21
ATOM     21  C   UNL     1       2.177   5.191  19.455  0.00  0.00    +0.000 A 
ATOM     22  C   UNL     1       1.807   4.665  20.698  0.00  0.00    +0.000 A 
ATOM     23  C   UNL     1       1.166   3.425  20.783  0.00  0.00    +0.000 A 
ATOM     24  C   UNL     1       0.885   2.700  19.626  0.00  0.00    +0.000 A 
ATOM     25  C   UNL     1       1.252   3.211  18.383  0.00  0.00    +0.000 A 
ATOM     26  C   UNL     1       1.894   4.448  18.299  0.00  0.00    +0.000 A 
ENDBRANCH  20  21
ENDBRANCH  15  20
ENDBRANCH   1  15
TORSDOF 11
ENDMDL
MODEL 2
REMARK VINA RESULT:      -7.1      3.234      6.569
REMARK  Name = 
REMARK  12 active torsions:
REMARK  status: ('A' for Active; 'I' for Inactive)
REMARK    1  A    between atoms: C_1  and  O_2
REMARK    2  A    between atoms: O_2  and  C_3
REMARK    3  A    between atoms: C_3  and  C_5
REMARK    4  A    between atoms: C_5  and  C_6
REMARK    5  A    between atoms: C_5  and  C_16
REMARK    6  A    between atoms: C_6  and  N_7
REMARK    7  A    between atoms: C_8  and  C_10
REMARK    8  A    between atoms: C_10  and  N_11
REMARK    9  A    between atoms: C_10  and  C_12
REMARK   10  A    between atoms: C_12  and  C_13
REMARK   11  A    between atoms: C_13  and  O_15
REMARK   12  A    between atoms: C_16  and  C_17
REMARK                            x       y       z     vdW  Elec       q    Type
REMARK                         _______ _______ _______ _____ _____    ______ ____
ROOT
ATOM      1  C   UNL     1       4.067   3.591  17.058  0.00  0.00    +0.000 C 
ENDROOT
BRANCH   1   2
ATOM      2  N   UNL     1       3.431   4.119  18.247  0.00  0.00    +0.000 N 
ATOM      3  C   UNL     1       2.083   4.359  18.344  0.00  0.00    +0.000 C 
ATOM      4  O   UNL     1       1.292   4.229  17.411  0.00  0.00    +0.000 OA
ATOM      5  H   UNL     1       3.943   4.151  19.133  0.00  0.00    +0.000 HD
BRANCH   3   6
ATOM      6  C   UNL     1       1.635   4.828  19.745  0.00  0.00    +0.000 C 
BRANCH   6   7
ATOM      7  N   UNL     1       2.779   5.419  20.479  0.00  0.00    +0.000 NA
ATOM      8  H   UNL     1       2.424   5.895  21.316  0.00  0.00    +0.000 HD
ATOM      9  H   UNL     1       3.172   6.179  19.917  0.00  0.00    +0.000 HD
ENDBRANCH   6   7
BRANCH   6  10
ATOM     10  C   UNL     1       0.939   3.685  20.482  0.00  0.00    +0.000 C 
BRANCH  10  11
ATOM     11  C   UNL     1       1.902   2.894  21.328  0.00  0.00    +0.000 C 
ATOM     12  O   UNL     1       3.049   2.651  20.978  0.00  0.00    +0.000 OA
BRANCH  11  13
ATOM     13  O   UNL     1       1.383   2.432  22.484  0.00  0.00    +0.000 OA
ATOM     14  H   UNL     1       1.669   2.940  23.282  0.00  0.00    +0.000 HD
ENDBRANCH  11  13
ENDBRANCH  10  11
ENDBRANCH   6  10
ENDBRANCH   3   6
ENDBRANCH   1   2
BRANCH   1  15
ATOM     15  C   UNL     1       5.489   4.118  16.810  0.00  0.00    +0.000 C 
BRANCH  15  16
ATOM     16  C   UNL     1       5.966   4.782  18.083  0.00  0.00    +0.000 C 
ATOM     17  O   UNL     1       6.207   4.193  19.129  0.00  0.00    +0.000 OA
BRANCH  16  19
ATOM     18  C   UNL     1       7.493   6.564  18.144  0.00  0.00    +0.000 C 
ATOM     19  O   UNL     1       6.165   6.114  17.869  0.00  0.00    +0.000 OA
ENDBRANCH  16  19
ENDBRANCH  15  16
BRANCH  15  20
ATOM     20  C   UNL     1       5.457   5.127  15.648  0.00  0.00    +0.000 C 
BRANCH  20  21
ATOM     21  C   UNL     1       6.037   4.658  14.332  0.00  0.00    +0.000 A 
ATOM     22  C   UNL     1       5.362   3.740  13.519  0.00  0.00    +0.000 A 
ATOM     23  C   UNL     1       5.889   3.368  12.278  0.00  0.00    +0.000 A 
ATOM     24  C   UNL     1       7.093   3.913  11.835  0.00  0.00    +0.000 A 
ATOM     25  C   UNL     1       7.777   4.825  12.636  0.00  0.00    +0.000 A 
ATOM     26  C   UNL     1       7.252   5.194  13.877  0.00  0.00    +0.000 A 
ENDBRANCH  20  21
ENDBRANCH  15  20
ENDBRANCH   1  15
TORSDOF 11
ENDMDL
MODEL 3
REMARK VINA RESULT:      -7.1      2.527      4.590
REMARK  Name = 
REMARK  12 active torsions:
REMARK  status: ('A' for Active; 'I' for Inactive)
REMARK    1  A    between atoms: C_1  and  O_2
REMARK    2  A    between atoms: O_2  and  C_3
REMARK    3  A    between atoms: C_3  and  C_5
REMARK    4  A    between atoms: C_5  and  C_6
REMARK    5  A    between atoms: C_5  and  C_16
REMARK    6  A    between atoms: C_6  and  N_7
REMARK    7  A    between atoms: C_8  and  C_10
REMARK    8  A    between atoms: C_10  and  N_11
REMARK    9  A    between atoms: C_10  and  C_12
REMARK   10  A    between atoms: C_12  and  C_13
REMARK   11  A    between atoms: C_13  and  O_15
REMARK   12  A    between atoms: C_16  and  C_17
REMARK                            x       y       z     vdW  Elec       q    Type
REMARK                         _______ _______ _______ _____ _____    ______ ____
ROOT
ATOM      1  C   UNL     1       4.283   3.728  18.924  0.00  0.00    +0.000 C 
ENDROOT
BRANCH   1   2
ATOM      2  N   UNL     1       5.064   4.036  17.743  0.00  0.00    +0.000 N 
ATOM      3  C   UNL     1       6.363   4.480  17.787  0.00  0.00    +0.000 C 
ATOM      4  O   UNL     1       6.967   4.739  18.827  0.00  0.00    +0.000 OA
ATOM      5  H   UNL     1       4.736   3.745  16.818  0.00  0.00    +0.000 HD
BRANCH   3   6
ATOM      6  C   UNL     1       7.011   4.643  16.396  0.00  0.00    +0.000 C 
BRANCH   6   7
ATOM      7  N   UNL     1       7.549   6.015  16.238  0.00  0.00    +0.000 NA
ATOM      8  H   UNL     1       7.587   6.464  17.160  0.00  0.00    +0.000 HD
ATOM      9  H   UNL     1       6.865   6.578  15.723  0.00  0.00    +0.000 HD
ENDBRANCH   6   7
BRANCH   6  10
ATOM     10  C   UNL     1       6.025   4.226  15.306  0.00  0.00    +0.000 C 
BRANCH  10  11
ATOM     11  C   UNL     1       6.646   4.281  13.935  0.00  0.00    +0.000 C 
ATOM     12  O   UNL     1       7.340   5.214  13.557  0.00  0.00    +0.000 OA
BRANCH  11  13
ATOM     13  O   UNL     1       6.335   3.239  13.137  0.00  0.00    +0.000 OA
ATOM     14  H   UNL     1       5.489   3.354  12.641  0.00  0.00    +0.000 HD
ENDBRANCH  11  13
ENDBRANCH  10  11
ENDBRANCH   6  10
ENDBRANCH   3   6
ENDBRANCH   1   2
BRANCH   1  15
ATOM     15  C   UNL     1       3.015   4.579  19.086  0.00  0.00    +0.000 C 
BRANCH  15  16
ATOM     16  C   UNL     1       1.852   3.792  18.520  0.00  0.00    +0.000 C 
ATOM     17  O   UNL     1       1.843   3.255  17.420  0.00  0.00    +0.000 OA
BRANCH  16  19
ATOM     18  C   UNL     1       1.311   3.635  20.799  0.00  0.00    +0.000 C 
ATOM     19  O   UNL     1       0.856   3.700  19.447  0.00  0.00    +0.000 OA
ENDBRANCH  16  19
ENDBRANCH  15  16
BRANCH  15  20
ATOM     20  C   UNL     1       3.196   5.905  18.325  0.00  0.00    +0.000 C 
BRANCH  20  21
ATOM     21  C   UNL     1       2.414   7.092  18.843  0.00  0.00    +0.000 A 
ATOM     22  C   UNL     1       2.023   7.183  20.184  0.00  0.00    +0.000 A 
ATOM     23  C   UNL     1       1.355   8.318  20.653  0.00  0.00    +0.000 A 
ATOM     24  C   UNL     1       1.074   9.375  19.789  0.00  0.00    +0.000 A 
ATOM     25  C   UNL     1       1.455   9.295  18.451  0.00  0.00    +0.000 A 
ATOM     26  C   UNL     1       2.120   8.160  17.982  0.00  0.00    +0.000 A 
ENDBRANCH  20  21
ENDBRANCH  15  20
ENDBRANCH   1  15
TORSDOF 11
ENDMDL
MODEL 4
REMARK VINA RESULT:      -7.0      2.174      4.478
REMARK  Name = 
REMARK  12 active torsions:
REMARK  status: ('A' for Active; 'I' for Inactive)
REMARK    1  A    between atoms: C_1  and  O_2
REMARK    2  A    between atoms: O_2  and  C_3
REMARK    3  A    between atoms: C_3  and  C_5
REMARK    4  A    between atoms: C_5  and  C_6
REMARK    5  A    between atoms: C_5  and  C_16
REMARK    6  A    between atoms: C_6  and  N_7
REMARK    7  A    between atoms: C_8  and  C_10
REMARK    8  A    between atoms: C_10  and  N_11
REMARK    9  A    between atoms: C_10  and  C_12
REMARK   10  A    between atoms: C_12  and  C_13
REMARK   11  A    between atoms: C_13  and  O_15
REMARK   12  A    between atoms: C_16  and  C_17
REMARK                            x       y       z     vdW  Elec       q    Type
REMARK                         _______ _______ _______ _____ _____    ______ ____
ROOT
ATOM      1  C   UNL     1       4.200   5.220  19.386  0.00  0.00    +0.000 C 
ENDROOT
BRANCH   1   2
ATOM      2  N   UNL     1       5.288   5.505  18.473  0.00  0.00    +0.000 N 
ATOM      3  C   UNL     1       6.613   5.423  18.823  0.00  0.00    +0.000 C 
ATOM      4  O   UNL     1       7.011   5.180  19.962  0.00  0.00    +0.000 OA
ATOM      5  H   UNL     1       5.108   5.591  17.469  0.00  0.00    +0.000 HD
BRANCH   3   6
ATOM      6  C   UNL     1       7.582   5.679  17.649  0.00  0.00    +0.000 C 
BRANCH   6   7
ATOM      7  N   UNL     1       7.390   7.048  17.113  0.00  0.00    +0.000 NA
ATOM      8  H   UNL     1       7.716   7.071  16.140  0.00  0.00    +0.000 HD
ATOM      9  H   UNL     1       8.030   7.683  17.598  0.00  0.00    +0.000 HD
ENDBRANCH   6   7
BRANCH   6  10
ATOM     10  C   UNL     1       7.445   4.572  16.606  0.00  0.00    +0.000 C 
BRANCH  10  11
ATOM     11  C   UNL     1       6.759   5.059  15.356  0.00  0.00    +0.000 C 
ATOM     12  O   UNL     1       5.543   5.131  15.251  0.00  0.00    +0.000 OA
BRANCH  11  13
ATOM     13  O   UNL     1       7.594   5.365  14.342  0.00  0.00    +0.000 OA
ATOM     14  H   UNL     1       7.842   4.591  13.781  0.00  0.00    +0.000 HD
ENDBRANCH  11  13
ENDBRANCH  10  11
ENDBRANCH   6  10
ENDBRANCH   3   6
ENDBRANCH   1   2
BRANCH   1  15
ATOM     15  C   UNL     1       2.801   5.337  18.762  0.00  0.00    +0.000 C 
BRANCH  15  16
ATOM     16  C   UNL     1       2.594   4.140  17.859  0.00  0.00    +0.000 C 
ATOM     17  O   UNL     1       3.488   3.551  17.266  0.00  0.00    +0.000 OA
BRANCH  16  19
ATOM     18  C   UNL     1       0.985   2.676  18.743  0.00  0.00    +0.000 C 
ATOM     19  O   UNL     1       1.282   3.768  17.870  0.00  0.00    +0.000 OA
ENDBRANCH  16  19
ENDBRANCH  15  16
BRANCH  15  20
ATOM     20  C   UNL     1       2.713   6.647  17.959  0.00  0.00    +0.000 C 
BRANCH  20  21
ATOM     21  C   UNL     1       2.033   7.812  18.642  0.00  0.00    +0.000 A 
ATOM     22  C   UNL     1       1.692   7.769  19.999  0.00  0.00    +0.000 A 
ATOM     23  C   UNL     1       1.120   8.882  20.623  0.00  0.00    +0.000 A 
ATOM     24  C   UNL     1       0.885  10.049  19.899  0.00  0.00    +0.000 A 
ATOM     25  C   UNL     1       1.215  10.104  18.547  0.00  0.00    +0.000 A 
ATOM     26  C   UNL     1       1.785   8.992  17.923  0.00  0.00    +0.000 A 
ENDBRANCH  20  21
ENDBRANCH  15  20
ENDBRANCH   1  15
TORSDOF 11
ENDMDL
MODEL 5
REMARK VINA RESULT:      -7.0      3.644      5.469
REMARK  Name = 
REMARK  12 active torsions:
REMARK  status: ('A' for Active; 'I' for Inactive)
REMARK    1  A    between atoms: C_1  and  O_2
REMARK    2  A    between atoms: O_2  and  C_3
REMARK    3  A    between atoms: C_3  and  C_5
REMARK    4  A    between atoms: C_5  and  C_6
REMARK    5  A    between atoms: C_5  and  C_16
REMARK    6  A    between atoms: C_6  and  N_7
REMARK    7  A    between atoms: C_8  and  C_10
REMARK    8  A    between atoms: C_10  and  N_11
REMARK    9  A    between atoms: C_10  and  C_12
REMARK   10  A    between atoms: C_12  and  C_13
REMARK   11  A    between atoms: C_13  and  O_15
REMARK   12  A    between atoms: C_16  and  C_17
REMARK                            x       y       z     vdW  Elec       q    Type
REMARK                         _______ _______ _______ _____ _____    ______ ____
ROOT
ATOM      1  C   UNL     1       5.538   5.852  16.086  0.00  0.00    +0.000 C 
ENDROOT
BRANCH   1   2
ATOM      2  N   UNL     1       5.568   5.016  14.903  0.00  0.00    +0.000 N 
ATOM      3  C   UNL     1       6.683   4.851  14.118  0.00  0.00    +0.000 C 
ATOM      4  O   UNL     1       7.741   5.456  14.290  0.00  0.00    +0.000 OA
ATOM      5  H   UNL     1       4.806   4.359  14.718  0.00  0.00    +0.000 HD
BRANCH   3   6
ATOM      6  C   UNL     1       6.491   3.835  12.973  0.00  0.00    +0.000 C 
BRANCH   6   7
ATOM      7  N   UNL     1       7.323   4.214  11.806  0.00  0.00    +0.000 NA
ATOM      8  H   UNL     1       6.939   3.765  10.966  0.00  0.00    +0.000 HD
ATOM      9  H   UNL     1       8.247   3.784  11.908  0.00  0.00    +0.000 HD
ENDBRANCH   6   7
BRANCH   6  10
ATOM     10  C   UNL     1       5.005   3.674  12.658  0.00  0.00    +0.000 C 
BRANCH  10  11
ATOM     11  C   UNL     1       4.772   2.698  11.535  0.00  0.00    +0.000 C 
ATOM     12  O   UNL     1       5.528   1.767  11.295  0.00  0.00    +0.000 OA
BRANCH  11  13
ATOM     13  O   UNL     1       3.684   2.960  10.782  0.00  0.00    +0.000 OA
ATOM     14  H   UNL     1       3.068   3.620  11.184  0.00  0.00    +0.000 HD
ENDBRANCH  11  13
ENDBRANCH  10  11
ENDBRANCH   6  10
ENDBRANCH   3   6
ENDBRANCH   1   2
BRANCH   1  15
ATOM     15  C   UNL     1       5.355   5.083  17.403  0.00  0.00    +0.000 C 
BRANCH  15  16
ATOM     16  C   UNL     1       6.729   4.705  17.914  0.00  0.00    +0.000 C 
ATOM     17  O   UNL     1       7.669   4.369  17.205  0.00  0.00    +0.000 OA
BRANCH  16  19
ATOM     18  C   UNL     1       7.834   5.739  19.709  0.00  0.00    +0.000 C 
ATOM     19  O   UNL     1       6.787   4.873  19.266  0.00  0.00    +0.000 OA
ENDBRANCH  16  19
ENDBRANCH  15  16
BRANCH  15  20
ATOM     20  C   UNL     1       4.507   3.825  17.140  0.00  0.00    +0.000 C 
BRANCH  20  21
ATOM     21  C   UNL     1       3.292   3.636  18.019  0.00  0.00    +0.000 A 
ATOM     22  C   UNL     1       2.933   4.581  18.987  0.00  0.00    +0.000 A 
ATOM     23  C   UNL     1       1.771   4.415  19.747  0.00  0.00    +0.000 A 
ATOM     24  C   UNL     1       0.953   3.304  19.543  0.00  0.00    +0.000 A 
ATOM     25  C   UNL     1       1.301   2.354  18.586  0.00  0.00    +0.000 A 
ATOM     26  C   UNL     1       2.463   2.519  17.830  0.00  0.00    +0.000 A 
ENDBRANCH  20  21
ENDBRANCH  15  20
ENDBRANCH   1  15
TORSDOF 11
ENDMDL
MODEL 6
REMARK VINA RESULT:      -7.0      2.897      5.284
REMARK  Name = 
REMARK  12 active torsions:
REMARK  status: ('A' for Active; 'I' for Inactive)
REMARK    1  A    between atoms: C_1  and  O_2
REMARK    2  A    between atoms: O_2  and  C_3
REMARK    3  A    between atoms: C_3  and  C_5
REMARK    4  A    between atoms: C_5  and  C_6
REMARK    5  A    between atoms: C_5  and  C_16
REMARK    6  A    between atoms: C_6  and  N_7
REMARK    7  A    between atoms: C_8  and  C_10
REMARK    8  A    between atoms: C_10  and  N_11
REMARK    9  A    between atoms: C_10  and  C_12
REMARK   10  A    between atoms: C_12  and  C_13
REMARK   11  A    between atoms: C_13  and  O_15
REMARK   12  A    between atoms: C_16  and  C_17
REMARK                            x       y       z     vdW  Elec       q    Type
REMARK                         _______ _______ _______ _____ _____    ______ ____
ROOT
ATOM      1  C   UNL     1       5.614   5.826  18.330  0.00  0.00    +0.000 C 
ENDROOT
BRANCH   1   2
ATOM      2  N   UNL     1       6.108   5.097  17.179  0.00  0.00    +0.000 N 
ATOM      3  C   UNL     1       5.990   5.547  15.888  0.00  0.00    +0.000 C 
ATOM      4  O   UNL     1       5.385   6.570  15.567  0.00  0.00    +0.000 OA
ATOM      5  H   UNL     1       6.742   4.303  17.306  0.00  0.00    +0.000 HD
BRANCH   3   6
ATOM      6  C   UNL     1       6.682   4.640  14.848  0.00  0.00    +0.000 C 
BRANCH   6   7
ATOM      7  N   UNL     1       7.884   5.313  14.299  0.00  0.00    +0.000 NA
ATOM      8  H   UNL     1       8.477   4.610  13.843  0.00  0.00    +0.000 HD
ATOM      9  H   UNL     1       8.458   5.647  15.078  0.00  0.00    +0.000 HD
ENDBRANCH   6   7
BRANCH   6  10
ATOM     10  C   UNL     1       5.675   4.193  13.790  0.00  0.00    +0.000 C 
BRANCH  10  11
ATOM     11  C   UNL     1       6.354   3.600  12.583  0.00  0.00    +0.000 C 
ATOM     12  O   UNL     1       7.083   4.249  11.846  0.00  0.00    +0.000 OA
BRANCH  11  13
ATOM     13  O   UNL     1       6.056   2.305  12.353  0.00  0.00    +0.000 OA
ATOM     14  H   UNL     1       6.804   1.783  11.976  0.00  0.00    +0.000 HD
ENDBRANCH  11  13
ENDBRANCH  10  11
ENDBRANCH   6  10
ENDBRANCH   3   6
ENDBRANCH   1   2
BRANCH   1  15
ATOM     15  C   UNL     1       4.378   5.202  18.994  0.00  0.00    +0.000 C 
BRANCH  15  16
ATOM     16  C   UNL     1       4.526   3.697  18.928  0.00  0.00    +0.000 C 
ATOM     17  O   UNL     1       5.095   3.014  19.770  0.00  0.00    +0.000 OA
BRANCH  16  19
ATOM     18  C   UNL     1       3.233   1.945  18.051  0.00  0.00    +0.000 C 
ATOM     19  O   UNL     1       3.863   3.210  17.840  0.00  0.00    +0.000 OA
ENDBRANCH  16  19
ENDBRANCH  15  16
BRANCH  15  20
ATOM     20  C   UNL     1       3.115   5.659  18.241  0.00  0.00    +0.000 C 
BRANCH  20  21
ATOM     21  C   UNL     1       2.493   6.960  18.696  0.00  0.00    +0.000 A 
ATOM     22  C   UNL     1       2.267   8.016  17.805  0.00  0.00    +0.000 A 
ATOM     23  C   UNL     1       1.633   9.185  18.236  0.00  0.00    +0.000 A 
ATOM     24  C   UNL     1       1.216   9.311  19.560  0.00  0.00    +0.000 A 
ATOM     25  C   UNL     1       1.439   8.269  20.458  0.00  0.00    +0.000 A 
ATOM     26  C   UNL     1       2.073   7.102  20.028  0.00  0.00    +0.000 A 
ENDBRANCH  20  21
ENDBRANCH  15  20
ENDBRANCH   1  15
TORSDOF 11
ENDMDL
MODEL 7
REMARK VINA RESULT:      -6.9      3.003      5.254
REMARK  Name = 
REMARK  12 active torsions:
REMARK  status: ('A' for Active; 'I' for Inactive)
REMARK    1  A    between atoms: C_1  and  O_2
REMARK    2  A    between atoms: O_2  and  C_3
REMARK    3  A    between atoms: C_3  and  C_5
REMARK    4  A    between atoms: C_5  and  C_6
REMARK    5  A    between atoms: C_5  and  C_16
REMARK    6  A    between atoms: C_6  and  N_7
REMARK    7  A    between atoms: C_8  and  C_10
REMARK    8  A    between atoms: C_10  and  N_11
REMARK    9  A    between atoms: C_10  and  C_12
REMARK   10  A    between atoms: C_12  and  C_13
REMARK   11  A    between atoms: C_13  and  O_15
REMARK   12  A    between atoms: C_16  and  C_17
REMARK                            x       y       z     vdW  Elec       q    Type
REMARK                         _______ _______ _______ _____ _____    ______ ____
ROOT
ATOM      1  C   UNL     1       5.980   6.067  17.838  0.00  0.00    +0.000 C 
ENDROOT
BRANCH   1   2
ATOM      2  N   UNL     1       6.226   5.673  16.466  0.00  0.00    +0.000 N 
ATOM      3  C   UNL     1       7.182   4.758  16.099  0.00  0.00    +0.000 C 
ATOM      4  O   UNL     1       7.979   4.243  16.882  0.00  0.00    +0.000 OA
ATOM      5  H   UNL     1       5.557   5.921  15.731  0.00  0.00    +0.000 HD
BRANCH   3   6
ATOM      6  C   UNL     1       7.183   4.433  14.590  0.00  0.00    +0.000 C 
BRANCH   6   7
ATOM      7  N   UNL     1       7.830   5.528  13.829  0.00  0.00    +0.000 NA
ATOM      8  H   UNL     1       7.101   6.107  13.397  0.00  0.00    +0.000 HD
ATOM      9  H   UNL     1       8.324   5.123  13.027  0.00  0.00    +0.000 HD
ENDBRANCH   6   7
BRANCH   6  10
ATOM     10  C   UNL     1       5.767   4.098  14.125  0.00  0.00    +0.000 C 
BRANCH  10  11
ATOM     11  C   UNL     1       5.748   3.577  12.712  0.00  0.00    +0.000 C 
ATOM     12  O   UNL     1       6.764   3.284  12.098  0.00  0.00    +0.000 OA
BRANCH  11  13
ATOM     13  O   UNL     1       4.520   3.505  12.158  0.00  0.00    +0.000 OA
ATOM     14  H   UNL     1       3.922   4.249  12.412  0.00  0.00    +0.000 HD
ENDBRANCH  11  13
ENDBRANCH  10  11
ENDBRANCH   6  10
ENDBRANCH   3   6
ENDBRANCH   1   2
BRANCH   1  15
ATOM     15  C   UNL     1       4.624   5.612  18.397  0.00  0.00    +0.000 C 
BRANCH  15  16
ATOM     16  C   UNL     1       4.533   4.111  18.227  0.00  0.00    +0.000 C 
ATOM     17  O   UNL     1       4.048   3.546  17.256  0.00  0.00    +0.000 OA
BRANCH  16  19
ATOM     18  C   UNL     1       4.349   2.478  19.904  0.00  0.00    +0.000 C 
ATOM     19  O   UNL     1       5.143   3.485  19.275  0.00  0.00    +0.000 OA
ENDBRANCH  16  19
ENDBRANCH  15  16
BRANCH  15  20
ATOM     20  C   UNL     1       3.496   6.317  17.622  0.00  0.00    +0.000 C 
BRANCH  20  21
ATOM     21  C   UNL     1       2.693   7.345  18.386  0.00  0.00    +0.000 A 
ATOM     22  C   UNL     1       2.229   8.516  17.775  0.00  0.00    +0.000 A 
ATOM     23  C   UNL     1       1.437   9.423  18.486  0.00  0.00    +0.000 A 
ATOM     24  C   UNL     1       1.096   9.166  19.813  0.00  0.00    +0.000 A 
ATOM     25  C   UNL     1       1.553   8.007  20.434  0.00  0.00    +0.000 A 
ATOM     26  C   UNL     1       2.347   7.103  19.725  0.00  0.00    +0.000 A 
ENDBRANCH  20  21
ENDBRANCH  15  20
ENDBRANCH   1  15
TORSDOF 11
ENDMDL
MODEL 8
REMARK VINA RESULT:      -6.9      1.214      1.619
REMARK  Name = 
REMARK  12 active torsions:
REMARK  status: ('A' for Active; 'I' for Inactive)
REMARK    1  A    between atoms: C_1  and  O_2
REMARK    2  A    between atoms: O_2  and  C_3
REMARK    3  A    between atoms: C_3  and  C_5
REMARK    4  A    between atoms: C_5  and  C_6
REMARK    5  A    between atoms: C_5  and  C_16
REMARK    6  A    between atoms: C_6  and  N_7
REMARK    7  A    between atoms: C_8  and  C_10
REMARK    8  A    between atoms: C_10  and  N_11
REMARK    9  A    between atoms: C_10  and  C_12
REMARK   10  A    between atoms: C_12  and  C_13
REMARK   11  A    between atoms: C_13  and  O_15
REMARK   12  A    between atoms: C_16  and  C_17
REMARK                            x       y       z     vdW  Elec       q    Type
REMARK                         _______ _______ _______ _____ _____    ______ ____
ROOT
ATOM      1  C   UNL     1       3.468   7.960  17.399  0.00  0.00    +0.000 C 
ENDROOT
BRANCH   1   2
ATOM      2  N   UNL     1       4.546   6.995  17.473  0.00  0.00    +0.000 N 
ATOM      3  C   UNL     1       5.280   6.591  16.385  0.00  0.00    +0.000 C 
ATOM      4  O   UNL     1       5.046   6.942  15.229  0.00  0.00    +0.000 OA
ATOM      5  H   UNL     1       4.931   6.721  18.382  0.00  0.00    +0.000 HD
BRANCH   3   6
ATOM      6  C   UNL     1       6.436   5.631  16.736  0.00  0.00    +0.000 C 
BRANCH   6   7
ATOM      7  N   UNL     1       7.379   5.524  15.597  0.00  0.00    +0.000 NA
ATOM      8  H   UNL     1       7.092   4.737  15.003  0.00  0.00    +0.000 HD
ATOM      9  H   UNL     1       8.294   5.236  15.955  0.00  0.00    +0.000 HD
ENDBRANCH   6   7
BRANCH   6  10
ATOM     10  C   UNL     1       5.878   4.292  17.217  0.00  0.00    +0.000 C 
BRANCH  10  11
ATOM     11  C   UNL     1       5.778   4.232  18.718  0.00  0.00    +0.000 C 
ATOM     12  O   UNL     1       6.241   5.095  19.450  0.00  0.00    +0.000 OA
BRANCH  11  13
ATOM     13  O   UNL     1       5.176   3.123  19.195  0.00  0.00    +0.000 OA
ATOM     14  H   UNL     1       5.793   2.366  19.345  0.00  0.00    +0.000 HD
ENDBRANCH  11  13
ENDBRANCH  10  11
ENDBRANCH   6  10
ENDBRANCH   3   6
ENDBRANCH   1   2
BRANCH   1  15
ATOM     15  C   UNL     1       2.238   7.604  18.247  0.00  0.00    +0.000 C 
BRANCH  15  16
ATOM     16  C   UNL     1       1.642   8.896  18.764  0.00  0.00    +0.000 C 
ATOM     17  O   UNL     1       1.168   9.048  19.882  0.00  0.00    +0.000 OA
BRANCH  16  19
ATOM     18  C   UNL     1       1.872  11.200  18.377  0.00  0.00    +0.000 C 
ATOM     19  O   UNL     1       1.786   9.882  17.833  0.00  0.00    +0.000 OA
ENDBRANCH  16  19
ENDBRANCH  15  16
BRANCH  15  20
ATOM     20  C   UNL     1       2.673   6.700  19.414  0.00  0.00    +0.000 C 
BRANCH  20  21
ATOM     21  C   UNL     1       2.111   5.296  19.425  0.00  0.00    +0.000 A 
ATOM     22  C   UNL     1       1.643   4.703  20.604  0.00  0.00    +0.000 A 
ATOM     23  C   UNL     1       1.071   3.427  20.578  0.00  0.00    +0.000 A 
ATOM     24  C   UNL     1       0.957   2.733  19.374  0.00  0.00    +0.000 A 
ATOM     25  C   UNL     1       1.423   3.310  18.195  0.00  0.00    +0.000 A 
ATOM     26  C   UNL     1       1.997   4.583  18.222  0.00  0.00    +0.000 A 
ENDBRANCH  20  21
ENDBRANCH  15  20
ENDBRANCH   1  15
TORSDOF 11
ENDMDL
MODEL 9
REMARK VINA RESULT:      -6.9      3.088      6.453
REMARK  Name = 
REMARK  12 active torsions:
REMARK  status: ('A' for Active; 'I' for Inactive)
REMARK    1  A    between atoms: C_1  and  O_2
REMARK    2  A    between atoms: O_2  and  C_3
REMARK    3  A    between atoms: C_3  and  C_5
REMARK    4  A    between atoms: C_5  and  C_6
REMARK    5  A    between atoms: C_5  and  C_16
REMARK    6  A    between atoms: C_6  and  N_7
REMARK    7  A    between atoms: C_8  and  C_10
REMARK    8  A    between atoms: C_10  and  N_11
REMARK    9  A    between atoms: C_10  and  C_12
REMARK   10  A    between atoms: C_12  and  C_13
REMARK   11  A    between atoms: C_13  and  O_15
REMARK   12  A    between atoms: C_16  and  C_17
REMARK                            x       y       z     vdW  Elec       q    Type
REMARK                         _______ _______ _______ _____ _____    ______ ____
ROOT
ATOM      1  C   UNL     1       4.281   5.834  17.365  0.00  0.00    +0.000 C 
ENDROOT
BRANCH   1   2
ATOM      2  N   UNL     1       3.507   5.522  18.549  0.00  0.00    +0.000 N 
ATOM      3  C   UNL     1       2.277   4.913  18.512  0.00  0.00    +0.000 C 
ATOM      4  O   UNL     1       1.671   4.646  17.474  0.00  0.00    +0.000 OA
ATOM      5  H   UNL     1       3.940   5.569  19.475  0.00  0.00    +0.000 HD
BRANCH   3   6
ATOM      6  C   UNL     1       1.697   4.598  19.908  0.00  0.00    +0.000 C 
BRANCH   6   7
ATOM      7  N   UNL     1       2.479   5.295  20.957  0.00  0.00    +0.000 NA
ATOM      8  H   UNL     1       2.859   6.164  20.564  0.00  0.00    +0.000 HD
ATOM      9  H   UNL     1       3.313   4.740  21.168  0.00  0.00    +0.000 HD
ENDBRANCH   6   7
BRANCH   6  10
ATOM     10  C   UNL     1       1.594   3.087  20.103  0.00  0.00    +0.000 C 
BRANCH  10  11
ATOM     11  C   UNL     1       2.199   2.646  21.410  0.00  0.00    +0.000 C 
ATOM     12  O   UNL     1       3.380   2.352  21.530  0.00  0.00    +0.000 OA
BRANCH  11  13
ATOM     13  O   UNL     1       1.322   2.556  22.430  0.00  0.00    +0.000 OA
ATOM     14  H   UNL     1       1.454   1.762  23.003  0.00  0.00    +0.000 HD
ENDBRANCH  11  13
ENDBRANCH  10  11
ENDBRANCH   6  10
ENDBRANCH   3   6
ENDBRANCH   1   2
BRANCH   1  15
ATOM     15  C   UNL     1       5.395   4.824  17.050  0.00  0.00    +0.000 C 
BRANCH  15  16
ATOM     16  C   UNL     1       6.057   4.441  18.357  0.00  0.00    +0.000 C 
ATOM     17  O   UNL     1       5.533   3.763  19.231  0.00  0.00    +0.000 OA
BRANCH  16  19
ATOM     18  C   UNL     1       7.674   5.684  19.519  0.00  0.00    +0.000 C 
ATOM     19  O   UNL     1       7.344   4.891  18.377  0.00  0.00    +0.000 OA
ENDBRANCH  16  19
ENDBRANCH  15  16
BRANCH  15  20
ATOM     20  C   UNL     1       6.412   5.475  16.095  0.00  0.00    +0.000 C 
BRANCH  20  21
ATOM     21  C   UNL     1       6.457   4.928  14.685  0.00  0.00    +0.000 A 
ATOM     22  C   UNL     1       7.497   5.255  13.806  0.00  0.00    +0.000 A 
ATOM     23  C   UNL     1       7.550   4.689  12.529  0.00  0.00    +0.000 A 
ATOM     24  C   UNL     1       6.568   3.788  12.118  0.00  0.00    +0.000 A 
ATOM     25  C   UNL     1       5.527   3.458  12.982  0.00  0.00    +0.000 A 
ATOM     26  C   UNL     1       5.472   4.026  14.257  0.00  0.00    +0.000 A 
ENDBRANCH  20  21
ENDBRANCH  15  20
ENDBRANCH   1  15
TORSDOF 11
ENDMDL
