MODEL 1
REMARK VINA RESULT:      -7.0      0.000      0.000
REMARK  Name = 
REMARK  5 active torsions:
REMARK  status: ('A' for Active; 'I' for Inactive)
REMARK    1  A    between atoms: C_1  and  C_2
REMARK    2  A    between atoms: C_10  and  C_11
REMARK    3  A    between atoms: N_21  and  C_22
REMARK    4  A    between atoms: C_22  and  C_23
REMARK    5  A    between atoms: C_27  and  C_29
REMARK                            x       y       z     vdW  Elec       q    Type
REMARK                         _______ _______ _______ _____ _____    ______ ____
ROOT
ATOM      1  C   UNL     1      -4.158  13.124  20.514  0.00  0.00    +0.000 C 
ATOM      2  C   UNL     1      -4.290  12.066  19.430  0.00  0.00    +0.000 C 
ATOM      3  C   UNL     1      -5.478  12.440  18.502  0.00  0.00    +0.000 C 
ATOM      4  O   UNL     1      -5.713  11.431  17.501  0.00  0.00    +0.000 OA
ATOM      5  C   UNL     1      -4.538  11.233  16.699  0.00  0.00    +0.000 C 
ATOM      6  C   UNL     1      -3.339  10.812  17.563  0.00  0.00    +0.000 C 
ATOM      7  N   UNL     1      -3.106  11.870  18.560  0.00  0.00    +0.000 N 
ATOM      8  C   UNL     1      -1.821  11.965  19.049  0.00  0.00    +0.000 A 
ATOM      9  N   UNL     1      -0.982  10.923  18.871  0.00  0.00    +0.000 NA
ATOM     10  C   UNL     1       0.324  11.059  19.185  0.00  0.00    +0.000 A 
ATOM     11  C   UNL     1       0.793  12.270  19.629  0.00  0.00    +0.000 A 
ATOM     12  C   UNL     1      -0.122  13.285  19.820  0.00  0.00    +0.000 A 
ATOM     13  N   UNL     1      -1.416  13.145  19.543  0.00  0.00    +0.000 NA
ATOM     14  N   UNL     1       0.480  14.424  20.366  0.00  0.00    +0.000 N 
ATOM     15  C   UNL     1       1.925  14.221  20.296  0.00  0.00    +0.000 C 
ATOM     16  C   UNL     1       2.163  12.745  19.946  0.00  0.00    +0.000 C 
ENDROOT
BRANCH  10  17
ATOM     17  C   UNL     1       1.132   9.849  19.001  0.00  0.00    +0.000 A 
ATOM     18  C   UNL     1       1.809   9.571  17.825  0.00  0.00    +0.000 A 
ATOM     19  N   UNL     1       2.542   8.455  17.593  0.00  0.00    +0.000 NA
ATOM     20  C   UNL     1       2.579   7.555  18.576  0.00  0.00    +0.000 A 
ATOM     21  N   UNL     1       3.303   6.402  18.370  0.00  0.00    +0.000 N 
ATOM     22  N   UNL     1       1.988   7.706  19.761  0.00  0.00    +0.000 NA
ATOM     23  C   UNL     1       1.264   8.836  19.931  0.00  0.00    +0.000 A 
ATOM     24  H   UNL     1       4.000   6.551  17.655  0.00  0.00    +0.000 HD
ATOM     25  H   UNL     1       3.606   6.017  19.252  0.00  0.00    +0.000 HD
ENDBRANCH  10  17
BRANCH  14  26
ATOM     26  C   UNL     1      -0.135  15.747  20.542  0.00  0.00    +0.000 C 
ATOM     27  C   UNL     1       0.886  16.759  21.087  0.00  0.00    +0.000 C 
ATOM     28  C   UNL     1      -0.793  16.271  19.253  0.00  0.00    +0.000 C 
ATOM     29  C   UNL     1      -1.931  17.157  19.724  0.00  0.00    +0.000 C 
ATOM     30  N   UNL     1      -2.382  16.553  20.960  0.00  0.00    +0.000 N 
ATOM     31  C   UNL     1      -3.616  16.868  21.486  0.00  0.00    +0.000 C 
ATOM     32  O   UNL     1      -4.347  17.695  20.935  0.00  0.00    +0.000 OA
ATOM     33  C   UNL     1      -1.368  15.647  21.488  0.00  0.00    +0.000 C 
BRANCH  31  34
ATOM     34  C   UNL     1      -4.026  16.198  22.790  0.00  0.00    +0.000 C 
ATOM     35  C   UNL     1      -5.476  15.750  22.863  0.00  0.00    +0.000 C 
ATOM     36  C   UNL     1      -5.992  16.248  24.200  0.00  0.00    +0.000 C 
ATOM     37  O   UNL     1      -4.866  16.728  24.930  0.00  0.00    +0.000 OA
ATOM     38  C   UNL     1      -3.896  17.153  23.968  0.00  0.00    +0.000 C 
ENDBRANCH  31  34
ENDBRANCH  14  26
TORSDOF 3
ENDMDL
MODEL 2
REMARK VINA RESULT:      -6.8      6.178      8.750
REMARK  Name = 
REMARK  5 active torsions:
REMARK  status: ('A' for Active; 'I' for Inactive)
REMARK    1  A    between atoms: C_1  and  C_2
REMARK    2  A    between atoms: C_10  and  C_11
REMARK    3  A    between atoms: N_21  and  C_22
REMARK    4  A    between atoms: C_22  and  C_23
REMARK    5  A    between atoms: C_27  and  C_29
REMARK                            x       y       z     vdW  Elec       q    Type
REMARK                         _______ _______ _______ _____ _____    ______ ____
ROOT
ATOM      1  C   UNL     1       6.172  15.711  24.260  0.00  0.00    +0.000 C 
ATOM      2  C   UNL     1       7.087  14.499  24.346  0.00  0.00    +0.000 C 
ATOM      3  C   UNL     1       6.637  13.612  25.538  0.00  0.00    +0.000 C 
ATOM      4  O   UNL     1       7.517  12.488  25.730  0.00  0.00    +0.000 OA
ATOM      5  C   UNL     1       7.571  11.682  24.542  0.00  0.00    +0.000 C 
ATOM      6  C   UNL     1       8.058  12.500  23.336  0.00  0.00    +0.000 C 
ATOM      7  N   UNL     1       7.129  13.626  23.149  0.00  0.00    +0.000 N 
ATOM      8  C   UNL     1       7.054  14.140  21.871  0.00  0.00    +0.000 A 
ATOM      9  N   UNL     1       8.036  13.841  20.995  0.00  0.00    +0.000 NA
ATOM     10  C   UNL     1       7.897  14.186  19.697  0.00  0.00    +0.000 A 
ATOM     11  C   UNL     1       6.737  14.786  19.275  0.00  0.00    +0.000 A 
ATOM     12  C   UNL     1       5.787  15.094  20.226  0.00  0.00    +0.000 A 
ATOM     13  N   UNL     1       5.934  14.785  21.513  0.00  0.00    +0.000 NA
ATOM     14  N   UNL     1       4.708  15.788  19.669  0.00  0.00    +0.000 N 
ATOM     15  C   UNL     1       4.851  15.712  18.217  0.00  0.00    +0.000 C 
ATOM     16  C   UNL     1       6.260  15.179  17.925  0.00  0.00    +0.000 C 
ENDROOT
BRANCH  10  17
ATOM     17  C   UNL     1       9.045  13.859  18.845  0.00  0.00    +0.000 A 
ATOM     18  C   UNL     1       9.260  12.591  18.331  0.00  0.00    +0.000 A 
ATOM     19  N   UNL     1      10.319  12.230  17.566  0.00  0.00    +0.000 NA
ATOM     20  C   UNL     1      11.227  13.176  17.326  0.00  0.00    +0.000 A 
ATOM     21  N   UNL     1      12.324  12.841  16.564  0.00  0.00    +0.000 N 
ATOM     22  N   UNL     1      11.133  14.438  17.746  0.00  0.00    +0.000 NA
ATOM     23  C   UNL     1      10.058  14.737  18.511  0.00  0.00    +0.000 A 
ATOM     24  H   UNL     1      12.118  12.037  15.991  0.00  0.00    +0.000 HD
ATOM     25  H   UNL     1      12.698  13.661  16.110  0.00  0.00    +0.000 HD
ENDBRANCH  10  17
BRANCH  14  26
ATOM     26  C   UNL     1       3.439  16.124  20.332  0.00  0.00    +0.000 C 
ATOM     27  C   UNL     1       3.684  16.985  21.582  0.00  0.00    +0.000 C 
ATOM     28  C   UNL     1       2.438  16.806  19.384  0.00  0.00    +0.000 C 
ATOM     29  C   UNL     1       1.069  16.418  19.912  0.00  0.00    +0.000 C 
ATOM     30  N   UNL     1       1.250  15.095  20.469  0.00  0.00    +0.000 N 
ATOM     31  C   UNL     1       0.164  14.283  20.717  0.00  0.00    +0.000 C 
ATOM     32  O   UNL     1      -0.984  14.679  20.502  0.00  0.00    +0.000 OA
ATOM     33  C   UNL     1       2.664  14.825  20.702  0.00  0.00    +0.000 C 
BRANCH  31  34
ATOM     34  C   UNL     1       0.427  12.904  21.307  0.00  0.00    +0.000 C 
ATOM     35  C   UNL     1       0.385  11.754  20.314  0.00  0.00    +0.000 C 
ATOM     36  C   UNL     1      -0.481  10.688  20.958  0.00  0.00    +0.000 C 
ATOM     37  O   UNL     1      -0.716  11.096  22.303  0.00  0.00    +0.000 OA
ATOM     38  C   UNL     1      -0.639  12.525  22.324  0.00  0.00    +0.000 C 
ENDBRANCH  31  34
ENDBRANCH  14  26
TORSDOF 3
ENDMDL
MODEL 3
REMARK VINA RESULT:      -6.8      6.089      8.898
REMARK  Name = 
REMARK  5 active torsions:
REMARK  status: ('A' for Active; 'I' for Inactive)
REMARK    1  A    between atoms: C_1  and  C_2
REMARK    2  A    between atoms: C_10  and  C_11
REMARK    3  A    between atoms: N_21  and  C_22
REMARK    4  A    between atoms: C_22  and  C_23
REMARK    5  A    between atoms: C_27  and  C_29
REMARK                            x       y       z     vdW  Elec       q    Type
REMARK                         _______ _______ _______ _____ _____    ______ ____
ROOT
ATOM      1  C   UNL     1       5.239  15.231  24.101  0.00  0.00    +0.000 C 
ATOM      2  C   UNL     1       6.428  14.286  24.175  0.00  0.00    +0.000 C 
ATOM      3  C   UNL     1       6.158  13.222  25.273  0.00  0.00    +0.000 C 
ATOM      4  O   UNL     1       7.286  12.344  25.455  0.00  0.00    +0.000 OA
ATOM      5  C   UNL     1       7.608  11.675  24.225  0.00  0.00    +0.000 C 
ATOM      6  C   UNL     1       7.933  12.684  23.112  0.00  0.00    +0.000 C 
ATOM      7  N   UNL     1       6.757  13.551  22.930  0.00  0.00    +0.000 N 
ATOM      8  C   UNL     1       6.621  14.130  21.686  0.00  0.00    +0.000 A 
ATOM      9  N   UNL     1       7.692  14.159  20.866  0.00  0.00    +0.000 NA
ATOM     10  C   UNL     1       7.538  14.561  19.586  0.00  0.00    +0.000 A 
ATOM     11  C   UNL     1       6.288  14.881  19.120  0.00  0.00    +0.000 A 
ATOM     12  C   UNL     1       5.241  14.862  20.019  0.00  0.00    +0.000 A 
ATOM     13  N   UNL     1       5.394  14.498  21.290  0.00  0.00    +0.000 NA
ATOM     14  N   UNL     1       4.051  15.304  19.430  0.00  0.00    +0.000 N 
ATOM     15  C   UNL     1       4.286  15.382  17.991  0.00  0.00    +0.000 C 
ATOM     16  C   UNL     1       5.799  15.247  17.767  0.00  0.00    +0.000 C 
ENDROOT
BRANCH  10  17
ATOM     17  C   UNL     1       8.776  14.603  18.800  0.00  0.00    +0.000 A 
ATOM     18  C   UNL     1       9.335  13.476  18.219  0.00  0.00    +0.000 A 
ATOM     19  N   UNL     1      10.490  13.457  17.512  0.00  0.00    +0.000 NA
ATOM     20  C   UNL     1      11.138  14.617  17.401  0.00  0.00    +0.000 A 
ATOM     21  N   UNL     1      12.323  14.631  16.700  0.00  0.00    +0.000 N 
ATOM     22  N   UNL     1      10.702  15.775  17.895  0.00  0.00    +0.000 NA
ATOM     23  C   UNL     1       9.548  15.731  18.599  0.00  0.00    +0.000 A 
ATOM     24  H   UNL     1      12.360  13.850  16.062  0.00  0.00    +0.000 HD
ATOM     25  H   UNL     1      12.499  15.553  16.330  0.00  0.00    +0.000 HD
ENDBRANCH  10  17
BRANCH  14  26
ATOM     26  C   UNL     1       2.705  15.255  20.020  0.00  0.00    +0.000 C 
ATOM     27  C   UNL     1       2.623  16.141  21.274  0.00  0.00    +0.000 C 
ATOM     28  C   UNL     1       1.603  15.626  19.013  0.00  0.00    +0.000 C 
ATOM     29  C   UNL     1       0.377  14.856  19.469  0.00  0.00    +0.000 C 
ATOM     30  N   UNL     1       0.901  13.637  20.047  0.00  0.00    +0.000 N 
ATOM     31  C   UNL     1       0.084  12.544  20.242  0.00  0.00    +0.000 C 
ATOM     32  O   UNL     1      -1.116  12.594  19.962  0.00  0.00    +0.000 OA
ATOM     33  C   UNL     1       2.319  13.785  20.359  0.00  0.00    +0.000 C 
BRANCH  31  34
ATOM     34  C   UNL     1       0.701  11.295  20.858  0.00  0.00    +0.000 C 
ATOM     35  C   UNL     1       0.704  10.065  19.965  0.00  0.00    +0.000 C 
ATOM     36  C   UNL     1       0.179   8.933  20.827  0.00  0.00    +0.000 C 
ATOM     37  O   UNL     1       0.110   9.422  22.165  0.00  0.00    +0.000 OA
ATOM     38  C   UNL     1      -0.081  10.838  22.080  0.00  0.00    +0.000 C 
ENDBRANCH  31  34
ENDBRANCH  14  26
TORSDOF 3
ENDMDL
MODEL 4
REMARK VINA RESULT:      -6.7      0.826      1.148
REMARK  Name = 
REMARK  5 active torsions:
REMARK  status: ('A' for Active; 'I' for Inactive)
REMARK    1  A    between atoms: C_1  and  C_2
REMARK    2  A    between atoms: C_10  and  C_11
REMARK    3  A    between atoms: N_21  and  C_22
REMARK    4  A    between atoms: C_22  and  C_23
REMARK    5  A    between atoms: C_27  and  C_29
REMARK                            x       y       z     vdW  Elec       q    Type
REMARK                         _______ _______ _______ _____ _____    ______ ____
ROOT
ATOM      1  C   UNL     1      -4.298  12.602  19.812  0.00  0.00    +0.000 C 
ATOM      2  C   UNL     1      -4.217  11.649  18.630  0.00  0.00    +0.000 C 
ATOM      3  C   UNL     1      -5.200  12.128  17.528  0.00  0.00    +0.000 C 
ATOM      4  O   UNL     1      -5.237  11.218  16.412  0.00  0.00    +0.000 OA
ATOM      5  C   UNL     1      -3.929  11.070  15.839  0.00  0.00    +0.000 C 
ATOM      6  C   UNL     1      -2.922  10.549  16.877  0.00  0.00    +0.000 C 
ATOM      7  N   UNL     1      -2.886  11.509  17.993  0.00  0.00    +0.000 N 
ATOM      8  C   UNL     1      -1.721  11.534  18.730  0.00  0.00    +0.000 A 
ATOM      9  N   UNL     1      -0.866  10.496  18.622  0.00  0.00    +0.000 NA
ATOM     10  C   UNL     1       0.354  10.577  19.195  0.00  0.00    +0.000 A 
ATOM     11  C   UNL     1       0.730  11.734  19.831  0.00  0.00    +0.000 A 
ATOM     12  C   UNL     1      -0.203  12.745  19.934  0.00  0.00    +0.000 A 
ATOM     13  N   UNL     1      -1.419  12.656  19.399  0.00  0.00    +0.000 NA
ATOM     14  N   UNL     1       0.283  13.818  20.689  0.00  0.00    +0.000 N 
ATOM     15  C   UNL     1       1.713  13.594  20.883  0.00  0.00    +0.000 C 
ATOM     16  C   UNL     1       2.013  12.151  20.451  0.00  0.00    +0.000 C 
ENDROOT
BRANCH  10  17
ATOM     17  C   UNL     1       1.180   9.373  19.061  0.00  0.00    +0.000 A 
ATOM     18  C   UNL     1       1.418   8.504  20.113  0.00  0.00    +0.000 A 
ATOM     19  N   UNL     1       2.197   7.397  20.049  0.00  0.00    +0.000 NA
ATOM     20  C   UNL     1       2.795   7.160  18.881  0.00  0.00    +0.000 A 
ATOM     21  N   UNL     1       3.605   6.051  18.783  0.00  0.00    +0.000 N 
ATOM     22  N   UNL     1       2.637   7.904  17.787  0.00  0.00    +0.000 NA
ATOM     23  C   UNL     1       1.855   9.000  17.913  0.00  0.00    +0.000 A 
ATOM     24  H   UNL     1       3.355   5.373  19.488  0.00  0.00    +0.000 HD
ATOM     25  H   UNL     1       3.657   5.739  17.825  0.00  0.00    +0.000 HD
ENDBRANCH  10  17
BRANCH  14  26
ATOM     26  C   UNL     1      -0.352  15.132  20.863  0.00  0.00    +0.000 C 
ATOM     27  C   UNL     1       0.520  16.053  21.732  0.00  0.00    +0.000 C 
ATOM     28  C   UNL     1      -0.697  15.806  19.524  0.00  0.00    +0.000 C 
ATOM     29  C   UNL     1      -1.910  16.669  19.817  0.00  0.00    +0.000 C 
ATOM     30  N   UNL     1      -2.633  15.951  20.846  0.00  0.00    +0.000 N 
ATOM     31  C   UNL     1      -3.954  16.243  21.109  0.00  0.00    +0.000 C 
ATOM     32  O   UNL     1      -4.537  17.143  20.499  0.00  0.00    +0.000 OA
ATOM     33  C   UNL     1      -1.770  14.967  21.488  0.00  0.00    +0.000 C 
BRANCH  31  34
ATOM     34  C   UNL     1      -4.653  15.451  22.206  0.00  0.00    +0.000 C 
ATOM     35  C   UNL     1      -6.112  15.120  21.940  0.00  0.00    +0.000 C 
ATOM     36  C   UNL     1      -6.854  15.488  23.210  0.00  0.00    +0.000 C 
ATOM     37  O   UNL     1      -5.870  15.778  24.201  0.00  0.00    +0.000 OA
ATOM     38  C   UNL     1      -4.705  16.237  23.508  0.00  0.00    +0.000 C 
ENDBRANCH  31  34
ENDBRANCH  14  26
TORSDOF 3
ENDMDL
MODEL 5
REMARK VINA RESULT:      -6.7      2.964      6.528
REMARK  Name = 
REMARK  5 active torsions:
REMARK  status: ('A' for Active; 'I' for Inactive)
REMARK    1  A    between atoms: C_1  and  C_2
REMARK    2  A    between atoms: C_10  and  C_11
REMARK    3  A    between atoms: N_21  and  C_22
REMARK    4  A    between atoms: C_22  and  C_23
REMARK    5  A    between atoms: C_27  and  C_29
REMARK                            x       y       z     vdW  Elec       q    Type
REMARK                         _______ _______ _______ _____ _____    ______ ____
ROOT
ATOM      1  C   UNL     1      -0.938  10.262  23.396  0.00  0.00    +0.000 C 
ATOM      2  C   UNL     1       0.070  10.208  22.259  0.00  0.00    +0.000 C 
ATOM      3  C   UNL     1      -0.241   8.976  21.367  0.00  0.00    +0.000 C 
ATOM      4  O   UNL     1       0.732   8.817  20.317  0.00  0.00    +0.000 OA
ATOM      5  C   UNL     1       0.779   9.992  19.491  0.00  0.00    +0.000 C 
ATOM      6  C   UNL     1       1.133  11.239  20.317  0.00  0.00    +0.000 C 
ATOM      7  N   UNL     1       0.111  11.391  21.366  0.00  0.00    +0.000 N 
ATOM      8  C   UNL     1      -0.077  12.670  21.845  0.00  0.00    +0.000 A 
ATOM      9  N   UNL     1       0.873  13.597  21.601  0.00  0.00    +0.000 NA
ATOM     10  C   UNL     1       0.634  14.891  21.906  0.00  0.00    +0.000 A 
ATOM     11  C   UNL     1      -0.591  15.255  22.408  0.00  0.00    +0.000 A 
ATOM     12  C   UNL     1      -1.506  14.254  22.664  0.00  0.00    +0.000 A 
ATOM     13  N   UNL     1      -1.262  12.973  22.395  0.00  0.00    +0.000 NA
ATOM     14  N   UNL     1      -2.665  14.759  23.262  0.00  0.00    +0.000 N 
ATOM     15  C   UNL     1      -2.599  16.215  23.165  0.00  0.00    +0.000 C 
ATOM     16  C   UNL     1      -1.172  16.581  22.733  0.00  0.00    +0.000 C 
ENDROOT
BRANCH  10  17
ATOM     17  C   UNL     1       1.753  15.802  21.648  0.00  0.00    +0.000 A 
ATOM     18  C   UNL     1       1.860  16.550  20.487  0.00  0.00    +0.000 A 
ATOM     19  N   UNL     1       2.887  17.381  20.187  0.00  0.00    +0.000 NA
ATOM     20  C   UNL     1       3.875  17.449  21.079  0.00  0.00    +0.000 A 
ATOM     21  N   UNL     1       4.942  18.274  20.801  0.00  0.00    +0.000 N 
ATOM     22  N   UNL     1       3.888  16.798  22.242  0.00  0.00    +0.000 NA
ATOM     23  C   UNL     1       2.841  15.977  22.483  0.00  0.00    +0.000 A 
ATOM     24  H   UNL     1       4.669  18.986  20.140  0.00  0.00    +0.000 HD
ATOM     25  H   UNL     1       5.388  18.569  21.656  0.00  0.00    +0.000 HD
ENDBRANCH  10  17
BRANCH  14  26
ATOM     26  C   UNL     1      -3.915  14.029  23.516  0.00  0.00    +0.000 C 
ATOM     27  C   UNL     1      -3.750  13.046  24.687  0.00  0.00    +0.000 C 
ATOM     28  C   UNL     1      -5.112  14.967  23.752  0.00  0.00    +0.000 C 
ATOM     29  C   UNL     1      -6.322  14.192  23.265  0.00  0.00    +0.000 C 
ATOM     30  N   UNL     1      -5.826  13.380  22.174  0.00  0.00    +0.000 N 
ATOM     31  C   UNL     1      -6.696  12.818  21.265  0.00  0.00    +0.000 C 
ATOM     32  O   UNL     1      -7.915  12.964  21.382  0.00  0.00    +0.000 OA
ATOM     33  C   UNL     1      -4.372  13.279  22.229  0.00  0.00    +0.000 C 
BRANCH  31  34
ATOM     34  C   UNL     1      -6.106  11.973  20.144  0.00  0.00    +0.000 C 
ATOM     35  C   UNL     1      -5.742  12.734  18.880  0.00  0.00    +0.000 C 
ATOM     36  C   UNL     1      -6.324  11.929  17.735  0.00  0.00    +0.000 C 
ATOM     37  O   UNL     1      -6.774  10.690  18.280  0.00  0.00    +0.000 OA
ATOM     38  C   UNL     1      -7.102  10.934  19.651  0.00  0.00    +0.000 C 
ENDBRANCH  31  34
ENDBRANCH  14  26
TORSDOF 3
ENDMDL
MODEL 6
REMARK VINA RESULT:      -6.6      0.954      1.034
REMARK  Name = 
REMARK  5 active torsions:
REMARK  status: ('A' for Active; 'I' for Inactive)
REMARK    1  A    between atoms: C_1  and  C_2
REMARK    2  A    between atoms: C_10  and  C_11
REMARK    3  A    between atoms: N_21  and  C_22
REMARK    4  A    between atoms: C_22  and  C_23
REMARK    5  A    between atoms: C_27  and  C_29
REMARK                            x       y       z     vdW  Elec       q    Type
REMARK                         _______ _______ _______ _____ _____    ______ ____
ROOT
ATOM      1  C   UNL     1      -3.650  13.838  21.223  0.00  0.00    +0.000 C 
ATOM      2  C   UNL     1      -4.036  12.686  20.310  0.00  0.00    +0.000 C 
ATOM      3  C   UNL     1      -5.384  13.022  19.616  0.00  0.00    +0.000 C 
ATOM      4  O   UNL     1      -5.852  11.931  18.799  0.00  0.00    +0.000 OA
ATOM      5  C   UNL     1      -4.879  11.600  17.795  0.00  0.00    +0.000 C 
ATOM      6  C   UNL     1      -3.534  11.211  18.429  0.00  0.00    +0.000 C 
ATOM      7  N   UNL     1      -3.069  12.350  19.237  0.00  0.00    +0.000 N 
ATOM      8  C   UNL     1      -1.707  12.433  19.435  0.00  0.00    +0.000 A 
ATOM      9  N   UNL     1      -0.951  11.340  19.197  0.00  0.00    +0.000 NA
ATOM     10  C   UNL     1       0.395  11.446  19.215  0.00  0.00    +0.000 A 
ATOM     11  C   UNL     1       0.977  12.671  19.419  0.00  0.00    +0.000 A 
ATOM     12  C   UNL     1       0.149  13.742  19.688  0.00  0.00    +0.000 A 
ATOM     13  N   UNL     1      -1.178  13.635  19.704  0.00  0.00    +0.000 NA
ATOM     14  N   UNL     1       0.882  14.899  19.973  0.00  0.00    +0.000 N 
ATOM     15  C   UNL     1       2.273  14.623  19.625  0.00  0.00    +0.000 C 
ATOM     16  C   UNL     1       2.395  13.111  19.391  0.00  0.00    +0.000 C 
ENDROOT
BRANCH  10  17
ATOM     17  C   UNL     1       1.115  10.187  18.995  0.00  0.00    +0.000 A 
ATOM     18  C   UNL     1       1.767   9.892  17.809  0.00  0.00    +0.000 A 
ATOM     19  N   UNL     1       2.419   8.734  17.545  0.00  0.00    +0.000 NA
ATOM     20  C   UNL     1       2.394   7.808  18.504  0.00  0.00    +0.000 A 
ATOM     21  N   UNL     1       3.035   6.613  18.266  0.00  0.00    +0.000 N 
ATOM     22  N   UNL     1       1.820   7.970  19.696  0.00  0.00    +0.000 NA
ATOM     23  C   UNL     1       1.178   9.143  19.899  0.00  0.00    +0.000 A 
ATOM     24  H   UNL     1       3.738   6.731  17.551  0.00  0.00    +0.000 HD
ATOM     25  H   UNL     1       3.313   6.185  19.136  0.00  0.00    +0.000 HD
ENDBRANCH  10  17
BRANCH  14  26
ATOM     26  C   UNL     1       0.351  16.261  20.132  0.00  0.00    +0.000 C 
ATOM     27  C   UNL     1       1.492  17.286  20.242  0.00  0.00    +0.000 C 
ATOM     28  C   UNL     1      -0.629  16.649  19.011  0.00  0.00    +0.000 C 
ATOM     29  C   UNL     1      -1.587  17.638  19.650  0.00  0.00    +0.000 C 
ATOM     30  N   UNL     1      -1.688  17.213  21.030  0.00  0.00    +0.000 N 
ATOM     31  C   UNL     1      -2.729  17.647  21.823  0.00  0.00    +0.000 C 
ATOM     32  O   UNL     1      -3.574  18.432  21.385  0.00  0.00    +0.000 OA
ATOM     33  C   UNL     1      -0.578  16.335  21.380  0.00  0.00    +0.000 C 
BRANCH  31  34
ATOM     34  C   UNL     1      -2.773  17.164  23.266  0.00  0.00    +0.000 C 
ATOM     35  C   UNL     1      -4.096  16.562  23.710  0.00  0.00    +0.000 C 
ATOM     36  C   UNL     1      -4.416  17.213  25.041  0.00  0.00    +0.000 C 
ATOM     37  O   UNL     1      -3.259  17.945  25.439  0.00  0.00    +0.000 OA
ATOM     38  C   UNL     1      -2.568  18.314  24.241  0.00  0.00    +0.000 C 
ENDBRANCH  31  34
ENDBRANCH  14  26
TORSDOF 3
ENDMDL
MODEL 7
REMARK VINA RESULT:      -6.6      4.782      7.988
REMARK  Name = 
REMARK  5 active torsions:
REMARK  status: ('A' for Active; 'I' for Inactive)
REMARK    1  A    between atoms: C_1  and  C_2
REMARK    2  A    between atoms: C_10  and  C_11
REMARK    3  A    between atoms: N_21  and  C_22
REMARK    4  A    between atoms: C_22  and  C_23
REMARK    5  A    between atoms: C_27  and  C_29
REMARK                            x       y       z     vdW  Elec       q    Type
REMARK                         _______ _______ _______ _____ _____    ______ ____
ROOT
ATOM      1  C   UNL     1       2.072  12.030  18.196  0.00  0.00    +0.000 C 
ATOM      2  C   UNL     1       1.360  10.807  18.751  0.00  0.00    +0.000 C 
ATOM      3  C   UNL     1       2.289   9.572  18.602  0.00  0.00    +0.000 C 
ATOM      4  O   UNL     1       1.640   8.360  19.032  0.00  0.00    +0.000 OA
ATOM      5  C   UNL     1       1.224   8.469  20.402  0.00  0.00    +0.000 C 
ATOM      6  C   UNL     1       0.260   9.650  20.599  0.00  0.00    +0.000 C 
ATOM      7  N   UNL     1       0.956  10.876  20.176  0.00  0.00    +0.000 N 
ATOM      8  C   UNL     1       0.513  12.049  20.750  0.00  0.00    +0.000 A 
ATOM      9  N   UNL     1      -0.692  12.057  21.357  0.00  0.00    +0.000 NA
ATOM     10  C   UNL     1      -1.068  13.138  22.073  0.00  0.00    +0.000 A 
ATOM     11  C   UNL     1      -0.200  14.191  22.221  0.00  0.00    +0.000 A 
ATOM     12  C   UNL     1       1.003  14.134  21.548  0.00  0.00    +0.000 A 
ATOM     13  N   UNL     1       1.365  13.084  20.814  0.00  0.00    +0.000 NA
ATOM     14  N   UNL     1       1.739  15.312  21.710  0.00  0.00    +0.000 N 
ATOM     15  C   UNL     1       1.080  16.090  22.757  0.00  0.00    +0.000 C 
ATOM     16  C   UNL     1      -0.287  15.442  23.016  0.00  0.00    +0.000 C 
ENDROOT
BRANCH  10  17
ATOM     17  C   UNL     1      -2.416  13.060  22.646  0.00  0.00    +0.000 A 
ATOM     18  C   UNL     1      -3.420  13.960  22.328  0.00  0.00    +0.000 A 
ATOM     19  N   UNL     1      -4.670  13.950  22.851  0.00  0.00    +0.000 NA
ATOM     20  C   UNL     1      -4.924  13.009  23.762  0.00  0.00    +0.000 A 
ATOM     21  N   UNL     1      -6.180  12.977  24.324  0.00  0.00    +0.000 N 
ATOM     22  N   UNL     1      -4.056  12.073  24.143  0.00  0.00    +0.000 NA
ATOM     23  C   UNL     1      -2.821  12.138  23.593  0.00  0.00    +0.000 A 
ATOM     24  H   UNL     1      -6.846  13.433  23.718  0.00  0.00    +0.000 HD
ATOM     25  H   UNL     1      -6.395  12.046  24.647  0.00  0.00    +0.000 HD
ENDBRANCH  10  17
BRANCH  14  26
ATOM     26  C   UNL     1       3.128  15.548  21.292  0.00  0.00    +0.000 C 
ATOM     27  C   UNL     1       3.236  15.618  19.760  0.00  0.00    +0.000 C 
ATOM     28  C   UNL     1       3.739  16.801  21.943  0.00  0.00    +0.000 C 
ATOM     29  C   UNL     1       5.225  16.511  22.040  0.00  0.00    +0.000 C 
ATOM     30  N   UNL     1       5.309  15.080  22.240  0.00  0.00    +0.000 N 
ATOM     31  C   UNL     1       6.465  14.505  22.723  0.00  0.00    +0.000 C 
ATOM     32  O   UNL     1       7.462  15.191  22.960  0.00  0.00    +0.000 OA
ATOM     33  C   UNL     1       4.058  14.434  21.858  0.00  0.00    +0.000 C 
BRANCH  31  34
ATOM     34  C   UNL     1       6.485  12.993  22.906  0.00  0.00    +0.000 C 
ATOM     35  C   UNL     1       6.126  12.504  24.300  0.00  0.00    +0.000 C 
ATOM     36  C   UNL     1       7.193  11.489  24.664  0.00  0.00    +0.000 C 
ATOM     37  O   UNL     1       7.958  11.244  23.486  0.00  0.00    +0.000 OA
ATOM     38  C   UNL     1       7.880  12.428  22.686  0.00  0.00    +0.000 C 
ENDBRANCH  31  34
ENDBRANCH  14  26
TORSDOF 3
ENDMDL
MODEL 8
REMARK VINA RESULT:      -6.5      4.494      7.704
REMARK  Name = 
REMARK  5 active torsions:
REMARK  status: ('A' for Active; 'I' for Inactive)
REMARK    1  A    between atoms: C_1  and  C_2
REMARK    2  A    between atoms: C_10  and  C_11
REMARK    3  A    between atoms: N_21  and  C_22
REMARK    4  A    between atoms: C_22  and  C_23
REMARK    5  A    between atoms: C_27  and  C_29
REMARK                            x       y       z     vdW  Elec       q    Type
REMARK                         _______ _______ _______ _____ _____    ______ ____
ROOT
ATOM      1  C   UNL     1       1.630  10.236  17.918  0.00  0.00    +0.000 C 
ATOM      2  C   UNL     1       1.136   9.240  18.954  0.00  0.00    +0.000 C 
ATOM      3  C   UNL     1       2.209   8.132  19.140  0.00  0.00    +0.000 C 
ATOM      4  O   UNL     1       1.766   7.106  20.048  0.00  0.00    +0.000 OA
ATOM      5  C   UNL     1       1.451   7.670  21.331  0.00  0.00    +0.000 C 
ATOM      6  C   UNL     1       0.355   8.742  21.214  0.00  0.00    +0.000 C 
ATOM      7  N   UNL     1       0.843   9.788  20.300  0.00  0.00    +0.000 N 
ATOM      8  C   UNL     1       0.293  11.041  20.471  0.00  0.00    +0.000 A 
ATOM      9  N   UNL     1      -0.849  11.156  21.180  0.00  0.00    +0.000 NA
ATOM     10  C   UNL     1      -1.309  12.383  21.506  0.00  0.00    +0.000 A 
ATOM     11  C   UNL     1      -0.582  13.494  21.161  0.00  0.00    +0.000 A 
ATOM     12  C   UNL     1       0.560  13.310  20.409  0.00  0.00    +0.000 A 
ATOM     13  N   UNL     1       1.000  12.104  20.057  0.00  0.00    +0.000 NA
ATOM     14  N   UNL     1       1.141  14.531  20.049  0.00  0.00    +0.000 N 
ATOM     15  C   UNL     1       0.470  15.571  20.825  0.00  0.00    +0.000 C 
ATOM     16  C   UNL     1      -0.772  14.935  21.464  0.00  0.00    +0.000 C 
ENDROOT
BRANCH  10  17
ATOM     17  C   UNL     1      -2.584  12.390  22.231  0.00  0.00    +0.000 A 
ATOM     18  C   UNL     1      -3.784  12.738  21.635  0.00  0.00    +0.000 A 
ATOM     19  N   UNL     1      -4.982  12.791  22.267  0.00  0.00    +0.000 NA
ATOM     20  C   UNL     1      -4.977  12.510  23.571  0.00  0.00    +0.000 A 
ATOM     21  N   UNL     1      -6.174  12.567  24.248  0.00  0.00    +0.000 N 
ATOM     22  N   UNL     1      -3.897  12.144  24.260  0.00  0.00    +0.000 NA
ATOM     23  C   UNL     1      -2.729  12.117  23.578  0.00  0.00    +0.000 A 
ATOM     24  H   UNL     1      -6.945  12.459  23.605  0.00  0.00    +0.000 HD
ATOM     25  H   UNL     1      -6.147  11.966  25.058  0.00  0.00    +0.000 HD
ENDBRANCH  10  17
BRANCH  14  26
ATOM     26  C   UNL     1       2.447  14.729  19.406  0.00  0.00    +0.000 C 
ATOM     27  C   UNL     1       2.572  13.867  18.139  0.00  0.00    +0.000 C 
ATOM     28  C   UNL     1       2.736  16.208  19.093  0.00  0.00    +0.000 C 
ATOM     29  C   UNL     1       4.246  16.338  19.160  0.00  0.00    +0.000 C 
ATOM     30  N   UNL     1       4.654  15.381  20.167  0.00  0.00    +0.000 N 
ATOM     31  C   UNL     1       5.900  15.464  20.751  0.00  0.00    +0.000 C 
ATOM     32  O   UNL     1       6.705  16.332  20.403  0.00  0.00    +0.000 OA
ATOM     33  C   UNL     1       3.596  14.406  20.407  0.00  0.00    +0.000 C 
BRANCH  31  34
ATOM     34  C   UNL     1       6.265  14.423  21.800  0.00  0.00    +0.000 C 
ATOM     35  C   UNL     1       6.209  14.905  23.240  0.00  0.00    +0.000 C 
ATOM     36  C   UNL     1       7.507  14.444  23.877  0.00  0.00    +0.000 C 
ATOM     37  O   UNL     1       8.140  13.567  22.948  0.00  0.00    +0.000 OA
ATOM     38  C   UNL     1       7.705  13.959  21.642  0.00  0.00    +0.000 C 
ENDBRANCH  31  34
ENDBRANCH  14  26
TORSDOF 3
ENDMDL
MODEL 9
REMARK VINA RESULT:      -6.5      6.066      8.741
REMARK  Name = 
REMARK  5 active torsions:
REMARK  status: ('A' for Active; 'I' for Inactive)
REMARK    1  A    between atoms: C_1  and  C_2
REMARK    2  A    between atoms: C_10  and  C_11
REMARK    3  A    between atoms: N_21  and  C_22
REMARK    4  A    between atoms: C_22  and  C_23
REMARK    5  A    between atoms: C_27  and  C_29
REMARK                            x       y       z     vdW  Elec       q    Type
REMARK                         _______ _______ _______ _____ _____    ______ ____
ROOT
ATOM      1  C   UNL     1       6.059  17.856  23.142  0.00  0.00    +0.000 C 
ATOM      2  C   UNL     1       7.058  16.854  23.700  0.00  0.00    +0.000 C 
ATOM      3  C   UNL     1       6.707  16.566  25.185  0.00  0.00    +0.000 C 
ATOM      4  O   UNL     1       7.668  15.687  25.800  0.00  0.00    +0.000 OA
ATOM      5  C   UNL     1       7.740  14.442  25.088  0.00  0.00    +0.000 C 
ATOM      6  C   UNL     1       8.133  14.663  23.619  0.00  0.00    +0.000 C 
ATOM      7  N   UNL     1       7.123  15.544  23.009  0.00  0.00    +0.000 N 
ATOM      8  C   UNL     1       6.974  15.434  21.642  0.00  0.00    +0.000 A 
ATOM      9  N   UNL     1       7.947  14.826  20.932  0.00  0.00    +0.000 NA
ATOM     10  C   UNL     1       7.744  14.553  19.625  0.00  0.00    +0.000 A 
ATOM     11  C   UNL     1       6.534  14.847  19.050  0.00  0.00    +0.000 A 
ATOM     12  C   UNL     1       5.594  15.498  19.822  0.00  0.00    +0.000 A 
ATOM     13  N   UNL     1       5.802  15.799  21.102  0.00  0.00    +0.000 NA
ATOM     14  N   UNL     1       4.453  15.821  19.079  0.00  0.00    +0.000 N 
ATOM     15  C   UNL     1       4.557  15.116  17.804  0.00  0.00    +0.000 C 
ATOM     16  C   UNL     1       5.990  14.577  17.695  0.00  0.00    +0.000 C 
ENDROOT
BRANCH  10  17
ATOM     17  C   UNL     1       8.886  13.938  18.940  0.00  0.00    +0.000 A 
ATOM     18  C   UNL     1       9.258  12.619  19.138  0.00  0.00    +0.000 A 
ATOM     19  N   UNL     1      10.321  12.013  18.554  0.00  0.00    +0.000 NA
ATOM     20  C   UNL     1      11.069  12.771  17.752  0.00  0.00    +0.000 A 
ATOM     21  N   UNL     1      12.165  12.192  17.152  0.00  0.00    +0.000 N 
ATOM     22  N   UNL     1      10.812  14.046  17.463  0.00  0.00    +0.000 NA
ATOM     23  C   UNL     1       9.743  14.599  18.081  0.00  0.00    +0.000 A 
ATOM     24  H   UNL     1      12.051  11.190  17.111  0.00  0.00    +0.000 HD
ATOM     25  H   UNL     1      12.393  12.678  16.299  0.00  0.00    +0.000 HD
ENDBRANCH  10  17
BRANCH  14  26
ATOM     26  C   UNL     1       3.186  16.354  19.599  0.00  0.00    +0.000 C 
ATOM     27  C   UNL     1       3.428  17.603  20.464  0.00  0.00    +0.000 C 
ATOM     28  C   UNL     1       2.166  16.648  18.485  0.00  0.00    +0.000 C 
ATOM     29  C   UNL     1       0.807  16.455  19.134  0.00  0.00    +0.000 C 
ATOM     30  N   UNL     1       1.013  15.414  20.119  0.00  0.00    +0.000 N 
ATOM     31  C   UNL     1      -0.058  14.729  20.650  0.00  0.00    +0.000 C 
ATOM     32  O   UNL     1      -1.214  15.012  20.325  0.00  0.00    +0.000 OA
ATOM     33  C   UNL     1       2.433  15.260  20.413  0.00  0.00    +0.000 C 
BRANCH  31  34
ATOM     34  C   UNL     1       0.231  13.648  21.683  0.00  0.00    +0.000 C 
ATOM     35  C   UNL     1       0.297  12.231  21.139  0.00  0.00    +0.000 C 
ATOM     36  C   UNL     1      -0.557  11.394  22.071  0.00  0.00    +0.000 C 
ATOM     37  O   UNL     1      -0.888  12.216  23.188  0.00  0.00    +0.000 OA
ATOM     38  C   UNL     1      -0.875  13.570  22.726  0.00  0.00    +0.000 C 
ENDBRANCH  31  34
ENDBRANCH  14  26
TORSDOF 3
ENDMDL
