MODEL 1
REMARK VINA RESULT:      -7.3      0.000      0.000
REMARK  Name = 
REMARK  10 active torsions:
REMARK  status: ('A' for Active; 'I' for Inactive)
REMARK    1  A    between atoms: C_1  and  C_2
REMARK    2  A    between atoms: C_3  and  C_4
REMARK    3  A    between atoms: N_6  and  C_7
REMARK    4  A    between atoms: C_7  and  C_8
REMARK    5  A    between atoms: N_16  and  C_17
REMARK    6  A    between atoms: C_17  and  C_18
REMARK    7  A    between atoms: C_21  and  S_22
REMARK    8  A    between atoms: S_22  and  N_25
REMARK    9  A    between atoms: N_25  and  C_26
REMARK   10  A    between atoms: N_25  and  C_27
REMARK                            x       y       z     vdW  Elec       q    Type
REMARK                         _______ _______ _______ _____ _____    ______ ____
ROOT
ATOM      1  C   UNL     1       1.300   9.443  17.777  0.00  0.00    +0.000 C 
ATOM      2  C   UNL     1       1.182   9.376  19.272  0.00  0.00    +0.000 A 
ATOM      3  C   UNL     1       1.604   8.358  20.060  0.00  0.00    +0.000 A 
ATOM      4  S   UNL     1       1.336   8.694  21.750  0.00  0.00    +0.000 S 
ATOM      5  C   UNL     1       0.644  10.266  21.384  0.00  0.00    +0.000 A 
ATOM      6  O   UNL     1       0.294  11.052  22.245  0.00  0.00    +0.000 OA
ATOM      7  N   UNL     1       0.620  10.435  20.005  0.00  0.00    +0.000 N 
ENDROOT
BRANCH   3   8
ATOM      8  C   UNL     1       2.221   7.040  19.673  0.00  0.00    +0.000 C 
ATOM      9  O   UNL     1       2.060   6.022  20.336  0.00  0.00    +0.000 OA
ATOM     10  N   UNL     1       2.988   7.064  18.527  0.00  0.00    +0.000 N 
ATOM     11  H   UNL     1       2.974   7.903  17.956  0.00  0.00    +0.000 HD
BRANCH  10  12
ATOM     12  C   UNL     1       3.619   5.882  17.982  0.00  0.00    +0.000 C 
BRANCH  12  13
ATOM     13  C   UNL     1       5.107   6.074  17.949  0.00  0.00    +0.000 A 
ATOM     14  C   UNL     1       5.854   6.888  17.115  0.00  0.00    +0.000 A 
ATOM     15  C   UNL     1       7.249   6.851  17.417  0.00  0.00    +0.000 A 
ATOM     16  C   UNL     1       7.526   6.007  18.468  0.00  0.00    +0.000 A 
ATOM     17  S   UNL     1       6.112   5.262  19.080  0.00  0.00    +0.000 S 
ENDBRANCH  12  13
ENDBRANCH  10  12
ENDBRANCH   3   8
BRANCH   7  18
ATOM     18  C   UNL     1       0.199  11.729  19.486  0.00  0.00    +0.000 C 
BRANCH  18  19
ATOM     19  C   UNL     1      -1.292  11.940  19.295  0.00  0.00    +0.000 A 
ATOM     20  C   UNL     1      -2.003  11.263  18.287  0.00  0.00    +0.000 A 
ATOM     21  C   UNL     1      -3.404  11.306  18.239  0.00  0.00    +0.000 A 
ATOM     22  C   UNL     1      -4.112  12.015  19.212  0.00  0.00    +0.000 A 
ATOM     23  C   UNL     1      -3.419  12.753  20.176  0.00  0.00    +0.000 A 
ATOM     24  C   UNL     1      -2.018  12.719  20.211  0.00  0.00    +0.000 A 
BRANCH  22  25
ATOM     25  S   UNL     1      -5.892  12.105  19.126  0.00  0.00    +0.000 S 
ATOM     26  O   UNL     1      -6.268  13.504  19.079  0.00  0.00    +0.000 OA
ATOM     27  O   UNL     1      -6.316  11.190  18.086  0.00  0.00    +0.000 OA
BRANCH  25  28
ATOM     28  N   UNL     1      -6.440  11.476  20.630  0.00  0.00    +0.000 NA
ATOM     29  C   UNL     1      -6.827  12.487  21.643  0.00  0.00    +0.000 C 
ATOM     30  C   UNL     1      -7.531  10.480  20.461  0.00  0.00    +0.000 C 
ENDBRANCH  25  28
ENDBRANCH  22  25
ENDBRANCH  18  19
ENDBRANCH   7  18
TORSDOF 7
ENDMDL
MODEL 2
REMARK VINA RESULT:      -7.2      2.385      3.036
REMARK  Name = 
REMARK  10 active torsions:
REMARK  status: ('A' for Active; 'I' for Inactive)
REMARK    1  A    between atoms: C_1  and  C_2
REMARK    2  A    between atoms: C_3  and  C_4
REMARK    3  A    between atoms: N_6  and  C_7
REMARK    4  A    between atoms: C_7  and  C_8
REMARK    5  A    between atoms: N_16  and  C_17
REMARK    6  A    between atoms: C_17  and  C_18
REMARK    7  A    between atoms: C_21  and  S_22
REMARK    8  A    between atoms: S_22  and  N_25
REMARK    9  A    between atoms: N_25  and  C_26
REMARK   10  A    between atoms: N_25  and  C_27
REMARK                            x       y       z     vdW  Elec       q    Type
REMARK                         _______ _______ _______ _____ _____    ______ ____
ROOT
ATOM      1  C   UNL     1       1.046  11.339  18.713  0.00  0.00    +0.000 C 
ATOM      2  C   UNL     1       0.940  10.402  19.881  0.00  0.00    +0.000 A 
ATOM      3  C   UNL     1       1.317   9.102  19.897  0.00  0.00    +0.000 A 
ATOM      4  S   UNL     1       1.084   8.380  21.468  0.00  0.00    +0.000 S 
ATOM      5  C   UNL     1       0.469   9.885  22.129  0.00  0.00    +0.000 A 
ATOM      6  O   UNL     1       0.168  10.020  23.302  0.00  0.00    +0.000 OA
ATOM      7  N   UNL     1       0.440  10.840  21.120  0.00  0.00    +0.000 N 
ENDROOT
BRANCH   3   8
ATOM      8  C   UNL     1       1.862   8.249  18.782  0.00  0.00    +0.000 C 
ATOM      9  O   UNL     1       1.711   8.540  17.601  0.00  0.00    +0.000 OA
ATOM     10  N   UNL     1       2.532   7.113  19.185  0.00  0.00    +0.000 N 
ATOM     11  H   UNL     1       2.734   6.999  20.173  0.00  0.00    +0.000 HD
BRANCH  10  12
ATOM     12  C   UNL     1       3.159   6.202  18.253  0.00  0.00    +0.000 C 
BRANCH  12  13
ATOM     13  C   UNL     1       2.557   4.835  18.401  0.00  0.00    +0.000 A 
ATOM     14  C   UNL     1       2.577   3.782  17.504  0.00  0.00    +0.000 A 
ATOM     15  C   UNL     1       1.941   2.611  18.018  0.00  0.00    +0.000 A 
ATOM     16  C   UNL     1       1.450   2.807  19.289  0.00  0.00    +0.000 A 
ATOM     17  S   UNL     1       1.751   4.395  19.852  0.00  0.00    +0.000 S 
ENDBRANCH  12  13
ENDBRANCH  10  12
ENDBRANCH   3   8
BRANCH   7  18
ATOM     18  C   UNL     1       0.080  12.204  21.484  0.00  0.00    +0.000 C 
BRANCH  18  19
ATOM     19  C   UNL     1      -1.399  12.544  21.495  0.00  0.00    +0.000 A 
ATOM     20  C   UNL     1      -2.143  12.609  20.302  0.00  0.00    +0.000 A 
ATOM     21  C   UNL     1      -3.541  12.725  20.328  0.00  0.00    +0.000 A 
ATOM     22  C   UNL     1      -4.213  12.762  21.553  0.00  0.00    +0.000 A 
ATOM     23  C   UNL     1      -3.484  12.772  22.746  0.00  0.00    +0.000 A 
ATOM     24  C   UNL     1      -2.086  12.670  22.713  0.00  0.00    +0.000 A 
BRANCH  22  25
ATOM     25  S   UNL     1      -5.986  12.953  21.587  0.00  0.00    +0.000 S 
ATOM     26  O   UNL     1      -6.328  14.105  20.778  0.00  0.00    +0.000 OA
ATOM     27  O   UNL     1      -6.561  11.654  21.303  0.00  0.00    +0.000 OA
BRANCH  25  28
ATOM     28  N   UNL     1      -6.358  13.343  23.220  0.00  0.00    +0.000 NA
ATOM     29  C   UNL     1      -6.656  14.771  23.484  0.00  0.00    +0.000 C 
ATOM     30  C   UNL     1      -7.440  12.486  23.772  0.00  0.00    +0.000 C 
ENDBRANCH  25  28
ENDBRANCH  22  25
ENDBRANCH  18  19
ENDBRANCH   7  18
TORSDOF 7
ENDMDL
MODEL 3
REMARK VINA RESULT:      -7.2      1.898      2.506
REMARK  Name = 
REMARK  10 active torsions:
REMARK  status: ('A' for Active; 'I' for Inactive)
REMARK    1  A    between atoms: C_1  and  C_2
REMARK    2  A    between atoms: C_3  and  C_4
REMARK    3  A    between atoms: N_6  and  C_7
REMARK    4  A    between atoms: C_7  and  C_8
REMARK    5  A    between atoms: N_16  and  C_17
REMARK    6  A    between atoms: C_17  and  C_18
REMARK    7  A    between atoms: C_21  and  S_22
REMARK    8  A    between atoms: S_22  and  N_25
REMARK    9  A    between atoms: N_25  and  C_26
REMARK   10  A    between atoms: N_25  and  C_27
REMARK                            x       y       z     vdW  Elec       q    Type
REMARK                         _______ _______ _______ _____ _____    ______ ____
ROOT
ATOM      1  C   UNL     1       1.798  10.048  17.847  0.00  0.00    +0.000 C 
ATOM      2  C   UNL     1       1.333   9.545  19.182  0.00  0.00    +0.000 A 
ATOM      3  C   UNL     1       1.661   8.358  19.745  0.00  0.00    +0.000 A 
ATOM      4  S   UNL     1       0.961   8.178  21.332  0.00  0.00    +0.000 S 
ATOM      5  C   UNL     1       0.211   9.763  21.240  0.00  0.00    +0.000 A 
ATOM      6  O   UNL     1      -0.419  10.253  22.161  0.00  0.00    +0.000 OA
ATOM      7  N   UNL     1       0.500  10.325  20.003  0.00  0.00    +0.000 N 
ENDROOT
BRANCH   3   8
ATOM      8  C   UNL     1       2.492   7.232  19.190  0.00  0.00    +0.000 C 
ATOM      9  O   UNL     1       2.807   7.172  18.006  0.00  0.00    +0.000 OA
ATOM     10  N   UNL     1       2.862   6.268  20.104  0.00  0.00    +0.000 N 
ATOM     11  H   UNL     1       2.681   6.443  21.087  0.00  0.00    +0.000 HD
BRANCH  10  12
ATOM     12  C   UNL     1       3.697   5.139  19.757  0.00  0.00    +0.000 C 
BRANCH  12  13
ATOM     13  C   UNL     1       2.848   4.039  19.190  0.00  0.00    +0.000 A 
ATOM     14  C   UNL     1       3.148   3.158  18.165  0.00  0.00    +0.000 A 
ATOM     15  C   UNL     1       2.109   2.207  17.937  0.00  0.00    +0.000 A 
ATOM     16  C   UNL     1       1.045   2.392  18.790  0.00  0.00    +0.000 A 
ATOM     17  S   UNL     1       1.299   3.709  19.852  0.00  0.00    +0.000 S 
ENDBRANCH  12  13
ENDBRANCH  10  12
ENDBRANCH   3   8
BRANCH   7  18
ATOM     18  C   UNL     1       0.078  11.699  19.764  0.00  0.00    +0.000 C 
BRANCH  18  19
ATOM     19  C   UNL     1      -1.388  11.920  19.437  0.00  0.00    +0.000 A 
ATOM     20  C   UNL     1      -1.998  11.274  18.345  0.00  0.00    +0.000 A 
ATOM     21  C   UNL     1      -3.388  11.322  18.164  0.00  0.00    +0.000 A 
ATOM     22  C   UNL     1      -4.187  12.005  19.085  0.00  0.00    +0.000 A 
ATOM     23  C   UNL     1      -3.589  12.713  20.132  0.00  0.00    +0.000 A 
ATOM     24  C   UNL     1      -2.198  12.674  20.301  0.00  0.00    +0.000 A 
BRANCH  22  25
ATOM     25  S   UNL     1      -5.949  12.103  18.830  0.00  0.00    +0.000 S 
ATOM     26  O   UNL     1      -6.285  13.482  18.540  0.00  0.00    +0.000 OA
ATOM     27  O   UNL     1      -6.307  11.045  17.907  0.00  0.00    +0.000 OA
BRANCH  25  28
ATOM     28  N   UNL     1      -6.639  11.717  20.358  0.00  0.00    +0.000 NA
ATOM     29  C   UNL     1      -7.502  12.766  20.953  0.00  0.00    +0.000 C 
ATOM     30  C   UNL     1      -7.357  10.415  20.340  0.00  0.00    +0.000 C 
ENDBRANCH  25  28
ENDBRANCH  22  25
ENDBRANCH  18  19
ENDBRANCH   7  18
TORSDOF 7
ENDMDL
MODEL 4
REMARK VINA RESULT:      -7.1      0.981      1.354
REMARK  Name = 
REMARK  10 active torsions:
REMARK  status: ('A' for Active; 'I' for Inactive)
REMARK    1  A    between atoms: C_1  and  C_2
REMARK    2  A    between atoms: C_3  and  C_4
REMARK    3  A    between atoms: N_6  and  C_7
REMARK    4  A    between atoms: C_7  and  C_8
REMARK    5  A    between atoms: N_16  and  C_17
REMARK    6  A    between atoms: C_17  and  C_18
REMARK    7  A    between atoms: C_21  and  S_22
REMARK    8  A    between atoms: S_22  and  N_25
REMARK    9  A    between atoms: N_25  and  C_26
REMARK   10  A    between atoms: N_25  and  C_27
REMARK                            x       y       z     vdW  Elec       q    Type
REMARK                         _______ _______ _______ _____ _____    ______ ____
ROOT
ATOM      1  C   UNL     1       1.196   9.266  17.701  0.00  0.00    +0.000 C 
ATOM      2  C   UNL     1       1.150   9.198  19.199  0.00  0.00    +0.000 A 
ATOM      3  C   UNL     1       1.682   8.219  19.969  0.00  0.00    +0.000 A 
ATOM      4  S   UNL     1       1.465   8.544  21.669  0.00  0.00    +0.000 S 
ATOM      5  C   UNL     1       0.642  10.058  21.331  0.00  0.00    +0.000 A 
ATOM      6  O   UNL     1       0.274  10.821  22.206  0.00  0.00    +0.000 OA
ATOM      7  N   UNL     1       0.544  10.217  19.954  0.00  0.00    +0.000 N 
ENDROOT
BRANCH   3   8
ATOM      8  C   UNL     1       2.377   6.949  19.558  0.00  0.00    +0.000 C 
ATOM      9  O   UNL     1       2.287   5.913  20.207  0.00  0.00    +0.000 OA
ATOM     10  N   UNL     1       3.131   7.038  18.407  0.00  0.00    +0.000 N 
ATOM     11  H   UNL     1       3.059   7.882  17.849  0.00  0.00    +0.000 HD
BRANCH  10  12
ATOM     12  C   UNL     1       3.831   5.906  17.839  0.00  0.00    +0.000 C 
BRANCH  12  13
ATOM     13  C   UNL     1       5.312   6.126  17.942  0.00  0.00    +0.000 A 
ATOM     14  C   UNL     1       6.106   7.003  17.224  0.00  0.00    +0.000 A 
ATOM     15  C   UNL     1       7.472   6.971  17.638  0.00  0.00    +0.000 A 
ATOM     16  C   UNL     1       7.681   6.067  18.655  0.00  0.00    +0.000 A 
ATOM     17  S   UNL     1       6.239   5.261  19.101  0.00  0.00    +0.000 S 
ENDBRANCH  12  13
ENDBRANCH  10  12
ENDBRANCH   3   8
BRANCH   7  18
ATOM     18  C   UNL     1       0.005  11.474  19.452  0.00  0.00    +0.000 C 
BRANCH  18  19
ATOM     19  C   UNL     1      -1.492  11.529  19.207  0.00  0.00    +0.000 A 
ATOM     20  C   UNL     1      -2.353  12.202  20.093  0.00  0.00    +0.000 A 
ATOM     21  C   UNL     1      -3.699  12.422  19.764  0.00  0.00    +0.000 A 
ATOM     22  C   UNL     1      -4.195  11.984  18.534  0.00  0.00    +0.000 A 
ATOM     23  C   UNL     1      -3.372  11.250  17.675  0.00  0.00    +0.000 A 
ATOM     24  C   UNL     1      -2.032  11.020  18.014  0.00  0.00    +0.000 A 
BRANCH  22  25
ATOM     25  S   UNL     1      -5.917  12.225  18.134  0.00  0.00    +0.000 S 
ATOM     26  O   UNL     1      -5.989  12.963  16.890  0.00  0.00    +0.000 OA
ATOM     27  O   UNL     1      -6.571  10.939  18.270  0.00  0.00    +0.000 OA
BRANCH  25  28
ATOM     28  N   UNL     1      -6.521  13.250  19.376  0.00  0.00    +0.000 NA
ATOM     29  C   UNL     1      -6.986  14.586  18.932  0.00  0.00    +0.000 C 
ATOM     30  C   UNL     1      -7.573  12.589  20.193  0.00  0.00    +0.000 C 
ENDBRANCH  25  28
ENDBRANCH  22  25
ENDBRANCH  18  19
ENDBRANCH   7  18
TORSDOF 7
ENDMDL
MODEL 5
REMARK VINA RESULT:      -7.1      2.884      9.852
REMARK  Name = 
REMARK  10 active torsions:
REMARK  status: ('A' for Active; 'I' for Inactive)
REMARK    1  A    between atoms: C_1  and  C_2
REMARK    2  A    between atoms: C_3  and  C_4
REMARK    3  A    between atoms: N_6  and  C_7
REMARK    4  A    between atoms: C_7  and  C_8
REMARK    5  A    between atoms: N_16  and  C_17
REMARK    6  A    between atoms: C_17  and  C_18
REMARK    7  A    between atoms: C_21  and  S_22
REMARK    8  A    between atoms: S_22  and  N_25
REMARK    9  A    between atoms: N_25  and  C_26
REMARK   10  A    between atoms: N_25  and  C_27
REMARK                            x       y       z     vdW  Elec       q    Type
REMARK                         _______ _______ _______ _____ _____    ______ ____
ROOT
ATOM      1  C   UNL     1      -0.545  12.671  21.336  0.00  0.00    +0.000 C 
ATOM      2  C   UNL     1      -1.366  12.114  20.209  0.00  0.00    +0.000 A 
ATOM      3  C   UNL     1      -2.694  12.301  20.022  0.00  0.00    +0.000 A 
ATOM      4  S   UNL     1      -3.256  11.536  18.559  0.00  0.00    +0.000 S 
ATOM      5  C   UNL     1      -1.643  10.955  18.178  0.00  0.00    +0.000 A 
ATOM      6  O   UNL     1      -1.381  10.351  17.154  0.00  0.00    +0.000 OA
ATOM      7  N   UNL     1      -0.776  11.340  19.194  0.00  0.00    +0.000 N 
ENDROOT
BRANCH   3   8
ATOM      8  C   UNL     1      -3.689  13.029  20.886  0.00  0.00    +0.000 C 
ATOM      9  O   UNL     1      -4.152  14.121  20.575  0.00  0.00    +0.000 OA
ATOM     10  N   UNL     1      -4.032  12.386  22.056  0.00  0.00    +0.000 N 
ATOM     11  H   UNL     1      -3.716  11.431  22.192  0.00  0.00    +0.000 HD
BRANCH  10  12
ATOM     12  C   UNL     1      -5.007  12.916  22.985  0.00  0.00    +0.000 C 
BRANCH  12  13
ATOM     13  C   UNL     1      -4.386  14.019  23.793  0.00  0.00    +0.000 A 
ATOM     14  C   UNL     1      -3.207  13.999  24.517  0.00  0.00    +0.000 A 
ATOM     15  C   UNL     1      -2.909  15.261  25.116  0.00  0.00    +0.000 A 
ATOM     16  C   UNL     1      -3.872  16.203  24.835  0.00  0.00    +0.000 A 
ATOM     17  S   UNL     1      -5.127  15.566  23.862  0.00  0.00    +0.000 S 
ENDBRANCH  12  13
ENDBRANCH  10  12
ENDBRANCH   3   8
BRANCH   7  18
ATOM     18  C   UNL     1       0.644  11.069  19.016  0.00  0.00    +0.000 C 
BRANCH  18  19
ATOM     19  C   UNL     1       1.087   9.622  19.140  0.00  0.00    +0.000 A 
ATOM     20  C   UNL     1       1.703   8.953  18.065  0.00  0.00    +0.000 A 
ATOM     21  C   UNL     1       2.288   7.690  18.242  0.00  0.00    +0.000 A 
ATOM     22  C   UNL     1       2.279   7.090  19.504  0.00  0.00    +0.000 A 
ATOM     23  C   UNL     1       1.608   7.709  20.563  0.00  0.00    +0.000 A 
ATOM     24  C   UNL     1       1.012   8.963  20.377  0.00  0.00    +0.000 A 
BRANCH  22  25
ATOM     25  S   UNL     1       2.985   5.466  19.719  0.00  0.00    +0.000 S 
ATOM     26  O   UNL     1       4.424   5.584  19.603  0.00  0.00    +0.000 OA
ATOM     27  O   UNL     1       2.384   4.893  20.906  0.00  0.00    +0.000 OA
BRANCH  25  28
ATOM     28  N   UNL     1       2.433   4.560  18.366  0.00  0.00    +0.000 NA
ATOM     29  C   UNL     1       3.490   3.899  17.564  0.00  0.00    +0.000 C 
ATOM     30  C   UNL     1       1.383   3.574  18.737  0.00  0.00    +0.000 C 
ENDBRANCH  25  28
ENDBRANCH  22  25
ENDBRANCH  18  19
ENDBRANCH   7  18
TORSDOF 7
ENDMDL
MODEL 6
REMARK VINA RESULT:      -7.0      2.465      3.275
REMARK  Name = 
REMARK  10 active torsions:
REMARK  status: ('A' for Active; 'I' for Inactive)
REMARK    1  A    between atoms: C_1  and  C_2
REMARK    2  A    between atoms: C_3  and  C_4
REMARK    3  A    between atoms: N_6  and  C_7
REMARK    4  A    between atoms: C_7  and  C_8
REMARK    5  A    between atoms: N_16  and  C_17
REMARK    6  A    between atoms: C_17  and  C_18
REMARK    7  A    between atoms: C_21  and  S_22
REMARK    8  A    between atoms: S_22  and  N_25
REMARK    9  A    between atoms: N_25  and  C_26
REMARK   10  A    between atoms: N_25  and  C_27
REMARK                            x       y       z     vdW  Elec       q    Type
REMARK                         _______ _______ _______ _____ _____    ______ ____
ROOT
ATOM      1  C   UNL     1       0.882  11.104  18.711  0.00  0.00    +0.000 C 
ATOM      2  C   UNL     1       0.949  10.175  19.888  0.00  0.00    +0.000 A 
ATOM      3  C   UNL     1       1.486   8.931  19.892  0.00  0.00    +0.000 A 
ATOM      4  S   UNL     1       1.419   8.203  21.476  0.00  0.00    +0.000 S 
ATOM      5  C   UNL     1       0.653   9.628  22.159  0.00  0.00    +0.000 A 
ATOM      6  O   UNL     1       0.395   9.738  23.344  0.00  0.00    +0.000 OA
ATOM      7  N   UNL     1       0.458  10.561  21.147  0.00  0.00    +0.000 N 
ENDROOT
BRANCH   3   8
ATOM      8  C   UNL     1       2.079   8.140  18.757  0.00  0.00    +0.000 C 
ATOM      9  O   UNL     1       2.122   8.572  17.610  0.00  0.00    +0.000 OA
ATOM     10  N   UNL     1       2.559   6.894  19.097  0.00  0.00    +0.000 N 
ATOM     11  H   UNL     1       2.612   6.651  20.081  0.00  0.00    +0.000 HD
BRANCH  10  12
ATOM     12  C   UNL     1       3.203   6.015  18.145  0.00  0.00    +0.000 C 
BRANCH  12  13
ATOM     13  C   UNL     1       2.639   4.630  18.275  0.00  0.00    +0.000 A 
ATOM     14  C   UNL     1       1.643   4.180  19.123  0.00  0.00    +0.000 A 
ATOM     15  C   UNL     1       1.333   2.801  18.924  0.00  0.00    +0.000 A 
ATOM     16  C   UNL     1       2.105   2.238  17.933  0.00  0.00    +0.000 A 
ATOM     17  S   UNL     1       3.199   3.366  17.256  0.00  0.00    +0.000 S 
ENDBRANCH  12  13
ENDBRANCH  10  12
ENDBRANCH   3   8
BRANCH   7  18
ATOM     18  C   UNL     1      -0.051  11.873  21.521  0.00  0.00    +0.000 C 
BRANCH  18  19
ATOM     19  C   UNL     1      -1.560  12.029  21.594  0.00  0.00    +0.000 A 
ATOM     20  C   UNL     1      -2.250  11.897  22.814  0.00  0.00    +0.000 A 
ATOM     21  C   UNL     1      -3.607  12.235  22.915  0.00  0.00    +0.000 A 
ATOM     22  C   UNL     1      -4.287  12.727  21.798  0.00  0.00    +0.000 A 
ATOM     23  C   UNL     1      -3.636  12.795  20.562  0.00  0.00    +0.000 A 
ATOM     24  C   UNL     1      -2.283  12.441  20.463  0.00  0.00    +0.000 A 
BRANCH  22  25
ATOM     25  S   UNL     1      -6.024  13.116  21.916  0.00  0.00    +0.000 S 
ATOM     26  O   UNL     1      -6.287  14.253  21.057  0.00  0.00    +0.000 OA
ATOM     27  O   UNL     1      -6.752  11.876  21.744  0.00  0.00    +0.000 OA
BRANCH  25  28
ATOM     28  N   UNL     1      -6.252  13.635  23.539  0.00  0.00    +0.000 NA
ATOM     29  C   UNL     1      -6.314  15.103  23.739  0.00  0.00    +0.000 C 
ATOM     30  C   UNL     1      -7.425  12.983  24.180  0.00  0.00    +0.000 C 
ENDBRANCH  25  28
ENDBRANCH  22  25
ENDBRANCH  18  19
ENDBRANCH   7  18
TORSDOF 7
ENDMDL
MODEL 7
REMARK VINA RESULT:      -6.9      1.504      1.976
REMARK  Name = 
REMARK  10 active torsions:
REMARK  status: ('A' for Active; 'I' for Inactive)
REMARK    1  A    between atoms: C_1  and  C_2
REMARK    2  A    between atoms: C_3  and  C_4
REMARK    3  A    between atoms: N_6  and  C_7
REMARK    4  A    between atoms: C_7  and  C_8
REMARK    5  A    between atoms: N_16  and  C_17
REMARK    6  A    between atoms: C_17  and  C_18
REMARK    7  A    between atoms: C_21  and  S_22
REMARK    8  A    between atoms: S_22  and  N_25
REMARK    9  A    between atoms: N_25  and  C_26
REMARK   10  A    between atoms: N_25  and  C_27
REMARK                            x       y       z     vdW  Elec       q    Type
REMARK                         _______ _______ _______ _____ _____    ______ ____
ROOT
ATOM      1  C   UNL     1       1.533   8.569  17.616  0.00  0.00    +0.000 C 
ATOM      2  C   UNL     1       1.443   8.598  19.114  0.00  0.00    +0.000 A 
ATOM      3  C   UNL     1       1.916   7.652  19.959  0.00  0.00    +0.000 A 
ATOM      4  S   UNL     1       1.664   8.091  21.629  0.00  0.00    +0.000 S 
ATOM      5  C   UNL     1       0.908   9.609  21.172  0.00  0.00    +0.000 A 
ATOM      6  O   UNL     1       0.544  10.438  21.985  0.00  0.00    +0.000 OA
ATOM      7  N   UNL     1       0.855   9.684  19.786  0.00  0.00    +0.000 N 
ENDROOT
BRANCH   3   8
ATOM      8  C   UNL     1       2.575   6.334  19.650  0.00  0.00    +0.000 C 
ATOM      9  O   UNL     1       1.931   5.307  19.464  0.00  0.00    +0.000 OA
ATOM     10  N   UNL     1       3.952   6.363  19.601  0.00  0.00    +0.000 N 
ATOM     11  H   UNL     1       4.416   7.265  19.634  0.00  0.00    +0.000 HD
BRANCH  10  12
ATOM     12  C   UNL     1       4.749   5.201  19.273  0.00  0.00    +0.000 C 
BRANCH  12  13
ATOM     13  C   UNL     1       5.010   5.168  17.796  0.00  0.00    +0.000 A 
ATOM     14  C   UNL     1       5.004   4.079  16.942  0.00  0.00    +0.000 A 
ATOM     15  C   UNL     1       5.244   4.446  15.583  0.00  0.00    +0.000 A 
ATOM     16  C   UNL     1       5.431   5.802  15.441  0.00  0.00    +0.000 A 
ATOM     17  S   UNL     1       5.323   6.623  16.938  0.00  0.00    +0.000 S 
ENDBRANCH  12  13
ENDBRANCH  10  12
ENDBRANCH   3   8
BRANCH   7  18
ATOM     18  C   UNL     1       0.377  10.924  19.189  0.00  0.00    +0.000 C 
BRANCH  18  19
ATOM     19  C   UNL     1      -1.125  11.073  19.025  0.00  0.00    +0.000 A 
ATOM     20  C   UNL     1      -1.847  12.038  19.753  0.00  0.00    +0.000 A 
ATOM     21  C   UNL     1      -3.191  12.308  19.456  0.00  0.00    +0.000 A 
ATOM     22  C   UNL     1      -3.825  11.625  18.415  0.00  0.00    +0.000 A 
ATOM     23  C   UNL     1      -3.143  10.613  17.732  0.00  0.00    +0.000 A 
ATOM     24  C   UNL     1      -1.804  10.337  18.042  0.00  0.00    +0.000 A 
BRANCH  22  25
ATOM     25  S   UNL     1      -5.546  11.937  18.066  0.00  0.00    +0.000 S 
ATOM     26  O   UNL     1      -5.630  12.595  16.778  0.00  0.00    +0.000 OA
ATOM     27  O   UNL     1      -6.262  10.702  18.313  0.00  0.00    +0.000 OA
BRANCH  25  28
ATOM     28  N   UNL     1      -6.040  13.075  19.258  0.00  0.00    +0.000 NA
ATOM     29  C   UNL     1      -6.686  14.304  18.739  0.00  0.00    +0.000 C 
ATOM     30  C   UNL     1      -6.890  12.457  20.310  0.00  0.00    +0.000 C 
ENDBRANCH  25  28
ENDBRANCH  22  25
ENDBRANCH  18  19
ENDBRANCH   7  18
TORSDOF 7
ENDMDL
MODEL 8
REMARK VINA RESULT:      -6.9      1.856      2.310
REMARK  Name = 
REMARK  10 active torsions:
REMARK  status: ('A' for Active; 'I' for Inactive)
REMARK    1  A    between atoms: C_1  and  C_2
REMARK    2  A    between atoms: C_3  and  C_4
REMARK    3  A    between atoms: N_6  and  C_7
REMARK    4  A    between atoms: C_7  and  C_8
REMARK    5  A    between atoms: N_16  and  C_17
REMARK    6  A    between atoms: C_17  and  C_18
REMARK    7  A    between atoms: C_21  and  S_22
REMARK    8  A    between atoms: S_22  and  N_25
REMARK    9  A    between atoms: N_25  and  C_26
REMARK   10  A    between atoms: N_25  and  C_27
REMARK                            x       y       z     vdW  Elec       q    Type
REMARK                         _______ _______ _______ _____ _____    ______ ____
ROOT
ATOM      1  C   UNL     1       1.130  11.375  18.638  0.00  0.00    +0.000 C 
ATOM      2  C   UNL     1       1.051  10.411  19.785  0.00  0.00    +0.000 A 
ATOM      3  C   UNL     1       1.463   9.121  19.772  0.00  0.00    +0.000 A 
ATOM      4  S   UNL     1       1.252   8.358  21.326  0.00  0.00    +0.000 S 
ATOM      5  C   UNL     1       0.598   9.832  22.022  0.00  0.00    +0.000 A 
ATOM      6  O   UNL     1       0.296   9.932  23.197  0.00  0.00    +0.000 OA
ATOM      7  N   UNL     1       0.542  10.808  21.034  0.00  0.00    +0.000 N 
ENDROOT
BRANCH   3   8
ATOM      8  C   UNL     1       2.029   8.308  18.638  0.00  0.00    +0.000 C 
ATOM      9  O   UNL     1       2.216   8.781  17.523  0.00  0.00    +0.000 OA
ATOM     10  N   UNL     1       2.311   6.993  18.941  0.00  0.00    +0.000 N 
ATOM     11  H   UNL     1       2.256   6.701  19.911  0.00  0.00    +0.000 HD
BRANCH  10  12
ATOM     12  C   UNL     1       2.900   6.079  17.988  0.00  0.00    +0.000 C 
BRANCH  12  13
ATOM     13  C   UNL     1       4.373   5.956  18.251  0.00  0.00    +0.000 A 
ATOM     14  C   UNL     1       5.015   5.267  19.265  0.00  0.00    +0.000 A 
ATOM     15  C   UNL     1       6.437   5.333  19.160  0.00  0.00    +0.000 A 
ATOM     16  C   UNL     1       6.839   6.076  18.073  0.00  0.00    +0.000 A 
ATOM     17  S   UNL     1       5.508   6.691  17.191  0.00  0.00    +0.000 S 
ENDBRANCH  12  13
ENDBRANCH  10  12
ENDBRANCH   3   8
BRANCH   7  18
ATOM     18  C   UNL     1       0.145  12.153  21.428  0.00  0.00    +0.000 C 
BRANCH  18  19
ATOM     19  C   UNL     1      -1.337  12.477  21.370  0.00  0.00    +0.000 A 
ATOM     20  C   UNL     1      -2.018  12.565  20.141  0.00  0.00    +0.000 A 
ATOM     21  C   UNL     1      -3.416  12.667  20.098  0.00  0.00    +0.000 A 
ATOM     22  C   UNL     1      -4.152  12.664  21.285  0.00  0.00    +0.000 A 
ATOM     23  C   UNL     1      -3.486  12.650  22.515  0.00  0.00    +0.000 A 
ATOM     24  C   UNL     1      -2.088  12.564  22.554  0.00  0.00    +0.000 A 
BRANCH  22  25
ATOM     25  S   UNL     1      -5.926  12.836  21.231  0.00  0.00    +0.000 S 
ATOM     26  O   UNL     1      -6.511  11.542  21.522  0.00  0.00    +0.000 OA
ATOM     27  O   UNL     1      -6.267  13.997  22.027  0.00  0.00    +0.000 OA
BRANCH  25  28
ATOM     28  N   UNL     1      -6.285  13.204  19.590  0.00  0.00    +0.000 NA
ATOM     29  C   UNL     1      -7.191  12.251  18.904  0.00  0.00    +0.000 C 
ATOM     30  C   UNL     1      -6.784  14.595  19.420  0.00  0.00    +0.000 C 
ENDBRANCH  25  28
ENDBRANCH  22  25
ENDBRANCH  18  19
ENDBRANCH   7  18
TORSDOF 7
ENDMDL
MODEL 9
REMARK VINA RESULT:      -6.9      4.141      9.782
REMARK  Name = 
REMARK  10 active torsions:
REMARK  status: ('A' for Active; 'I' for Inactive)
REMARK    1  A    between atoms: C_1  and  C_2
REMARK    2  A    between atoms: C_3  and  C_4
REMARK    3  A    between atoms: N_6  and  C_7
REMARK    4  A    between atoms: C_7  and  C_8
REMARK    5  A    between atoms: N_16  and  C_17
REMARK    6  A    between atoms: C_17  and  C_18
REMARK    7  A    between atoms: C_21  and  S_22
REMARK    8  A    between atoms: S_22  and  N_25
REMARK    9  A    between atoms: N_25  and  C_26
REMARK   10  A    between atoms: N_25  and  C_27
REMARK                            x       y       z     vdW  Elec       q    Type
REMARK                         _______ _______ _______ _____ _____    ______ ____
ROOT
ATOM      1  C   UNL     1       2.440  12.005  17.892  0.00  0.00    +0.000 C 
ATOM      2  C   UNL     1       1.608  11.647  19.089  0.00  0.00    +0.000 A 
ATOM      3  C   UNL     1       1.284  12.474  20.111  0.00  0.00    +0.000 A 
ATOM      4  S   UNL     1       0.251  11.688  21.276  0.00  0.00    +0.000 S 
ATOM      5  C   UNL     1       0.244  10.198  20.347  0.00  0.00    +0.000 A 
ATOM      6  O   UNL     1      -0.412   9.223  20.665  0.00  0.00    +0.000 OA
ATOM      7  N   UNL     1       1.050  10.364  19.228  0.00  0.00    +0.000 N 
ENDROOT
BRANCH   3   8
ATOM      8  C   UNL     1       1.701  13.899  20.359  0.00  0.00    +0.000 C 
ATOM      9  O   UNL     1       2.854  14.204  20.643  0.00  0.00    +0.000 OA
ATOM     10  N   UNL     1       0.692  14.833  20.255  0.00  0.00    +0.000 N 
ATOM     11  H   UNL     1      -0.206  14.532  19.890  0.00  0.00    +0.000 HD
BRANCH  10  12
ATOM     12  C   UNL     1       0.919  16.253  20.416  0.00  0.00    +0.000 C 
BRANCH  12  13
ATOM     13  C   UNL     1       0.714  16.949  19.102  0.00  0.00    +0.000 A 
ATOM     14  C   UNL     1      -0.471  17.374  18.526  0.00  0.00    +0.000 A 
ATOM     15  C   UNL     1      -0.267  18.051  17.286  0.00  0.00    +0.000 A 
ATOM     16  C   UNL     1       1.066  18.118  16.949  0.00  0.00    +0.000 A 
ATOM     17  S   UNL     1       2.060  17.364  18.120  0.00  0.00    +0.000 S 
ENDBRANCH  12  13
ENDBRANCH  10  12
ENDBRANCH   3   8
BRANCH   7  18
ATOM     18  C   UNL     1       1.086   9.286  18.249  0.00  0.00    +0.000 C 
BRANCH  18  19
ATOM     19  C   UNL     1       2.136   8.209  18.451  0.00  0.00    +0.000 A 
ATOM     20  C   UNL     1       2.040   7.282  19.507  0.00  0.00    +0.000 A 
ATOM     21  C   UNL     1       2.897   6.174  19.573  0.00  0.00    +0.000 A 
ATOM     22  C   UNL     1       3.851   5.970  18.574  0.00  0.00    +0.000 A 
ATOM     23  C   UNL     1       4.008   6.919  17.559  0.00  0.00    +0.000 A 
ATOM     24  C   UNL     1       3.159   8.033  17.505  0.00  0.00    +0.000 A 
BRANCH  22  25
ATOM     25  S   UNL     1       4.968   4.584  18.682  0.00  0.00    +0.000 S 
ATOM     26  O   UNL     1       5.532   4.358  17.367  0.00  0.00    +0.000 OA
ATOM     27  O   UNL     1       5.829   4.818  19.824  0.00  0.00    +0.000 OA
BRANCH  25  28
ATOM     28  N   UNL     1       3.967   3.235  19.051  0.00  0.00    +0.000 NA
ATOM     29  C   UNL     1       3.499   2.449  17.884  0.00  0.00    +0.000 C 
ATOM     30  C   UNL     1       4.584   2.334  20.060  0.00  0.00    +0.000 C 
ENDBRANCH  25  28
ENDBRANCH  22  25
ENDBRANCH  18  19
ENDBRANCH   7  18
TORSDOF 7
ENDMDL
