MODEL 1
REMARK VINA RESULT:      -8.4      0.000      0.000
REMARK  Name = 
REMARK  9 active torsions:
REMARK  status: ('A' for Active; 'I' for Inactive)
REMARK    1  A    between atoms: C_1  and  O_2
REMARK    2  A    between atoms: O_2  and  C_3
REMARK    3  A    between atoms: C_3  and  C_5
REMARK    4  A    between atoms: C_7  and  C_8
REMARK    5  A    between atoms: C_8  and  O_10
REMARK    6  A    between atoms: O_10  and  C_11
REMARK    7  A    between atoms: C_11  and  C_12
REMARK    8  A    between atoms: C_15  and  C_17
REMARK    9  A    between atoms: C_24  and  N_25
REMARK                            x       y       z     vdW  Elec       q    Type
REMARK                         _______ _______ _______ _____ _____    ______ ____
ROOT
ATOM      1  C   UNL     1       3.533   3.081  17.216  0.00  0.00    +0.000 C 
ATOM      2  O   UNL     1       2.483   3.418  16.686  0.00  0.00    +0.000 OA
ENDROOT
BRANCH   1   5
ATOM      3  C   UNL     1       6.494   4.674  15.484  0.00  0.00    +0.000 A 
ATOM      4  C   UNL     1       5.330   3.932  15.735  0.00  0.00    +0.000 A 
ATOM      5  C   UNL     1       4.827   3.799  17.038  0.00  0.00    +0.000 A 
ATOM      6  C   UNL     1       5.515   4.392  18.107  0.00  0.00    +0.000 A 
ATOM      7  C   UNL     1       6.683   5.129  17.854  0.00  0.00    +0.000 A 
ATOM      8  C   UNL     1       7.177   5.274  16.551  0.00  0.00    +0.000 A 
BRANCH   7   9
ATOM      9  N   UNL     1       7.385   5.785  18.966  0.00  0.00    +0.000 N 
ATOM     10  O   UNL     1       7.245   5.307  20.097  0.00  0.00    +0.000 OA
ATOM     11  O   UNL     1       8.075   6.782  18.701  0.00  0.00    +0.000 OA
ENDBRANCH   7   9
BRANCH   3  12
ATOM     12  C   UNL     1       6.933   4.835  14.071  0.00  0.00    +0.000 C 
ATOM     13  O   UNL     1       7.919   5.476  13.747  0.00  0.00    +0.000 OA
BRANCH  12  15
ATOM     14  C   UNL     1       6.781   3.466  12.180  0.00  0.00    +0.000 C 
ATOM     15  O   UNL     1       6.110   4.155  13.237  0.00  0.00    +0.000 OA
ENDBRANCH  12  15
ENDBRANCH   3  12
ENDBRANCH   1   5
BRANCH   1  16
ATOM     16  O   UNL     1       3.669   2.043  18.072  0.00  0.00    +0.000 OA
BRANCH  16  17
ATOM     17  C   UNL     1       2.573   1.865  18.972  0.00  0.00    +0.000 C 
BRANCH  17  18
ATOM     18  C   UNL     1       2.540   2.929  20.071  0.00  0.00    +0.000 C 
ATOM     19  O   UNL     1       2.625   2.595  21.250  0.00  0.00    +0.000 OA
ATOM     20  N   UNL     1       2.447   4.229  19.598  0.00  0.00    +0.000 N 
ATOM     21  C   UNL     1       2.319   5.342  20.412  0.00  0.00    +0.000 C 
ATOM     22  O   UNL     1       2.303   5.315  21.638  0.00  0.00    +0.000 OA
ATOM     23  H   UNL     1       2.461   4.352  18.594  0.00  0.00    +0.000 HD
BRANCH  21  24
ATOM     24  C   UNL     1       2.146   6.667  19.744  0.00  0.00    +0.000 A 
ATOM     25  C   UNL     1       2.581   6.777  18.411  0.00  0.00    +0.000 A 
ATOM     26  C   UNL     1       2.462   7.980  17.716  0.00  0.00    +0.000 A 
ATOM     27  C   UNL     1       1.898   9.086  18.344  0.00  0.00    +0.000 A 
ATOM     28  C   UNL     1       1.443   8.985  19.660  0.00  0.00    +0.000 A 
ATOM     29  C   UNL     1       1.562   7.779  20.363  0.00  0.00    +0.000 A 
ENDBRANCH  21  24
ENDBRANCH  17  18
ENDBRANCH  16  17
ENDBRANCH   1  16
TORSDOF 8
ENDMDL
MODEL 2
REMARK VINA RESULT:      -8.1      1.206      3.315
REMARK  Name = 
REMARK  9 active torsions:
REMARK  status: ('A' for Active; 'I' for Inactive)
REMARK    1  A    between atoms: C_1  and  O_2
REMARK    2  A    between atoms: O_2  and  C_3
REMARK    3  A    between atoms: C_3  and  C_5
REMARK    4  A    between atoms: C_7  and  C_8
REMARK    5  A    between atoms: C_8  and  O_10
REMARK    6  A    between atoms: O_10  and  C_11
REMARK    7  A    between atoms: C_11  and  C_12
REMARK    8  A    between atoms: C_15  and  C_17
REMARK    9  A    between atoms: C_24  and  N_25
REMARK                            x       y       z     vdW  Elec       q    Type
REMARK                         _______ _______ _______ _____ _____    ______ ____
ROOT
ATOM      1  C   UNL     1       3.493   3.104  17.092  0.00  0.00    +0.000 C 
ATOM      2  O   UNL     1       2.378   3.362  16.660  0.00  0.00    +0.000 OA
ENDROOT
BRANCH   1   5
ATOM      3  C   UNL     1       6.602   5.199  17.600  0.00  0.00    +0.000 A 
ATOM      4  C   UNL     1       5.394   4.519  17.822  0.00  0.00    +0.000 A 
ATOM      5  C   UNL     1       4.717   3.890  16.766  0.00  0.00    +0.000 A 
ATOM      6  C   UNL     1       5.241   3.968  15.467  0.00  0.00    +0.000 A 
ATOM      7  C   UNL     1       6.446   4.653  15.248  0.00  0.00    +0.000 A 
ATOM      8  C   UNL     1       7.130   5.269  16.304  0.00  0.00    +0.000 A 
BRANCH   7   9
ATOM      9  N   UNL     1       7.020   4.703  13.895  0.00  0.00    +0.000 N 
ATOM     10  O   UNL     1       6.553   3.938  13.043  0.00  0.00    +0.000 OA
ATOM     11  O   UNL     1       7.939   5.510  13.690  0.00  0.00    +0.000 OA
ENDBRANCH   7   9
BRANCH   3  12
ATOM     12  C   UNL     1       7.304   5.783  18.776  0.00  0.00    +0.000 C 
ATOM     13  O   UNL     1       7.041   5.479  19.928  0.00  0.00    +0.000 OA
BRANCH  12  15
ATOM     14  C   UNL     1       7.775   7.939  18.001  0.00  0.00    +0.000 C 
ATOM     15  O   UNL     1       8.265   6.649  18.375  0.00  0.00    +0.000 OA
ENDBRANCH  12  15
ENDBRANCH   3  12
ENDBRANCH   1   5
BRANCH   1  16
ATOM     16  O   UNL     1       3.775   2.106  17.958  0.00  0.00    +0.000 OA
BRANCH  16  17
ATOM     17  C   UNL     1       2.732   1.815  18.892  0.00  0.00    +0.000 C 
BRANCH  17  18
ATOM     18  C   UNL     1       2.627   2.866  19.998  0.00  0.00    +0.000 C 
ATOM     19  O   UNL     1       2.676   2.523  21.176  0.00  0.00    +0.000 OA
ATOM     20  N   UNL     1       2.517   4.168  19.533  0.00  0.00    +0.000 N 
ATOM     21  C   UNL     1       2.327   5.268  20.352  0.00  0.00    +0.000 C 
ATOM     22  O   UNL     1       2.264   5.229  21.576  0.00  0.00    +0.000 OA
ATOM     23  H   UNL     1       2.567   4.301  18.532  0.00  0.00    +0.000 HD
BRANCH  21  24
ATOM     24  C   UNL     1       2.145   6.595  19.689  0.00  0.00    +0.000 A 
ATOM     25  C   UNL     1       1.542   7.615  20.447  0.00  0.00    +0.000 A 
ATOM     26  C   UNL     1       1.329   8.881  19.902  0.00  0.00    +0.000 A 
ATOM     27  C   UNL     1       1.725   9.145  18.594  0.00  0.00    +0.000 A 
ATOM     28  C   UNL     1       2.343   8.147  17.838  0.00  0.00    +0.000 A 
ATOM     29  C   UNL     1       2.558   6.873  18.381  0.00  0.00    +0.000 A 
ENDBRANCH  21  24
ENDBRANCH  17  18
ENDBRANCH  16  17
ENDBRANCH   1  16
TORSDOF 8
ENDMDL
MODEL 3
REMARK VINA RESULT:      -8.0      4.069      7.320
REMARK  Name = 
REMARK  9 active torsions:
REMARK  status: ('A' for Active; 'I' for Inactive)
REMARK    1  A    between atoms: C_1  and  O_2
REMARK    2  A    between atoms: O_2  and  C_3
REMARK    3  A    between atoms: C_3  and  C_5
REMARK    4  A    between atoms: C_7  and  C_8
REMARK    5  A    between atoms: C_8  and  O_10
REMARK    6  A    between atoms: O_10  and  C_11
REMARK    7  A    between atoms: C_11  and  C_12
REMARK    8  A    between atoms: C_15  and  C_17
REMARK    9  A    between atoms: C_24  and  N_25
REMARK                            x       y       z     vdW  Elec       q    Type
REMARK                         _______ _______ _______ _____ _____    ______ ____
ROOT
ATOM      1  C   UNL     1       5.915   4.721  18.982  0.00  0.00    +0.000 C 
ATOM      2  O   UNL     1       6.230   3.944  18.091  0.00  0.00    +0.000 OA
ENDROOT
BRANCH   1   5
ATOM      3  C   UNL     1       2.592   6.388  19.680  0.00  0.00    +0.000 A 
ATOM      4  C   UNL     1       3.931   6.169  19.321  0.00  0.00    +0.000 A 
ATOM      5  C   UNL     1       4.520   4.905  19.476  0.00  0.00    +0.000 A 
ATOM      6  C   UNL     1       3.769   3.856  20.023  0.00  0.00    +0.000 A 
ATOM      7  C   UNL     1       2.431   4.079  20.387  0.00  0.00    +0.000 A 
ATOM      8  C   UNL     1       1.838   5.337  20.219  0.00  0.00    +0.000 A 
BRANCH   7   9
ATOM      9  N   UNL     1       1.628   2.971  20.924  0.00  0.00    +0.000 N 
ATOM     10  O   UNL     1       0.833   2.413  20.159  0.00  0.00    +0.000 OA
ATOM     11  O   UNL     1       1.795   2.665  22.114  0.00  0.00    +0.000 OA
ENDBRANCH   7   9
BRANCH   3  12
ATOM     12  C   UNL     1       2.008   7.733  19.424  0.00  0.00    +0.000 C 
ATOM     13  O   UNL     1       1.526   8.429  20.302  0.00  0.00    +0.000 OA
BRANCH  12  15
ATOM     14  C   UNL     1       1.926   9.447  17.834  0.00  0.00    +0.000 C 
ATOM     15  O   UNL     1       2.121   8.059  18.114  0.00  0.00    +0.000 OA
ENDBRANCH  12  15
ENDBRANCH   3  12
ENDBRANCH   1   5
BRANCH   1  16
ATOM     16  O   UNL     1       6.781   5.490  19.680  0.00  0.00    +0.000 OA
BRANCH  16  17
ATOM     17  C   UNL     1       7.945   5.888  18.951  0.00  0.00    +0.000 C 
BRANCH  17  18
ATOM     18  C   UNL     1       7.769   7.243  18.263  0.00  0.00    +0.000 C 
ATOM     19  O   UNL     1       6.988   7.354  17.321  0.00  0.00    +0.000 OA
ATOM     20  N   UNL     1       8.520   8.264  18.824  0.00  0.00    +0.000 N 
ATOM     21  C   UNL     1       8.581   9.550  18.313  0.00  0.00    +0.000 C 
ATOM     22  O   UNL     1       7.960   9.944  17.331  0.00  0.00    +0.000 OA
ATOM     23  H   UNL     1       9.062   8.035  19.646  0.00  0.00    +0.000 HD
BRANCH  21  24
ATOM     24  C   UNL     1       9.503  10.514  18.986  0.00  0.00    +0.000 A 
ATOM     25  C   UNL     1      10.485  11.128  18.188  0.00  0.00    +0.000 A 
ATOM     26  C   UNL     1      11.390  12.036  18.739  0.00  0.00    +0.000 A 
ATOM     27  C   UNL     1      11.316  12.348  20.093  0.00  0.00    +0.000 A 
ATOM     28  C   UNL     1      10.333  11.760  20.892  0.00  0.00    +0.000 A 
ATOM     29  C   UNL     1       9.424  10.847  20.343  0.00  0.00    +0.000 A 
ENDBRANCH  21  24
ENDBRANCH  17  18
ENDBRANCH  16  17
ENDBRANCH   1  16
TORSDOF 8
ENDMDL
MODEL 4
REMARK VINA RESULT:      -8.0      0.818      1.394
REMARK  Name = 
REMARK  9 active torsions:
REMARK  status: ('A' for Active; 'I' for Inactive)
REMARK    1  A    between atoms: C_1  and  O_2
REMARK    2  A    between atoms: O_2  and  C_3
REMARK    3  A    between atoms: C_3  and  C_5
REMARK    4  A    between atoms: C_7  and  C_8
REMARK    5  A    between atoms: C_8  and  O_10
REMARK    6  A    between atoms: O_10  and  C_11
REMARK    7  A    between atoms: C_11  and  C_12
REMARK    8  A    between atoms: C_15  and  C_17
REMARK    9  A    between atoms: C_24  and  N_25
REMARK                            x       y       z     vdW  Elec       q    Type
REMARK                         _______ _______ _______ _____ _____    ______ ____
ROOT
ATOM      1  C   UNL     1       3.430   3.460  17.698  0.00  0.00    +0.000 C 
ATOM      2  O   UNL     1       2.422   3.751  17.067  0.00  0.00    +0.000 OA
ENDROOT
BRANCH   1   5
ATOM      3  C   UNL     1       6.468   4.585  15.746  0.00  0.00    +0.000 A 
ATOM      4  C   UNL     1       5.245   3.991  16.095  0.00  0.00    +0.000 A 
ATOM      5  C   UNL     1       4.781   4.023  17.419  0.00  0.00    +0.000 A 
ATOM      6  C   UNL     1       5.565   4.630  18.411  0.00  0.00    +0.000 A 
ATOM      7  C   UNL     1       6.791   5.218  18.059  0.00  0.00    +0.000 A 
ATOM      8  C   UNL     1       7.247   5.199  16.735  0.00  0.00    +0.000 A 
BRANCH   7   9
ATOM      9  N   UNL     1       7.598   5.890  19.088  0.00  0.00    +0.000 N 
ATOM     10  O   UNL     1       7.657   5.366  20.207  0.00  0.00    +0.000 OA
ATOM     11  O   UNL     1       8.169   6.944  18.772  0.00  0.00    +0.000 OA
ENDBRANCH   7   9
BRANCH   3  12
ATOM     12  C   UNL     1       6.867   4.579  14.312  0.00  0.00    +0.000 C 
ATOM     13  O   UNL     1       6.400   3.803  13.494  0.00  0.00    +0.000 OA
BRANCH  12  15
ATOM     14  C   UNL     1       8.254   5.584  12.720  0.00  0.00    +0.000 C 
ATOM     15  O   UNL     1       7.773   5.554  14.065  0.00  0.00    +0.000 OA
ENDBRANCH  12  15
ENDBRANCH   3  12
ENDBRANCH   1   5
BRANCH   1  16
ATOM     16  O   UNL     1       3.462   2.627  18.762  0.00  0.00    +0.000 OA
BRANCH  16  17
ATOM     17  C   UNL     1       2.245   2.570  19.510  0.00  0.00    +0.000 C 
BRANCH  17  18
ATOM     18  C   UNL     1       2.057   3.788  20.417  0.00  0.00    +0.000 C 
ATOM     19  O   UNL     1       1.897   3.634  21.625  0.00  0.00    +0.000 OA
ATOM     20  N   UNL     1       2.127   5.003  19.753  0.00  0.00    +0.000 N 
ATOM     21  C   UNL     1       1.904   6.229  20.357  0.00  0.00    +0.000 C 
ATOM     22  O   UNL     1       1.651   6.388  21.547  0.00  0.00    +0.000 OA
ATOM     23  H   UNL     1       2.340   4.973  18.765  0.00  0.00    +0.000 HD
BRANCH  21  24
ATOM     24  C   UNL     1       1.934   7.441  19.485  0.00  0.00    +0.000 A 
ATOM     25  C   UNL     1       1.315   8.604  19.978  0.00  0.00    +0.000 A 
ATOM     26  C   UNL     1       1.293   9.778  19.225  0.00  0.00    +0.000 A 
ATOM     27  C   UNL     1       1.898   9.805  17.972  0.00  0.00    +0.000 A 
ATOM     28  C   UNL     1       2.532   8.663  17.479  0.00  0.00    +0.000 A 
ATOM     29  C   UNL     1       2.556   7.482  18.231  0.00  0.00    +0.000 A 
ENDBRANCH  21  24
ENDBRANCH  17  18
ENDBRANCH  16  17
ENDBRANCH   1  16
TORSDOF 8
ENDMDL
MODEL 5
REMARK VINA RESULT:      -7.8      0.986      1.716
REMARK  Name = 
REMARK  9 active torsions:
REMARK  status: ('A' for Active; 'I' for Inactive)
REMARK    1  A    between atoms: C_1  and  O_2
REMARK    2  A    between atoms: O_2  and  C_3
REMARK    3  A    between atoms: C_3  and  C_5
REMARK    4  A    between atoms: C_7  and  C_8
REMARK    5  A    between atoms: C_8  and  O_10
REMARK    6  A    between atoms: O_10  and  C_11
REMARK    7  A    between atoms: C_11  and  C_12
REMARK    8  A    between atoms: C_15  and  C_17
REMARK    9  A    between atoms: C_24  and  N_25
REMARK                            x       y       z     vdW  Elec       q    Type
REMARK                         _______ _______ _______ _____ _____    ______ ____
ROOT
ATOM      1  C   UNL     1       3.763   2.820  17.980  0.00  0.00    +0.000 C 
ATOM      2  O   UNL     1       3.780   1.808  18.668  0.00  0.00    +0.000 OA
ENDROOT
BRANCH   1   5
ATOM      3  C   UNL     1       6.401   4.499  15.852  0.00  0.00    +0.000 A 
ATOM      4  C   UNL     1       5.324   3.700  16.267  0.00  0.00    +0.000 A 
ATOM      5  C   UNL     1       4.978   3.607  17.623  0.00  0.00    +0.000 A 
ATOM      6  C   UNL     1       5.737   4.298  18.578  0.00  0.00    +0.000 A 
ATOM      7  C   UNL     1       6.818   5.091  18.161  0.00  0.00    +0.000 A 
ATOM      8  C   UNL     1       7.155   5.196  16.805  0.00  0.00    +0.000 A 
BRANCH   7   9
ATOM      9  N   UNL     1       7.593   5.849  19.154  0.00  0.00    +0.000 N 
ATOM     10  O   UNL     1       8.150   6.887  18.779  0.00  0.00    +0.000 OA
ATOM     11  O   UNL     1       7.641   5.400  20.309  0.00  0.00    +0.000 OA
ENDBRANCH   7   9
BRANCH   3  12
ATOM     12  C   UNL     1       6.669   4.610  14.391  0.00  0.00    +0.000 C 
ATOM     13  O   UNL     1       7.364   5.487  13.907  0.00  0.00    +0.000 OA
BRANCH  12  15
ATOM     14  C   UNL     1       6.423   3.520  12.337  0.00  0.00    +0.000 C 
ATOM     15  O   UNL     1       6.065   3.602  13.718  0.00  0.00    +0.000 OA
ENDBRANCH  12  15
ENDBRANCH   3  12
ENDBRANCH   1   5
BRANCH   1  16
ATOM     16  O   UNL     1       2.659   3.347  17.408  0.00  0.00    +0.000 OA
BRANCH  16  17
ATOM     17  C   UNL     1       1.522   3.430  18.271  0.00  0.00    +0.000 C 
BRANCH  17  18
ATOM     18  C   UNL     1       1.749   4.381  19.448  0.00  0.00    +0.000 C 
ATOM     19  O   UNL     1       1.975   3.928  20.566  0.00  0.00    +0.000 OA
ATOM     20  N   UNL     1       1.708   5.724  19.106  0.00  0.00    +0.000 N 
ATOM     21  C   UNL     1       1.804   6.759  20.021  0.00  0.00    +0.000 C 
ATOM     22  O   UNL     1       1.965   6.614  21.228  0.00  0.00    +0.000 OA
ATOM     23  H   UNL     1       1.585   5.943  18.126  0.00  0.00    +0.000 HD
BRANCH  21  24
ATOM     24  C   UNL     1       1.658   8.152  19.502  0.00  0.00    +0.000 A 
ATOM     25  C   UNL     1       1.087   9.104  20.365  0.00  0.00    +0.000 A 
ATOM     26  C   UNL     1       0.910  10.426  19.957  0.00  0.00    +0.000 A 
ATOM     27  C   UNL     1       1.310  10.813  18.682  0.00  0.00    +0.000 A 
ATOM     28  C   UNL     1       1.897   9.883  17.822  0.00  0.00    +0.000 A 
ATOM     29  C   UNL     1       2.075   8.554  18.228  0.00  0.00    +0.000 A 
ENDBRANCH  21  24
ENDBRANCH  17  18
ENDBRANCH  16  17
ENDBRANCH   1  16
TORSDOF 8
ENDMDL
MODEL 6
REMARK VINA RESULT:      -7.8      0.873      1.354
REMARK  Name = 
REMARK  9 active torsions:
REMARK  status: ('A' for Active; 'I' for Inactive)
REMARK    1  A    between atoms: C_1  and  O_2
REMARK    2  A    between atoms: O_2  and  C_3
REMARK    3  A    between atoms: C_3  and  C_5
REMARK    4  A    between atoms: C_7  and  C_8
REMARK    5  A    between atoms: C_8  and  O_10
REMARK    6  A    between atoms: O_10  and  C_11
REMARK    7  A    between atoms: C_11  and  C_12
REMARK    8  A    between atoms: C_15  and  C_17
REMARK    9  A    between atoms: C_24  and  N_25
REMARK                            x       y       z     vdW  Elec       q    Type
REMARK                         _______ _______ _______ _____ _____    ______ ____
ROOT
ATOM      1  C   UNL     1       3.774   2.853  17.806  0.00  0.00    +0.000 C 
ATOM      2  O   UNL     1       3.746   1.630  17.809  0.00  0.00    +0.000 OA
ENDROOT
BRANCH   1   5
ATOM      3  C   UNL     1       6.422   4.618  15.762  0.00  0.00    +0.000 A 
ATOM      4  C   UNL     1       5.347   3.798  16.139  0.00  0.00    +0.000 A 
ATOM      5  C   UNL     1       4.986   3.660  17.488  0.00  0.00    +0.000 A 
ATOM      6  C   UNL     1       5.728   4.327  18.473  0.00  0.00    +0.000 A 
ATOM      7  C   UNL     1       6.807   5.141  18.092  0.00  0.00    +0.000 A 
ATOM      8  C   UNL     1       7.159   5.291  16.745  0.00  0.00    +0.000 A 
BRANCH   7   9
ATOM      9  N   UNL     1       7.564   5.874  19.118  0.00  0.00    +0.000 N 
ATOM     10  O   UNL     1       8.195   6.876  18.762  0.00  0.00    +0.000 OA
ATOM     11  O   UNL     1       7.525   5.441  20.279  0.00  0.00    +0.000 OA
ENDBRANCH   7   9
BRANCH   3  12
ATOM     12  C   UNL     1       6.706   4.776  14.309  0.00  0.00    +0.000 C 
ATOM     13  O   UNL     1       7.615   5.468  13.879  0.00  0.00    +0.000 OA
BRANCH  12  15
ATOM     14  C   UNL     1       6.434   3.419  12.423  0.00  0.00    +0.000 C 
ATOM     15  O   UNL     1       5.846   4.034  13.572  0.00  0.00    +0.000 OA
ENDBRANCH  12  15
ENDBRANCH   3  12
ENDBRANCH   1   5
BRANCH   1  16
ATOM     16  O   UNL     1       2.709   3.651  18.043  0.00  0.00    +0.000 OA
BRANCH  16  17
ATOM     17  C   UNL     1       1.945   3.297  19.199  0.00  0.00    +0.000 C 
BRANCH  17  18
ATOM     18  C   UNL     1       1.887   4.427  20.229  0.00  0.00    +0.000 C 
ATOM     19  O   UNL     1       1.890   4.163  21.428  0.00  0.00    +0.000 OA
ATOM     20  N   UNL     1       1.870   5.698  19.675  0.00  0.00    +0.000 N 
ATOM     21  C   UNL     1       1.736   6.862  20.412  0.00  0.00    +0.000 C 
ATOM     22  O   UNL     1       1.647   6.910  21.635  0.00  0.00    +0.000 OA
ATOM     23  H   UNL     1       1.948   5.759  18.668  0.00  0.00    +0.000 HD
BRANCH  21  24
ATOM     24  C   UNL     1       1.653   8.149  19.658  0.00  0.00    +0.000 A 
ATOM     25  C   UNL     1       2.270   8.195  18.396  0.00  0.00    +0.000 A 
ATOM     26  C   UNL     1       2.244   9.360  17.628  0.00  0.00    +0.000 A 
ATOM     27  C   UNL     1       1.592  10.490  18.112  0.00  0.00    +0.000 A 
ATOM     28  C   UNL     1       0.957  10.451  19.355  0.00  0.00    +0.000 A 
ATOM     29  C   UNL     1       0.982   9.284  20.130  0.00  0.00    +0.000 A 
ENDBRANCH  21  24
ENDBRANCH  17  18
ENDBRANCH  16  17
ENDBRANCH   1  16
TORSDOF 8
ENDMDL
MODEL 7
REMARK VINA RESULT:      -7.6      4.371      7.372
REMARK  Name = 
REMARK  9 active torsions:
REMARK  status: ('A' for Active; 'I' for Inactive)
REMARK    1  A    between atoms: C_1  and  O_2
REMARK    2  A    between atoms: O_2  and  C_3
REMARK    3  A    between atoms: C_3  and  C_5
REMARK    4  A    between atoms: C_7  and  C_8
REMARK    5  A    between atoms: C_8  and  O_10
REMARK    6  A    between atoms: O_10  and  C_11
REMARK    7  A    between atoms: C_11  and  C_12
REMARK    8  A    between atoms: C_15  and  C_17
REMARK    9  A    between atoms: C_24  and  N_25
REMARK                            x       y       z     vdW  Elec       q    Type
REMARK                         _______ _______ _______ _____ _____    ______ ____
ROOT
ATOM      1  C   UNL     1       6.118   4.855  18.605  0.00  0.00    +0.000 C 
ATOM      2  O   UNL     1       6.634   3.839  18.159  0.00  0.00    +0.000 OA
ENDROOT
BRANCH   1   5
ATOM      3  C   UNL     1       2.404   4.180  18.852  0.00  0.00    +0.000 A 
ATOM      4  C   UNL     1       3.793   4.005  18.744  0.00  0.00    +0.000 A 
ATOM      5  C   UNL     1       4.649   5.109  18.615  0.00  0.00    +0.000 A 
ATOM      6  C   UNL     1       4.107   6.401  18.562  0.00  0.00    +0.000 A 
ATOM      7  C   UNL     1       2.717   6.572  18.665  0.00  0.00    +0.000 A 
ATOM      8  C   UNL     1       1.863   5.472  18.809  0.00  0.00    +0.000 A 
BRANCH   7   9
ATOM      9  N   UNL     1       2.147   7.927  18.650  0.00  0.00    +0.000 N 
ATOM     10  O   UNL     1       2.127   8.532  17.572  0.00  0.00    +0.000 OA
ATOM     11  O   UNL     1       1.720   8.382  19.722  0.00  0.00    +0.000 OA
ENDBRANCH   7   9
BRANCH   3  12
ATOM     12  C   UNL     1       1.559   2.972  19.059  0.00  0.00    +0.000 C 
ATOM     13  O   UNL     1       0.705   2.612  18.266  0.00  0.00    +0.000 OA
BRANCH  12  15
ATOM     14  C   UNL     1       1.397   2.970  21.392  0.00  0.00    +0.000 C 
ATOM     15  O   UNL     1       1.900   2.344  20.210  0.00  0.00    +0.000 OA
ENDBRANCH  12  15
ENDBRANCH   3  12
ENDBRANCH   1   5
BRANCH   1  16
ATOM     16  O   UNL     1       6.789   5.869  19.193  0.00  0.00    +0.000 OA
BRANCH  16  17
ATOM     17  C   UNL     1       7.926   6.334  18.461  0.00  0.00    +0.000 C 
BRANCH  17  18
ATOM     18  C   UNL     1       7.754   7.771  17.963  0.00  0.00    +0.000 C 
ATOM     19  O   UNL     1       6.904   8.028  17.115  0.00  0.00    +0.000 OA
ATOM     20  N   UNL     1       8.595   8.687  18.578  0.00  0.00    +0.000 N 
ATOM     21  C   UNL     1       8.671  10.024  18.227  0.00  0.00    +0.000 C 
ATOM     22  O   UNL     1       7.989  10.561  17.361  0.00  0.00    +0.000 OA
ATOM     23  H   UNL     1       9.192   8.336  19.315  0.00  0.00    +0.000 HD
BRANCH  21  24
ATOM     24  C   UNL     1       9.688  10.863  18.930  0.00  0.00    +0.000 A 
ATOM     25  C   UNL     1      10.750  11.366  18.159  0.00  0.00    +0.000 A 
ATOM     26  C   UNL     1      11.746  12.153  18.738  0.00  0.00    +0.000 A 
ATOM     27  C   UNL     1      11.685  12.453  20.096  0.00  0.00    +0.000 A 
ATOM     28  C   UNL     1      10.624  11.977  20.869  0.00  0.00    +0.000 A 
ATOM     29  C   UNL     1       9.623  11.185  20.291  0.00  0.00    +0.000 A 
ENDBRANCH  21  24
ENDBRANCH  17  18
ENDBRANCH  16  17
ENDBRANCH   1  16
TORSDOF 8
ENDMDL
MODEL 8
REMARK VINA RESULT:      -7.6      3.983      5.823
REMARK  Name = 
REMARK  9 active torsions:
REMARK  status: ('A' for Active; 'I' for Inactive)
REMARK    1  A    between atoms: C_1  and  O_2
REMARK    2  A    between atoms: O_2  and  C_3
REMARK    3  A    between atoms: C_3  and  C_5
REMARK    4  A    between atoms: C_7  and  C_8
REMARK    5  A    between atoms: C_8  and  O_10
REMARK    6  A    between atoms: O_10  and  C_11
REMARK    7  A    between atoms: C_11  and  C_12
REMARK    8  A    between atoms: C_15  and  C_17
REMARK    9  A    between atoms: C_24  and  N_25
REMARK                            x       y       z     vdW  Elec       q    Type
REMARK                         _______ _______ _______ _____ _____    ______ ____
ROOT
ATOM      1  C   UNL     1       2.476   8.128  18.015  0.00  0.00    +0.000 C 
ATOM      2  O   UNL     1       2.531   9.102  17.276  0.00  0.00    +0.000 OA
ENDROOT
BRANCH   1   5
ATOM      3  C   UNL     1       5.092   5.636  16.894  0.00  0.00    +0.000 A 
ATOM      4  C   UNL     1       4.389   6.831  17.118  0.00  0.00    +0.000 A 
ATOM      5  C   UNL     1       3.121   6.817  17.718  0.00  0.00    +0.000 A 
ATOM      6  C   UNL     1       2.537   5.592  18.070  0.00  0.00    +0.000 A 
ATOM      7  C   UNL     1       3.240   4.399  17.838  0.00  0.00    +0.000 A 
ATOM      8  C   UNL     1       4.512   4.413  17.253  0.00  0.00    +0.000 A 
BRANCH   7   9
ATOM      9  N   UNL     1       2.649   3.114  18.242  0.00  0.00    +0.000 N 
ATOM     10  O   UNL     1       2.047   2.462  17.380  0.00  0.00    +0.000 OA
ATOM     11  O   UNL     1       2.788   2.764  19.423  0.00  0.00    +0.000 OA
ENDBRANCH   7   9
BRANCH   3  12
ATOM     12  C   UNL     1       6.463   5.727  16.319  0.00  0.00    +0.000 C 
ATOM     13  O   UNL     1       7.475   5.683  16.999  0.00  0.00    +0.000 OA
BRANCH  12  15
ATOM     14  C   UNL     1       6.763   4.638  14.271  0.00  0.00    +0.000 C 
ATOM     15  O   UNL     1       6.408   5.833  14.970  0.00  0.00    +0.000 OA
ENDBRANCH  12  15
ENDBRANCH   3  12
ENDBRANCH   1   5
BRANCH   1  16
ATOM     16  O   UNL     1       1.869   8.106  19.223  0.00  0.00    +0.000 OA
BRANCH  16  17
ATOM     17  C   UNL     1       1.164   9.304  19.557  0.00  0.00    +0.000 C 
BRANCH  17  18
ATOM     18  C   UNL     1       0.854   9.403  21.051  0.00  0.00    +0.000 C 
ATOM     19  O   UNL     1       1.287   8.553  21.825  0.00  0.00    +0.000 OA
ATOM     20  N   UNL     1       0.106  10.517  21.401  0.00  0.00    +0.000 N 
ATOM     21  C   UNL     1      -0.360  10.765  22.681  0.00  0.00    +0.000 C 
ATOM     22  O   UNL     1      -0.145  10.052  23.656  0.00  0.00    +0.000 OA
ATOM     23  H   UNL     1      -0.115  11.171  20.661  0.00  0.00    +0.000 HD
BRANCH  21  24
ATOM     24  C   UNL     1      -1.223  11.969  22.878  0.00  0.00    +0.000 A 
ATOM     25  C   UNL     1      -2.546  11.750  23.301  0.00  0.00    +0.000 A 
ATOM     26  C   UNL     1      -3.420  12.819  23.503  0.00  0.00    +0.000 A 
ATOM     27  C   UNL     1      -2.977  14.121  23.291  0.00  0.00    +0.000 A 
ATOM     28  C   UNL     1      -1.660  14.354  22.890  0.00  0.00    +0.000 A 
ATOM     29  C   UNL     1      -0.779  13.283  22.685  0.00  0.00    +0.000 A 
ENDBRANCH  21  24
ENDBRANCH  17  18
ENDBRANCH  16  17
ENDBRANCH   1  16
TORSDOF 8
ENDMDL
MODEL 9
REMARK VINA RESULT:      -7.6      3.750      5.866
REMARK  Name = 
REMARK  9 active torsions:
REMARK  status: ('A' for Active; 'I' for Inactive)
REMARK    1  A    between atoms: C_1  and  O_2
REMARK    2  A    between atoms: O_2  and  C_3
REMARK    3  A    between atoms: C_3  and  C_5
REMARK    4  A    between atoms: C_7  and  C_8
REMARK    5  A    between atoms: C_8  and  O_10
REMARK    6  A    between atoms: O_10  and  C_11
REMARK    7  A    between atoms: C_11  and  C_12
REMARK    8  A    between atoms: C_15  and  C_17
REMARK    9  A    between atoms: C_24  and  N_25
REMARK                            x       y       z     vdW  Elec       q    Type
REMARK                         _______ _______ _______ _____ _____    ______ ____
ROOT
ATOM      1  C   UNL     1       2.503   7.944  18.069  0.00  0.00    +0.000 C 
ATOM      2  O   UNL     1       2.667   9.024  17.516  0.00  0.00    +0.000 OA
ENDROOT
BRANCH   1   5
ATOM      3  C   UNL     1       3.621   4.331  18.086  0.00  0.00    +0.000 A 
ATOM      4  C   UNL     1       2.923   5.518  18.357  0.00  0.00    +0.000 A 
ATOM      5  C   UNL     1       3.349   6.742  17.820  0.00  0.00    +0.000 A 
ATOM      6  C   UNL     1       4.504   6.783  17.027  0.00  0.00    +0.000 A 
ATOM      7  C   UNL     1       5.204   5.595  16.763  0.00  0.00    +0.000 A 
ATOM      8  C   UNL     1       4.771   4.370  17.287  0.00  0.00    +0.000 A 
BRANCH   7   9
ATOM      9  N   UNL     1       6.394   5.627  15.899  0.00  0.00    +0.000 N 
ATOM     10  O   UNL     1       6.329   5.047  14.809  0.00  0.00    +0.000 OA
ATOM     11  O   UNL     1       7.392   6.233  16.318  0.00  0.00    +0.000 OA
ENDBRANCH   7   9
BRANCH   3  12
ATOM     12  C   UNL     1       3.075   3.057  18.628  0.00  0.00    +0.000 C 
ATOM     13  O   UNL     1       3.658   1.989  18.537  0.00  0.00    +0.000 OA
BRANCH  12  15
ATOM     14  C   UNL     1       0.832   2.413  18.799  0.00  0.00    +0.000 C 
ATOM     15  O   UNL     1       1.886   3.271  19.241  0.00  0.00    +0.000 OA
ENDBRANCH  12  15
ENDBRANCH   3  12
ENDBRANCH   1   5
BRANCH   1  16
ATOM     16  O   UNL     1       1.569   7.693  19.013  0.00  0.00    +0.000 OA
BRANCH  16  17
ATOM     17  C   UNL     1       1.761   8.397  20.243  0.00  0.00    +0.000 C 
BRANCH  17  18
ATOM     18  C   UNL     1       0.834   9.606  20.376  0.00  0.00    +0.000 C 
ATOM     19  O   UNL     1       0.957  10.371  21.329  0.00  0.00    +0.000 OA
ATOM     20  N   UNL     1      -0.072   9.742  19.335  0.00  0.00    +0.000 N 
ATOM     21  C   UNL     1      -1.058  10.712  19.289  0.00  0.00    +0.000 C 
ATOM     22  O   UNL     1      -1.228  11.579  20.139  0.00  0.00    +0.000 OA
ATOM     23  H   UNL     1      -0.003   9.073  18.578  0.00  0.00    +0.000 HD
BRANCH  21  24
ATOM     24  C   UNL     1      -2.009  10.673  18.137  0.00  0.00    +0.000 A 
ATOM     25  C   UNL     1      -3.140  11.505  18.208  0.00  0.00    +0.000 A 
ATOM     26  C   UNL     1      -4.080  11.525  17.177  0.00  0.00    +0.000 A 
ATOM     27  C   UNL     1      -3.896  10.716  16.060  0.00  0.00    +0.000 A 
ATOM     28  C   UNL     1      -2.767   9.900  15.968  0.00  0.00    +0.000 A 
ATOM     29  C   UNL     1      -1.821   9.876  17.001  0.00  0.00    +0.000 A 
ENDBRANCH  21  24
ENDBRANCH  17  18
ENDBRANCH  16  17
ENDBRANCH   1  16
TORSDOF 8
ENDMDL
