MODEL 1
REMARK VINA RESULT:      -7.0      0.000      0.000
REMARK  Name = 
REMARK  8 active torsions:
REMARK  status: ('A' for Active; 'I' for Inactive)
REMARK    1  A    between atoms: C_1  and  C_2
REMARK    2  A    between atoms: C_2  and  C_3
REMARK    3  A    between atoms: C_3  and  C_4
REMARK    4  A    between atoms: C_4  and  C_5
REMARK    5  A    between atoms: N_15  and  C_16
REMARK    6  A    between atoms: C_19  and  C_20
REMARK    7  A    between atoms: C_22  and  C_23
REMARK    8  A    between atoms: C_27  and  C_28
REMARK                            x       y       z     vdW  Elec       q    Type
REMARK                         _______ _______ _______ _____ _____    ______ ____
ROOT
ATOM      1  C   UNL     1      -3.301  15.749  23.036  0.00  0.00    +0.000 A 
ATOM      2  N   UNL     1      -2.980  14.561  22.499  0.00  0.00    +0.000 NA
ATOM      3  C   UNL     1      -1.849  14.392  21.754  0.00  0.00    +0.000 A 
ATOM      4  N   UNL     1      -1.667  13.135  21.213  0.00  0.00    +0.000 N 
ATOM      5  C   UNL     1      -2.823  12.319  20.826  0.00  0.00    +0.000 C 
ATOM      6  C   UNL     1      -2.826  12.221  19.311  0.00  0.00    +0.000 C 
ATOM      7  C   UNL     1      -1.573  11.651  18.668  0.00  0.00    +0.000 C 
ATOM      8  N   UNL     1      -0.592  10.949  19.509  0.00  0.00    +0.000 N 
ATOM      9  C   UNL     1       0.161   9.972  18.834  0.00  0.00    +0.000 C 
ATOM     10  O   UNL     1      -0.042   9.700  17.645  0.00  0.00    +0.000 OA
ATOM     11  N   UNL     1       1.084   9.323  19.608  0.00  0.00    +0.000 N 
ATOM     12  C   UNL     1       0.167  11.805  20.439  0.00  0.00    +0.000 C 
ATOM     13  C   UNL     1      -0.571  12.314  21.681  0.00  0.00    +0.000 C 
ATOM     14  C   UNL     1      -1.026  15.538  21.552  0.00  0.00    +0.000 A 
ATOM     15  C   UNL     1       0.197  16.000  20.902  0.00  0.00    +0.000 A 
ATOM     16  N   UNL     1       0.333  17.330  21.057  0.00  0.00    +0.000 NA
ATOM     17  O   UNL     1      -0.706  17.747  21.837  0.00  0.00    +0.000 OA
ATOM     18  C   UNL     1      -1.511  16.702  22.142  0.00  0.00    +0.000 A 
ATOM     19  N   UNL     1      -2.600  16.869  22.900  0.00  0.00    +0.000 NA
ATOM     20  H   UNL     1       0.802   9.216  20.572  0.00  0.00    +0.000 HD
ENDROOT
BRANCH  11  21
ATOM     21  C   UNL     1       1.943   8.331  19.082  0.00  0.00    +0.000 A 
ATOM     22  C   UNL     1       2.610   8.546  17.868  0.00  0.00    +0.000 A 
ATOM     23  C   UNL     1       3.490   7.588  17.366  0.00  0.00    +0.000 A 
ATOM     24  C   UNL     1       3.721   6.406  18.074  0.00  0.00    +0.000 A 
ATOM     25  C   UNL     1       4.690   5.381  17.568  0.00  0.00    +0.000 C 
ATOM     26  C   UNL     1       3.029   6.182  19.273  0.00  0.00    +0.000 A 
ATOM     27  C   UNL     1       2.132   7.132  19.784  0.00  0.00    +0.000 A 
ATOM     28  C   UNL     1       1.312   6.794  21.000  0.00  0.00    +0.000 C 
ENDBRANCH  11  21
BRANCH  15  29
ATOM     29  C   UNL     1       1.300  15.331  20.192  0.00  0.00    +0.000 A 
ATOM     30  C   UNL     1       1.175  14.894  18.861  0.00  0.00    +0.000 A 
ATOM     31  C   UNL     1       2.268  14.330  18.178  0.00  0.00    +0.000 A 
ATOM     32  C   UNL     1       3.470  14.115  18.831  0.00  0.00    +0.000 A 
ATOM     33  C   UNL     1       3.623  14.569  20.134  0.00  0.00    +0.000 A 
ATOM     34  C   UNL     1       2.573  15.262  20.750  0.00  0.00    +0.000 A 
ENDBRANCH  15  29
BRANCH   1  35
ATOM     35  C   UNL     1      -4.587  15.823  23.819  0.00  0.00    +0.000 C 
BRANCH  35  36
ATOM     36  C   UNL     1      -5.366  14.504  23.821  0.00  0.00    +0.000 C 
BRANCH  36  38
ATOM     37  C   UNL     1      -7.711  13.742  24.344  0.00  0.00    +0.000 C 
ATOM     38  C   UNL     1      -6.856  14.689  23.518  0.00  0.00    +0.000 C 
ENDBRANCH  36  38
ENDBRANCH  35  36
ENDBRANCH   1  35
TORSDOF 5
ENDMDL
MODEL 2
REMARK VINA RESULT:      -7.0      0.667      1.125
REMARK  Name = 
REMARK  8 active torsions:
REMARK  status: ('A' for Active; 'I' for Inactive)
REMARK    1  A    between atoms: C_1  and  C_2
REMARK    2  A    between atoms: C_2  and  C_3
REMARK    3  A    between atoms: C_3  and  C_4
REMARK    4  A    between atoms: C_4  and  C_5
REMARK    5  A    between atoms: N_15  and  C_16
REMARK    6  A    between atoms: C_19  and  C_20
REMARK    7  A    between atoms: C_22  and  C_23
REMARK    8  A    between atoms: C_27  and  C_28
REMARK                            x       y       z     vdW  Elec       q    Type
REMARK                         _______ _______ _______ _____ _____    ______ ____
ROOT
ATOM      1  C   UNL     1      -2.859  15.936  23.869  0.00  0.00    +0.000 A 
ATOM      2  N   UNL     1      -2.615  14.756  23.277  0.00  0.00    +0.000 NA
ATOM      3  C   UNL     1      -1.580  14.590  22.404  0.00  0.00    +0.000 A 
ATOM      4  N   UNL     1      -1.476  13.342  21.822  0.00  0.00    +0.000 N 
ATOM      5  C   UNL     1      -2.679  12.545  21.556  0.00  0.00    +0.000 C 
ATOM      6  C   UNL     1      -2.857  12.477  20.050  0.00  0.00    +0.000 C 
ATOM      7  C   UNL     1      -1.694  11.907  19.257  0.00  0.00    +0.000 C 
ATOM      8  N   UNL     1      -0.631  11.179  19.966  0.00  0.00    +0.000 N 
ATOM      9  C   UNL     1       0.027  10.208  19.191  0.00  0.00    +0.000 C 
ATOM     10  O   UNL     1      -0.315   9.961  18.029  0.00  0.00    +0.000 OA
ATOM     11  N   UNL     1       1.026   9.535  19.841  0.00  0.00    +0.000 N 
ATOM     12  C   UNL     1       0.240  12.009  20.817  0.00  0.00    +0.000 C 
ATOM     13  C   UNL     1      -0.344  12.501  22.146  0.00  0.00    +0.000 C 
ATOM     14  C   UNL     1      -0.772  15.731  22.130  0.00  0.00    +0.000 A 
ATOM     15  C   UNL     1       0.373  16.194  21.351  0.00  0.00    +0.000 A 
ATOM     16  N   UNL     1       0.542  17.520  21.514  0.00  0.00    +0.000 NA
ATOM     17  O   UNL     1      -0.395  17.931  22.415  0.00  0.00    +0.000 OA
ATOM     18  C   UNL     1      -1.172  16.888  22.792  0.00  0.00    +0.000 A 
ATOM     19  N   UNL     1      -2.164  17.051  23.674  0.00  0.00    +0.000 NA
ATOM     20  H   UNL     1       0.855   9.412  20.829  0.00  0.00    +0.000 HD
ENDROOT
BRANCH  11  21
ATOM     21  C   UNL     1       1.807   8.545  19.202  0.00  0.00    +0.000 A 
ATOM     22  C   UNL     1       2.406   8.810  17.963  0.00  0.00    +0.000 A 
ATOM     23  C   UNL     1       3.210   7.852  17.348  0.00  0.00    +0.000 A 
ATOM     24  C   UNL     1       3.433   6.620  17.966  0.00  0.00    +0.000 A 
ATOM     25  C   UNL     1       4.323   5.590  17.337  0.00  0.00    +0.000 C 
ATOM     26  C   UNL     1       2.807   6.347  19.191  0.00  0.00    +0.000 A 
ATOM     27  C   UNL     1       1.985   7.298  19.816  0.00  0.00    +0.000 A 
ATOM     28  C   UNL     1       1.228   6.916  21.059  0.00  0.00    +0.000 C 
ENDBRANCH  11  21
BRANCH  15  29
ATOM     29  C   UNL     1       1.379  15.528  20.506  0.00  0.00    +0.000 A 
ATOM     30  C   UNL     1       2.650  15.176  20.995  0.00  0.00    +0.000 A 
ATOM     31  C   UNL     1       3.565  14.468  20.193  0.00  0.00    +0.000 A 
ATOM     32  C   UNL     1       3.263  14.178  18.872  0.00  0.00    +0.000 A 
ATOM     33  C   UNL     1       2.003  14.489  18.382  0.00  0.00    +0.000 A 
ATOM     34  C   UNL     1       1.051  15.059  19.238  0.00  0.00    +0.000 A 
ENDBRANCH  15  29
BRANCH   1  35
ATOM     35  C   UNL     1      -4.045  16.007  24.797  0.00  0.00    +0.000 C 
BRANCH  35  36
ATOM     36  C   UNL     1      -5.117  16.995  24.326  0.00  0.00    +0.000 C 
BRANCH  36  38
ATOM     37  C   UNL     1      -6.594  15.013  23.832  0.00  0.00    +0.000 C 
ATOM     38  C   UNL     1      -6.114  16.371  23.345  0.00  0.00    +0.000 C 
ENDBRANCH  36  38
ENDBRANCH  35  36
ENDBRANCH   1  35
TORSDOF 5
ENDMDL
MODEL 3
REMARK VINA RESULT:      -6.8      0.923      1.198
REMARK  Name = 
REMARK  8 active torsions:
REMARK  status: ('A' for Active; 'I' for Inactive)
REMARK    1  A    between atoms: C_1  and  C_2
REMARK    2  A    between atoms: C_2  and  C_3
REMARK    3  A    between atoms: C_3  and  C_4
REMARK    4  A    between atoms: C_4  and  C_5
REMARK    5  A    between atoms: N_15  and  C_16
REMARK    6  A    between atoms: C_19  and  C_20
REMARK    7  A    between atoms: C_22  and  C_23
REMARK    8  A    between atoms: C_27  and  C_28
REMARK                            x       y       z     vdW  Elec       q    Type
REMARK                         _______ _______ _______ _____ _____    ______ ____
ROOT
ATOM      1  C   UNL     1      -2.851  15.967  23.523  0.00  0.00    +0.000 A 
ATOM      2  N   UNL     1      -2.601  14.770  22.968  0.00  0.00    +0.000 NA
ATOM      3  C   UNL     1      -1.541  14.573  22.131  0.00  0.00    +0.000 A 
ATOM      4  N   UNL     1      -1.432  13.310  21.584  0.00  0.00    +0.000 N 
ATOM      5  C   UNL     1      -2.634  12.518  21.301  0.00  0.00    +0.000 C 
ATOM      6  C   UNL     1      -2.767  12.414  19.792  0.00  0.00    +0.000 C 
ATOM      7  C   UNL     1      -1.585  11.814  19.049  0.00  0.00    +0.000 C 
ATOM      8  N   UNL     1      -0.552  11.094  19.808  0.00  0.00    +0.000 N 
ATOM      9  C   UNL     1       0.120  10.098  19.078  0.00  0.00    +0.000 C 
ATOM     10  O   UNL     1      -0.189   9.826  17.912  0.00  0.00    +0.000 OA
ATOM     11  N   UNL     1       1.091   9.432  19.775  0.00  0.00    +0.000 N 
ATOM     12  C   UNL     1       0.301  11.938  20.665  0.00  0.00    +0.000 C 
ATOM     13  C   UNL     1      -0.319  12.467  21.963  0.00  0.00    +0.000 C 
ATOM     14  C   UNL     1      -0.714  15.700  21.854  0.00  0.00    +0.000 A 
ATOM     15  C   UNL     1       0.459  16.132  21.100  0.00  0.00    +0.000 A 
ATOM     16  N   UNL     1       0.636  17.461  21.234  0.00  0.00    +0.000 NA
ATOM     17  O   UNL     1      -0.324  17.903  22.097  0.00  0.00    +0.000 OA
ATOM     18  C   UNL     1      -1.122  16.877  22.475  0.00  0.00    +0.000 A 
ATOM     19  N   UNL     1      -2.139  17.071  23.322  0.00  0.00    +0.000 NA
ATOM     20  H   UNL     1       0.890   9.335  20.760  0.00  0.00    +0.000 HD
ENDROOT
BRANCH  11  21
ATOM     21  C   UNL     1       1.882   8.420  19.185  0.00  0.00    +0.000 A 
ATOM     22  C   UNL     1       2.517   8.647  17.956  0.00  0.00    +0.000 A 
ATOM     23  C   UNL     1       3.330   7.666  17.389  0.00  0.00    +0.000 A 
ATOM     24  C   UNL     1       3.526   6.450  18.046  0.00  0.00    +0.000 A 
ATOM     25  C   UNL     1       4.425   5.397  17.470  0.00  0.00    +0.000 C 
ATOM     26  C   UNL     1       2.865   6.215  19.261  0.00  0.00    +0.000 A 
ATOM     27  C   UNL     1       2.034   7.189  19.837  0.00  0.00    +0.000 A 
ATOM     28  C   UNL     1       1.240   6.846  21.068  0.00  0.00    +0.000 C 
ENDBRANCH  11  21
BRANCH  15  29
ATOM     29  C   UNL     1       1.484  15.437  20.303  0.00  0.00    +0.000 A 
ATOM     30  C   UNL     1       1.202  14.888  19.040  0.00  0.00    +0.000 A 
ATOM     31  C   UNL     1       2.216  14.298  18.262  0.00  0.00    +0.000 A 
ATOM     32  C   UNL     1       3.501  14.171  18.763  0.00  0.00    +0.000 A 
ATOM     33  C   UNL     1       3.806  14.736  19.993  0.00  0.00    +0.000 A 
ATOM     34  C   UNL     1       2.821  15.449  20.689  0.00  0.00    +0.000 A 
ENDBRANCH  15  29
BRANCH   1  35
ATOM     35  C   UNL     1      -4.064  16.072  24.412  0.00  0.00    +0.000 C 
BRANCH  35  36
ATOM     36  C   UNL     1      -5.273  16.692  23.705  0.00  0.00    +0.000 C 
BRANCH  36  38
ATOM     37  C   UNL     1      -4.942  18.303  25.616  0.00  0.00    +0.000 C 
ATOM     38  C   UNL     1      -5.759  17.981  24.374  0.00  0.00    +0.000 C 
ENDBRANCH  36  38
ENDBRANCH  35  36
ENDBRANCH   1  35
TORSDOF 5
ENDMDL
MODEL 4
REMARK VINA RESULT:      -6.6      0.782      1.176
REMARK  Name = 
REMARK  8 active torsions:
REMARK  status: ('A' for Active; 'I' for Inactive)
REMARK    1  A    between atoms: C_1  and  C_2
REMARK    2  A    between atoms: C_2  and  C_3
REMARK    3  A    between atoms: C_3  and  C_4
REMARK    4  A    between atoms: C_4  and  C_5
REMARK    5  A    between atoms: N_15  and  C_16
REMARK    6  A    between atoms: C_19  and  C_20
REMARK    7  A    between atoms: C_22  and  C_23
REMARK    8  A    between atoms: C_27  and  C_28
REMARK                            x       y       z     vdW  Elec       q    Type
REMARK                         _______ _______ _______ _____ _____    ______ ____
ROOT
ATOM      1  C   UNL     1      -2.640  16.085  22.771  0.00  0.00    +0.000 A 
ATOM      2  N   UNL     1      -2.391  14.853  22.301  0.00  0.00    +0.000 NA
ATOM      3  C   UNL     1      -1.316  14.592  21.502  0.00  0.00    +0.000 A 
ATOM      4  N   UNL     1      -1.209  13.294  21.041  0.00  0.00    +0.000 N 
ATOM      5  C   UNL     1      -2.414  12.496  20.784  0.00  0.00    +0.000 C 
ATOM      6  C   UNL     1      -2.516  12.295  19.283  0.00  0.00    +0.000 C 
ATOM      7  C   UNL     1      -1.325  11.636  18.607  0.00  0.00    +0.000 C 
ATOM      8  N   UNL     1      -0.316  10.959  19.434  0.00  0.00    +0.000 N 
ATOM      9  C   UNL     1       0.361   9.910  18.785  0.00  0.00    +0.000 C 
ATOM     10  O   UNL     1       0.074   9.565  17.633  0.00  0.00    +0.000 OA
ATOM     11  N   UNL     1       1.310   9.283  19.545  0.00  0.00    +0.000 N 
ATOM     12  C   UNL     1       0.528  11.848  20.252  0.00  0.00    +0.000 C 
ATOM     13  C   UNL     1      -0.113  12.468  21.498  0.00  0.00    +0.000 C 
ATOM     14  C   UNL     1      -0.471  15.690  21.170  0.00  0.00    +0.000 A 
ATOM     15  C   UNL     1       0.722  16.061  20.415  0.00  0.00    +0.000 A 
ATOM     16  N   UNL     1       0.910  17.393  20.466  0.00  0.00    +0.000 NA
ATOM     17  O   UNL     1      -0.063  17.900  21.277  0.00  0.00    +0.000 OA
ATOM     18  C   UNL     1      -0.880  16.909  21.703  0.00  0.00    +0.000 A 
ATOM     19  N   UNL     1      -1.913  17.167  22.513  0.00  0.00    +0.000 NA
ATOM     20  H   UNL     1       1.087   9.253  20.530  0.00  0.00    +0.000 HD
ENDROOT
BRANCH  11  21
ATOM     21  C   UNL     1       2.102   8.227  19.040  0.00  0.00    +0.000 A 
ATOM     22  C   UNL     1       2.784   8.375  17.824  0.00  0.00    +0.000 A 
ATOM     23  C   UNL     1       3.598   7.351  17.341  0.00  0.00    +0.000 A 
ATOM     24  C   UNL     1       3.748   6.170  18.070  0.00  0.00    +0.000 A 
ATOM     25  C   UNL     1       4.647   5.072  17.585  0.00  0.00    +0.000 C 
ATOM     26  C   UNL     1       3.040   6.013  19.271  0.00  0.00    +0.000 A 
ATOM     27  C   UNL     1       2.208   7.030  19.763  0.00  0.00    +0.000 A 
ATOM     28  C   UNL     1       1.364   6.769  20.981  0.00  0.00    +0.000 C 
ENDBRANCH  11  21
BRANCH  15  29
ATOM     29  C   UNL     1       1.756  15.305  19.687  0.00  0.00    +0.000 A 
ATOM     30  C   UNL     1       3.093  15.266  20.118  0.00  0.00    +0.000 A 
ATOM     31  C   UNL     1       4.046  14.472  19.453  0.00  0.00    +0.000 A 
ATOM     32  C   UNL     1       3.703  13.776  18.305  0.00  0.00    +0.000 A 
ATOM     33  C   UNL     1       2.381  13.777  17.884  0.00  0.00    +0.000 A 
ATOM     34  C   UNL     1       1.415  14.452  18.642  0.00  0.00    +0.000 A 
ENDBRANCH  15  29
BRANCH   1  35
ATOM     35  C   UNL     1      -3.871  16.260  23.624  0.00  0.00    +0.000 C 
BRANCH  35  36
ATOM     36  C   UNL     1      -4.068  15.123  24.632  0.00  0.00    +0.000 C 
BRANCH  36  38
ATOM     37  C   UNL     1      -4.447  12.644  24.378  0.00  0.00    +0.000 C 
ATOM     38  C   UNL     1      -5.014  14.032  24.123  0.00  0.00    +0.000 C 
ENDBRANCH  36  38
ENDBRANCH  35  36
ENDBRANCH   1  35
TORSDOF 5
ENDMDL
MODEL 5
REMARK VINA RESULT:      -6.5      2.143      9.172
REMARK  Name = 
REMARK  8 active torsions:
REMARK  status: ('A' for Active; 'I' for Inactive)
REMARK    1  A    between atoms: C_1  and  C_2
REMARK    2  A    between atoms: C_2  and  C_3
REMARK    3  A    between atoms: C_3  and  C_4
REMARK    4  A    between atoms: C_4  and  C_5
REMARK    5  A    between atoms: N_15  and  C_16
REMARK    6  A    between atoms: C_19  and  C_20
REMARK    7  A    between atoms: C_22  and  C_23
REMARK    8  A    between atoms: C_27  and  C_28
REMARK                            x       y       z     vdW  Elec       q    Type
REMARK                         _______ _______ _______ _____ _____    ______ ____
ROOT
ATOM      1  C   UNL     1       1.580   9.769  18.259  0.00  0.00    +0.000 A 
ATOM      2  N   UNL     1       0.560  10.213  19.011  0.00  0.00    +0.000 NA
ATOM      3  C   UNL     1       0.423  11.533  19.329  0.00  0.00    +0.000 A 
ATOM      4  N   UNL     1      -0.637  11.847  20.156  0.00  0.00    +0.000 N 
ATOM      5  C   UNL     1      -1.099  10.888  21.166  0.00  0.00    +0.000 C 
ATOM      6  C   UNL     1      -0.754  11.461  22.530  0.00  0.00    +0.000 C 
ATOM      7  C   UNL     1      -1.320  12.835  22.848  0.00  0.00    +0.000 C 
ATOM      8  N   UNL     1      -2.389  13.383  22.001  0.00  0.00    +0.000 N 
ATOM      9  C   UNL     1      -3.244  14.288  22.656  0.00  0.00    +0.000 C 
ATOM     10  O   UNL     1      -3.124  14.542  23.860  0.00  0.00    +0.000 OA
ATOM     11  N   UNL     1      -4.235  14.812  21.871  0.00  0.00    +0.000 N 
ATOM     12  C   UNL     1      -1.979  13.769  20.640  0.00  0.00    +0.000 C 
ATOM     13  C   UNL     1      -1.731  12.638  19.637  0.00  0.00    +0.000 C 
ATOM     14  C   UNL     1       1.422  12.426  18.842  0.00  0.00    +0.000 A 
ATOM     15  C   UNL     1       1.837  13.826  18.837  0.00  0.00    +0.000 A 
ATOM     16  N   UNL     1       3.024  13.957  18.214  0.00  0.00    +0.000 NA
ATOM     17  O   UNL     1       3.368  12.720  17.752  0.00  0.00    +0.000 OA
ATOM     18  C   UNL     1       2.432  11.810  18.109  0.00  0.00    +0.000 A 
ATOM     19  N   UNL     1       2.556  10.523  17.765  0.00  0.00    +0.000 NA
ATOM     20  H   UNL     1      -4.565  14.178  21.157  0.00  0.00    +0.000 HD
ENDROOT
BRANCH  11  21
ATOM     21  C   UNL     1      -5.164  15.757  22.362  0.00  0.00    +0.000 A 
ATOM     22  C   UNL     1      -6.365  15.330  22.945  0.00  0.00    +0.000 A 
ATOM     23  C   UNL     1      -7.266  16.256  23.467  0.00  0.00    +0.000 A 
ATOM     24  C   UNL     1      -6.976  17.622  23.421  0.00  0.00    +0.000 A 
ATOM     25  C   UNL     1      -7.916  18.631  24.008  0.00  0.00    +0.000 C 
ATOM     26  C   UNL     1      -5.788  18.047  22.809  0.00  0.00    +0.000 A 
ATOM     27  C   UNL     1      -4.877  17.126  22.269  0.00  0.00    +0.000 A 
ATOM     28  C   UNL     1      -3.683  17.630  21.505  0.00  0.00    +0.000 C 
ENDBRANCH  11  21
BRANCH  15  29
ATOM     29  C   UNL     1       1.224  15.082  19.299  0.00  0.00    +0.000 A 
ATOM     30  C   UNL     1       1.250  15.473  20.649  0.00  0.00    +0.000 A 
ATOM     31  C   UNL     1       0.728  16.716  21.054  0.00  0.00    +0.000 A 
ATOM     32  C   UNL     1       0.100  17.546  20.140  0.00  0.00    +0.000 A 
ATOM     33  C   UNL     1       0.093  17.192  18.798  0.00  0.00    +0.000 A 
ATOM     34  C   UNL     1       0.747  16.022  18.390  0.00  0.00    +0.000 A 
ENDBRANCH  15  29
BRANCH   1  35
ATOM     35  C   UNL     1       1.642   8.286  17.993  0.00  0.00    +0.000 C 
BRANCH  35  36
ATOM     36  C   UNL     1       3.066   7.782  17.738  0.00  0.00    +0.000 C 
BRANCH  36  38
ATOM     37  C   UNL     1       2.597   5.311  17.913  0.00  0.00    +0.000 C 
ATOM     38  C   UNL     1       3.380   6.482  18.484  0.00  0.00    +0.000 C 
ENDBRANCH  36  38
ENDBRANCH  35  36
ENDBRANCH   1  35
TORSDOF 5
ENDMDL
MODEL 6
REMARK VINA RESULT:      -6.5      1.292      1.845
REMARK  Name = 
REMARK  8 active torsions:
REMARK  status: ('A' for Active; 'I' for Inactive)
REMARK    1  A    between atoms: C_1  and  C_2
REMARK    2  A    between atoms: C_2  and  C_3
REMARK    3  A    between atoms: C_3  and  C_4
REMARK    4  A    between atoms: C_4  and  C_5
REMARK    5  A    between atoms: N_15  and  C_16
REMARK    6  A    between atoms: C_19  and  C_20
REMARK    7  A    between atoms: C_22  and  C_23
REMARK    8  A    between atoms: C_27  and  C_28
REMARK                            x       y       z     vdW  Elec       q    Type
REMARK                         _______ _______ _______ _____ _____    ______ ____
ROOT
ATOM      1  C   UNL     1      -5.025  15.758  23.425  0.00  0.00    +0.000 A 
ATOM      2  N   UNL     1      -4.569  14.632  22.852  0.00  0.00    +0.000 NA
ATOM      3  C   UNL     1      -3.408  14.610  22.135  0.00  0.00    +0.000 A 
ATOM      4  N   UNL     1      -3.083  13.401  21.552  0.00  0.00    +0.000 N 
ATOM      5  C   UNL     1      -4.140  12.489  21.099  0.00  0.00    +0.000 C 
ATOM      6  C   UNL     1      -4.092  12.455  19.581  0.00  0.00    +0.000 C 
ATOM      7  C   UNL     1      -2.771  12.042  18.955  0.00  0.00    +0.000 C 
ATOM      8  N   UNL     1      -1.746  11.409  19.798  0.00  0.00    +0.000 N 
ATOM      9  C   UNL     1      -0.879  10.542  19.108  0.00  0.00    +0.000 C 
ATOM     10  O   UNL     1      -1.023  10.301  17.904  0.00  0.00    +0.000 OA
ATOM     11  N   UNL     1       0.085   9.958  19.884  0.00  0.00    +0.000 N 
ATOM     12  C   UNL     1      -1.104  12.298  20.782  0.00  0.00    +0.000 C 
ATOM     13  C   UNL     1      -1.922  12.677  22.021  0.00  0.00    +0.000 C 
ATOM     14  C   UNL     1      -2.702  15.841  22.003  0.00  0.00    +0.000 A 
ATOM     15  C   UNL     1      -1.516  16.451  21.408  0.00  0.00    +0.000 A 
ATOM     16  N   UNL     1      -1.521  17.781  21.619  0.00  0.00    +0.000 NA
ATOM     17  O   UNL     1      -2.618  18.057  22.383  0.00  0.00    +0.000 OA
ATOM     18  C   UNL     1      -3.319  16.924  22.622  0.00  0.00    +0.000 A 
ATOM     19  N   UNL     1      -4.439  16.948  23.353  0.00  0.00    +0.000 NA
ATOM     20  H   UNL     1      -0.209   9.783  20.834  0.00  0.00    +0.000 HD
ENDROOT
BRANCH  11  21
ATOM     21  C   UNL     1       1.055   9.082  19.346  0.00  0.00    +0.000 A 
ATOM     22  C   UNL     1       1.566   9.298  18.059  0.00  0.00    +0.000 A 
ATOM     23  C   UNL     1       2.552   8.460  17.540  0.00  0.00    +0.000 A 
ATOM     24  C   UNL     1       3.047   7.400  18.304  0.00  0.00    +0.000 A 
ATOM     25  C   UNL     1       4.131   6.510  17.777  0.00  0.00    +0.000 C 
ATOM     26  C   UNL     1       2.511   7.169  19.579  0.00  0.00    +0.000 A 
ATOM     27  C   UNL     1       1.510   7.997  20.109  0.00  0.00    +0.000 A 
ATOM     28  C   UNL     1       0.870   7.635  21.422  0.00  0.00    +0.000 C 
ENDBRANCH  11  21
BRANCH  15  29
ATOM     29  C   UNL     1      -0.332  15.928  20.706  0.00  0.00    +0.000 A 
ATOM     30  C   UNL     1       0.814  15.494  21.396  0.00  0.00    +0.000 A 
ATOM     31  C   UNL     1       1.901  14.923  20.709  0.00  0.00    +0.000 A 
ATOM     32  C   UNL     1       1.900  14.854  19.325  0.00  0.00    +0.000 A 
ATOM     33  C   UNL     1       0.765  15.247  18.630  0.00  0.00    +0.000 A 
ATOM     34  C   UNL     1      -0.366  15.674  19.339  0.00  0.00    +0.000 A 
ENDBRANCH  15  29
BRANCH   1  35
ATOM     35  C   UNL     1      -6.332  15.668  24.171  0.00  0.00    +0.000 C 
BRANCH  35  36
ATOM     36  C   UNL     1      -7.438  14.981  23.364  0.00  0.00    +0.000 C 
BRANCH  36  38
ATOM     37  C   UNL     1      -7.772  14.713  20.880  0.00  0.00    +0.000 C 
ATOM     38  C   UNL     1      -7.742  15.692  22.043  0.00  0.00    +0.000 C 
ENDBRANCH  36  38
ENDBRANCH  35  36
ENDBRANCH   1  35
TORSDOF 5
ENDMDL
MODEL 7
REMARK VINA RESULT:      -6.4      1.053      1.624
REMARK  Name = 
REMARK  8 active torsions:
REMARK  status: ('A' for Active; 'I' for Inactive)
REMARK    1  A    between atoms: C_1  and  C_2
REMARK    2  A    between atoms: C_2  and  C_3
REMARK    3  A    between atoms: C_3  and  C_4
REMARK    4  A    between atoms: C_4  and  C_5
REMARK    5  A    between atoms: N_15  and  C_16
REMARK    6  A    between atoms: C_19  and  C_20
REMARK    7  A    between atoms: C_22  and  C_23
REMARK    8  A    between atoms: C_27  and  C_28
REMARK                            x       y       z     vdW  Elec       q    Type
REMARK                         _______ _______ _______ _____ _____    ______ ____
ROOT
ATOM      1  C   UNL     1      -3.327  16.438  23.794  0.00  0.00    +0.000 A 
ATOM      2  N   UNL     1      -3.075  15.209  23.315  0.00  0.00    +0.000 NA
ATOM      3  C   UNL     1      -2.054  14.974  22.441  0.00  0.00    +0.000 A 
ATOM      4  N   UNL     1      -1.940  13.676  21.983  0.00  0.00    +0.000 N 
ATOM      5  C   UNL     1      -3.134  12.838  21.823  0.00  0.00    +0.000 C 
ATOM      6  C   UNL     1      -3.340  12.619  20.334  0.00  0.00    +0.000 C 
ATOM      7  C   UNL     1      -2.183  11.991  19.576  0.00  0.00    +0.000 C 
ATOM      8  N   UNL     1      -1.094  11.354  20.331  0.00  0.00    +0.000 N 
ATOM      9  C   UNL     1      -0.434  10.321  19.642  0.00  0.00    +0.000 C 
ATOM     10  O   UNL     1      -0.795   9.955  18.517  0.00  0.00    +0.000 OA
ATOM     11  N   UNL     1       0.589   9.731  20.334  0.00  0.00    +0.000 N 
ATOM     12  C   UNL     1      -0.221  12.277  21.078  0.00  0.00    +0.000 C 
ATOM     13  C   UNL     1      -0.787  12.889  22.364  0.00  0.00    +0.000 C 
ATOM     14  C   UNL     1      -1.272  16.095  22.038  0.00  0.00    +0.000 A 
ATOM     15  C   UNL     1      -0.150  16.495  21.194  0.00  0.00    +0.000 A 
ATOM     16  N   UNL     1      -0.001  17.834  21.221  0.00  0.00    +0.000 NA
ATOM     17  O   UNL     1      -0.928  18.317  22.098  0.00  0.00    +0.000 OA
ATOM     18  C   UNL     1      -1.679  17.305  22.592  0.00  0.00    +0.000 A 
ATOM     19  N   UNL     1      -2.656  17.539  23.474  0.00  0.00    +0.000 NA
ATOM     20  H   UNL     1       0.440   9.703  21.332  0.00  0.00    +0.000 HD
ENDROOT
BRANCH  11  21
ATOM     21  C   UNL     1       1.374   8.695  19.779  0.00  0.00    +0.000 A 
ATOM     22  C   UNL     1       1.435   7.443  20.404  0.00  0.00    +0.000 A 
ATOM     23  C   UNL     1       2.176   6.405  19.839  0.00  0.00    +0.000 A 
ATOM     24  C   UNL     1       2.860   6.604  18.637  0.00  0.00    +0.000 A 
ATOM     25  C   UNL     1       3.633   5.492  17.996  0.00  0.00    +0.000 C 
ATOM     26  C   UNL     1       2.821   7.868  18.030  0.00  0.00    +0.000 A 
ATOM     27  C   UNL     1       2.089   8.924  18.595  0.00  0.00    +0.000 A 
ATOM     28  C   UNL     1       2.183  10.296  17.985  0.00  0.00    +0.000 C 
ENDBRANCH  11  21
BRANCH  15  29
ATOM     29  C   UNL     1       0.850  15.765  20.397  0.00  0.00    +0.000 A 
ATOM     30  C   UNL     1       0.540  15.195  19.150  0.00  0.00    +0.000 A 
ATOM     31  C   UNL     1       1.533  14.572  18.371  0.00  0.00    +0.000 A 
ATOM     32  C   UNL     1       2.822  14.432  18.856  0.00  0.00    +0.000 A 
ATOM     33  C   UNL     1       3.155  15.017  20.070  0.00  0.00    +0.000 A 
ATOM     34  C   UNL     1       2.192  15.762  20.764  0.00  0.00    +0.000 A 
ENDBRANCH  15  29
BRANCH   1  35
ATOM     35  C   UNL     1      -4.496  16.582  24.735  0.00  0.00    +0.000 C 
BRANCH  35  36
ATOM     36  C   UNL     1      -5.811  16.066  24.142  0.00  0.00    +0.000 C 
BRANCH  36  38
ATOM     37  C   UNL     1      -6.394  16.135  21.691  0.00  0.00    +0.000 C 
ATOM     38  C   UNL     1      -6.324  16.929  22.986  0.00  0.00    +0.000 C 
ENDBRANCH  36  38
ENDBRANCH  35  36
ENDBRANCH   1  35
TORSDOF 5
ENDMDL
MODEL 8
REMARK VINA RESULT:      -6.3      2.040      9.024
REMARK  Name = 
REMARK  8 active torsions:
REMARK  status: ('A' for Active; 'I' for Inactive)
REMARK    1  A    between atoms: C_1  and  C_2
REMARK    2  A    between atoms: C_2  and  C_3
REMARK    3  A    between atoms: C_3  and  C_4
REMARK    4  A    between atoms: C_4  and  C_5
REMARK    5  A    between atoms: N_15  and  C_16
REMARK    6  A    between atoms: C_19  and  C_20
REMARK    7  A    between atoms: C_22  and  C_23
REMARK    8  A    between atoms: C_27  and  C_28
REMARK                            x       y       z     vdW  Elec       q    Type
REMARK                         _______ _______ _______ _____ _____    ______ ____
ROOT
ATOM      1  C   UNL     1       1.702   9.456  18.149  0.00  0.00    +0.000 A 
ATOM      2  N   UNL     1       0.685   9.874  18.920  0.00  0.00    +0.000 NA
ATOM      3  C   UNL     1       0.539  11.185  19.268  0.00  0.00    +0.000 A 
ATOM      4  N   UNL     1      -0.517  11.470  20.111  0.00  0.00    +0.000 N 
ATOM      5  C   UNL     1      -0.960  10.485  21.104  0.00  0.00    +0.000 C 
ATOM      6  C   UNL     1      -0.609  11.031  22.477  0.00  0.00    +0.000 C 
ATOM      7  C   UNL     1      -1.184  12.392  22.830  0.00  0.00    +0.000 C 
ATOM      8  N   UNL     1      -2.267  12.948  22.005  0.00  0.00    +0.000 N 
ATOM      9  C   UNL     1      -3.124  13.830  22.687  0.00  0.00    +0.000 C 
ATOM     10  O   UNL     1      -2.995  14.060  23.895  0.00  0.00    +0.000 OA
ATOM     11  N   UNL     1      -4.127  14.362  21.923  0.00  0.00    +0.000 N 
ATOM     12  C   UNL     1      -1.872  13.368  20.649  0.00  0.00    +0.000 C 
ATOM     13  C   UNL     1      -1.624  12.261  19.619  0.00  0.00    +0.000 C 
ATOM     14  C   UNL     1       1.524  12.097  18.792  0.00  0.00    +0.000 A 
ATOM     15  C   UNL     1       1.925  13.501  18.813  0.00  0.00    +0.000 A 
ATOM     16  N   UNL     1       3.105  13.658  18.183  0.00  0.00    +0.000 NA
ATOM     17  O   UNL     1       3.457  12.435  17.691  0.00  0.00    +0.000 OA
ATOM     18  C   UNL     1       2.533  11.508  18.036  0.00  0.00    +0.000 A 
ATOM     19  N   UNL     1       2.666  10.230  17.663  0.00  0.00    +0.000 NA
ATOM     20  H   UNL     1      -4.458  13.740  21.199  0.00  0.00    +0.000 HD
ENDROOT
BRANCH  11  21
ATOM     21  C   UNL     1      -5.060  15.287  22.443  0.00  0.00    +0.000 A 
ATOM     22  C   UNL     1      -4.623  16.504  22.981  0.00  0.00    +0.000 A 
ATOM     23  C   UNL     1      -5.542  17.438  23.459  0.00  0.00    +0.000 A 
ATOM     24  C   UNL     1      -6.911  17.170  23.397  0.00  0.00    +0.000 A 
ATOM     25  C   UNL     1      -7.917  18.175  23.873  0.00  0.00    +0.000 C 
ATOM     26  C   UNL     1      -7.344  15.938  22.886  0.00  0.00    +0.000 A 
ATOM     27  C   UNL     1      -6.429  14.984  22.413  0.00  0.00    +0.000 A 
ATOM     28  C   UNL     1      -6.926  13.626  21.999  0.00  0.00    +0.000 C 
ENDBRANCH  11  21
BRANCH  15  29
ATOM     29  C   UNL     1       1.305  14.741  19.308  0.00  0.00    +0.000 A 
ATOM     30  C   UNL     1       0.440  15.513  18.512  0.00  0.00    +0.000 A 
ATOM     31  C   UNL     1      -0.204  16.651  19.033  0.00  0.00    +0.000 A 
ATOM     32  C   UNL     1       0.067  17.083  20.321  0.00  0.00    +0.000 A 
ATOM     33  C   UNL     1       0.892  16.317  21.132  0.00  0.00    +0.000 A 
ATOM     34  C   UNL     1       1.407  15.107  20.647  0.00  0.00    +0.000 A 
ENDBRANCH  15  29
BRANCH   1  35
ATOM     35  C   UNL     1       1.775   7.980  17.849  0.00  0.00    +0.000 C 
BRANCH  35  36
ATOM     36  C   UNL     1       2.519   7.186  18.927  0.00  0.00    +0.000 C 
BRANCH  36  38
ATOM     37  C   UNL     1       4.089   5.282  19.442  0.00  0.00    +0.000 C 
ATOM     38  C   UNL     1       3.270   5.975  18.365  0.00  0.00    +0.000 C 
ENDBRANCH  36  38
ENDBRANCH  35  36
ENDBRANCH   1  35
TORSDOF 5
ENDMDL
MODEL 9
REMARK VINA RESULT:      -6.1      3.822      7.781
REMARK  Name = 
REMARK  8 active torsions:
REMARK  status: ('A' for Active; 'I' for Inactive)
REMARK    1  A    between atoms: C_1  and  C_2
REMARK    2  A    between atoms: C_2  and  C_3
REMARK    3  A    between atoms: C_3  and  C_4
REMARK    4  A    between atoms: C_4  and  C_5
REMARK    5  A    between atoms: N_15  and  C_16
REMARK    6  A    between atoms: C_19  and  C_20
REMARK    7  A    between atoms: C_22  and  C_23
REMARK    8  A    between atoms: C_27  and  C_28
REMARK                            x       y       z     vdW  Elec       q    Type
REMARK                         _______ _______ _______ _____ _____    ______ ____
ROOT
ATOM      1  C   UNL     1      -2.133  11.045  18.014  0.00  0.00    +0.000 A 
ATOM      2  N   UNL     1      -0.957  11.578  18.385  0.00  0.00    +0.000 NA
ATOM      3  C   UNL     1      -0.869  12.493  19.393  0.00  0.00    +0.000 A 
ATOM      4  N   UNL     1       0.391  13.004  19.634  0.00  0.00    +0.000 N 
ATOM      5  C   UNL     1       1.352  13.157  18.536  0.00  0.00    +0.000 C 
ATOM      6  C   UNL     1       1.542  14.645  18.302  0.00  0.00    +0.000 C 
ATOM      7  C   UNL     1       2.009  15.464  19.494  0.00  0.00    +0.000 C 
ATOM      8  N   UNL     1       2.544  14.769  20.674  0.00  0.00    +0.000 N 
ATOM      9  C   UNL     1       3.472  15.519  21.419  0.00  0.00    +0.000 C 
ATOM     10  O   UNL     1       3.837  16.644  21.061  0.00  0.00    +0.000 OA
ATOM     11  N   UNL     1       3.966  14.883  22.526  0.00  0.00    +0.000 N 
ATOM     12  C   UNL     1       1.554  14.017  21.465  0.00  0.00    +0.000 C 
ATOM     13  C   UNL     1       1.055  12.691  20.881  0.00  0.00    +0.000 C 
ATOM     14  C   UNL     1      -2.085  12.877  20.029  0.00  0.00    +0.000 A 
ATOM     15  C   UNL     1      -2.638  13.742  21.068  0.00  0.00    +0.000 A 
ATOM     16  N   UNL     1      -3.983  13.668  21.067  0.00  0.00    +0.000 NA
ATOM     17  O   UNL     1      -4.329  12.744  20.124  0.00  0.00    +0.000 OA
ATOM     18  C   UNL     1      -3.222  12.265  19.510  0.00  0.00    +0.000 A 
ATOM     19  N   UNL     1      -3.313  11.343  18.545  0.00  0.00    +0.000 NA
ATOM     20  H   UNL     1       4.044  13.882  22.418  0.00  0.00    +0.000 HD
ENDROOT
BRANCH  11  21
ATOM     21  C   UNL     1       4.886  15.503  23.402  0.00  0.00    +0.000 A 
ATOM     22  C   UNL     1       4.441  16.430  24.354  0.00  0.00    +0.000 A 
ATOM     23  C   UNL     1       5.339  17.014  25.247  0.00  0.00    +0.000 A 
ATOM     24  C   UNL     1       6.692  16.672  25.205  0.00  0.00    +0.000 A 
ATOM     25  C   UNL     1       7.667  17.262  26.179  0.00  0.00    +0.000 C 
ATOM     26  C   UNL     1       7.139  15.767  24.231  0.00  0.00    +0.000 A 
ATOM     27  C   UNL     1       6.248  15.181  23.319  0.00  0.00    +0.000 A 
ATOM     28  C   UNL     1       6.788  14.322  22.208  0.00  0.00    +0.000 C 
ENDBRANCH  11  21
BRANCH  15  29
ATOM     29  C   UNL     1      -2.054  14.598  22.114  0.00  0.00    +0.000 A 
ATOM     30  C   UNL     1      -1.797  14.121  23.411  0.00  0.00    +0.000 A 
ATOM     31  C   UNL     1      -1.164  14.934  24.370  0.00  0.00    +0.000 A 
ATOM     32  C   UNL     1      -0.856  16.252  24.080  0.00  0.00    +0.000 A 
ATOM     33  C   UNL     1      -1.072  16.731  22.796  0.00  0.00    +0.000 A 
ATOM     34  C   UNL     1      -1.566  15.865  21.811  0.00  0.00    +0.000 A 
ENDBRANCH  15  29
BRANCH   1  35
ATOM     35  C   UNL     1      -2.111  10.061  16.872  0.00  0.00    +0.000 C 
BRANCH  35  36
ATOM     36  C   UNL     1      -3.275  10.252  15.894  0.00  0.00    +0.000 C 
BRANCH  36  38
ATOM     37  C   UNL     1      -4.085   9.927  13.529  0.00  0.00    +0.000 C 
ATOM     38  C   UNL     1      -2.868  10.040  14.433  0.00  0.00    +0.000 C 
ENDBRANCH  36  38
ENDBRANCH  35  36
ENDBRANCH   1  35
TORSDOF 5
ENDMDL
