MODEL 1
REMARK VINA RESULT:      -7.1      0.000      0.000
REMARK  Name = 
REMARK  5 active torsions:
REMARK  status: ('A' for Active; 'I' for Inactive)
REMARK    1  A    between atoms: C_1  and  N_2
REMARK    2  A    between atoms: N_2  and  C_3
REMARK    3  A    between atoms: C_3  and  C_4
REMARK    4  A    between atoms: C_9  and  O_10
REMARK    5  A    between atoms: O_10  and  C_11
REMARK                            x       y       z     vdW  Elec       q    Type
REMARK                         _______ _______ _______ _____ _____    ______ ____
ROOT
ATOM      1  C   UNL     1       2.404   5.474  20.018  0.00  0.00    +0.000 A 
ATOM      2  C   UNL     1       1.286   4.813  20.561  0.00  0.00    +0.000 A 
ATOM      3  C   UNL     1       1.318   3.450  20.863  0.00  0.00    +0.000 A 
ATOM      4  C   UNL     1       2.453   2.711  20.554  0.00  0.00    +0.000 A 
ATOM      5  C   UNL     1       3.557   3.338  19.982  0.00  0.00    +0.000 A 
ATOM      6  C   UNL     1       3.571   4.730  19.783  0.00  0.00    +0.000 A 
ENDROOT
BRANCH   1   7
ATOM      7  C   UNL     1       2.281   6.945  19.690  0.00  0.00    +0.000 C 
BRANCH   7   9
ATOM      8  C   UNL     1       2.161   8.629  17.962  0.00  0.00    +0.000 C 
ATOM      9  N   UNL     1       2.571   7.270  18.288  0.00  0.00    +0.000 NA
ATOM     10  H   UNL     1       3.576   7.182  18.144  0.00  0.00    +0.000 HD
ENDBRANCH   7   9
ENDBRANCH   1   7
BRANCH   6  11
ATOM     11  O   UNL     1       4.715   5.394  19.363  0.00  0.00    +0.000 OA
BRANCH  11  12
ATOM     12  C   UNL     1       5.311   4.964  18.188  0.00  0.00    +0.000 A 
ATOM     13  C   UNL     1       4.548   4.460  17.123  0.00  0.00    +0.000 A 
ATOM     14  C   UNL     1       5.148   4.198  15.891  0.00  0.00    +0.000 A 
ATOM     15  C   UNL     1       6.520   4.366  15.751  0.00  0.00    +0.000 A 
ATOM     16  F   UNL     1       7.088   4.145  14.559  0.00  0.00    +0.000 F 
ATOM     17  C   UNL     1       7.309   4.764  16.824  0.00  0.00    +0.000 A 
ATOM     18  C   UNL     1       6.704   5.058  18.050  0.00  0.00    +0.000 A 
ATOM     19 CL   UNL     1       7.709   5.563  19.358  0.00  0.00    +0.000 Cl
ENDBRANCH  11  12
ENDBRANCH   6  11
TORSDOF 4
ENDMDL
MODEL 2
REMARK VINA RESULT:      -7.0      3.308      5.740
REMARK  Name = 
REMARK  5 active torsions:
REMARK  status: ('A' for Active; 'I' for Inactive)
REMARK    1  A    between atoms: C_1  and  N_2
REMARK    2  A    between atoms: N_2  and  C_3
REMARK    3  A    between atoms: C_3  and  C_4
REMARK    4  A    between atoms: C_9  and  O_10
REMARK    5  A    between atoms: O_10  and  C_11
REMARK                            x       y       z     vdW  Elec       q    Type
REMARK                         _______ _______ _______ _____ _____    ______ ____
ROOT
ATOM      1  C   UNL     1       5.817   4.703  16.770  0.00  0.00    +0.000 A 
ATOM      2  C   UNL     1       7.200   4.632  17.026  0.00  0.00    +0.000 A 
ATOM      3  C   UNL     1       7.733   4.994  18.265  0.00  0.00    +0.000 A 
ATOM      4  C   UNL     1       6.891   5.503  19.246  0.00  0.00    +0.000 A 
ATOM      5  C   UNL     1       5.525   5.615  19.000  0.00  0.00    +0.000 A 
ATOM      6  C   UNL     1       4.970   5.146  17.796  0.00  0.00    +0.000 A 
ENDROOT
BRANCH   1   7
ATOM      7  C   UNL     1       5.321   4.323  15.392  0.00  0.00    +0.000 C 
BRANCH   7   9
ATOM      8  C   UNL     1       6.318   3.924  13.228  0.00  0.00    +0.000 C 
ATOM      9  N   UNL     1       6.265   3.504  14.622  0.00  0.00    +0.000 NA
ATOM     10  H   UNL     1       7.188   3.610  15.038  0.00  0.00    +0.000 HD
ENDBRANCH   7   9
ENDBRANCH   1   7
BRANCH   6  11
ATOM     11  O   UNL     1       3.597   5.105  17.596  0.00  0.00    +0.000 OA
BRANCH  11  12
ATOM     12  C   UNL     1       2.826   4.474  18.559  0.00  0.00    +0.000 A 
ATOM     13  C   UNL     1       2.678   3.077  18.577  0.00  0.00    +0.000 A 
ATOM     14  C   UNL     1       2.046   2.452  19.652  0.00  0.00    +0.000 A 
ATOM     15  C   UNL     1       1.495   3.227  20.665  0.00  0.00    +0.000 A 
ATOM     16  F   UNL     1       0.917   2.624  21.711  0.00  0.00    +0.000 F 
ATOM     17  C   UNL     1       1.540   4.616  20.612  0.00  0.00    +0.000 A 
ATOM     18  C   UNL     1       2.202   5.243  19.552  0.00  0.00    +0.000 A 
ATOM     19 CL   UNL     1       2.251   6.967  19.523  0.00  0.00    +0.000 Cl
ENDBRANCH  11  12
ENDBRANCH   6  11
TORSDOF 4
ENDMDL
MODEL 3
REMARK VINA RESULT:      -6.9      3.440      5.583
REMARK  Name = 
REMARK  5 active torsions:
REMARK  status: ('A' for Active; 'I' for Inactive)
REMARK    1  A    between atoms: C_1  and  N_2
REMARK    2  A    between atoms: N_2  and  C_3
REMARK    3  A    between atoms: C_3  and  C_4
REMARK    4  A    between atoms: C_9  and  O_10
REMARK    5  A    between atoms: O_10  and  C_11
REMARK                            x       y       z     vdW  Elec       q    Type
REMARK                         _______ _______ _______ _____ _____    ______ ____
ROOT
ATOM      1  C   UNL     1       6.186   5.213  16.591  0.00  0.00    +0.000 A 
ATOM      2  C   UNL     1       7.076   6.289  16.769  0.00  0.00    +0.000 A 
ATOM      3  C   UNL     1       7.576   6.623  18.030  0.00  0.00    +0.000 A 
ATOM      4  C   UNL     1       7.130   5.925  19.145  0.00  0.00    +0.000 A 
ATOM      5  C   UNL     1       6.221   4.882  18.995  0.00  0.00    +0.000 A 
ATOM      6  C   UNL     1       5.804   4.469  17.717  0.00  0.00    +0.000 A 
ENDROOT
BRANCH   1   7
ATOM      7  C   UNL     1       5.665   4.933  15.198  0.00  0.00    +0.000 C 
BRANCH   7   9
ATOM      8  C   UNL     1       6.259   3.755  13.175  0.00  0.00    +0.000 C 
ATOM      9  N   UNL     1       6.144   3.670  14.624  0.00  0.00    +0.000 NA
ATOM     10  H   UNL     1       7.061   3.470  15.020  0.00  0.00    +0.000 HD
ENDBRANCH   7   9
ENDBRANCH   1   7
BRANCH   6  11
ATOM     11  O   UNL     1       5.024   3.334  17.537  0.00  0.00    +0.000 OA
BRANCH  11  12
ATOM     12  C   UNL     1       3.754   3.334  18.092  0.00  0.00    +0.000 A 
ATOM     13  C   UNL     1       2.700   4.054  17.506  0.00  0.00    +0.000 A 
ATOM     14  C   UNL     1       1.397   3.899  17.978  0.00  0.00    +0.000 A 
ATOM     15  C   UNL     1       1.162   3.088  19.082  0.00  0.00    +0.000 A 
ATOM     16  F   UNL     1      -0.094   2.917  19.513  0.00  0.00    +0.000 F 
ATOM     17  C   UNL     1       2.207   2.450  19.740  0.00  0.00    +0.000 A 
ATOM     18  C   UNL     1       3.509   2.578  19.248  0.00  0.00    +0.000 A 
ATOM     19 CL   UNL     1       4.782   1.762  20.079  0.00  0.00    +0.000 Cl
ENDBRANCH  11  12
ENDBRANCH   6  11
TORSDOF 4
ENDMDL
MODEL 4
REMARK VINA RESULT:      -6.8      3.232      5.697
REMARK  Name = 
REMARK  5 active torsions:
REMARK  status: ('A' for Active; 'I' for Inactive)
REMARK    1  A    between atoms: C_1  and  N_2
REMARK    2  A    between atoms: N_2  and  C_3
REMARK    3  A    between atoms: C_3  and  C_4
REMARK    4  A    between atoms: C_9  and  O_10
REMARK    5  A    between atoms: O_10  and  C_11
REMARK                            x       y       z     vdW  Elec       q    Type
REMARK                         _______ _______ _______ _____ _____    ______ ____
ROOT
ATOM      1  C   UNL     1       7.011   4.665  16.808  0.00  0.00    +0.000 A 
ATOM      2  C   UNL     1       7.601   4.848  15.543  0.00  0.00    +0.000 A 
ATOM      3  C   UNL     1       6.852   4.760  14.367  0.00  0.00    +0.000 A 
ATOM      4  C   UNL     1       5.509   4.413  14.441  0.00  0.00    +0.000 A 
ATOM      5  C   UNL     1       4.915   4.192  15.680  0.00  0.00    +0.000 A 
ATOM      6  C   UNL     1       5.636   4.391  16.870  0.00  0.00    +0.000 A 
ENDROOT
BRANCH   1   7
ATOM      7  C   UNL     1       7.895   4.745  18.033  0.00  0.00    +0.000 C 
BRANCH   7   9
ATOM      8  C   UNL     1       7.897   7.152  18.234  0.00  0.00    +0.000 C 
ATOM      9  N   UNL     1       7.607   5.892  18.903  0.00  0.00    +0.000 NA
ATOM     10  H   UNL     1       6.618   5.864  19.146  0.00  0.00    +0.000 HD
ENDBRANCH   7   9
ENDBRANCH   1   7
BRANCH   6  11
ATOM     11  O   UNL     1       5.022   4.329  18.113  0.00  0.00    +0.000 OA
BRANCH  11  12
ATOM     12  C   UNL     1       3.761   3.757  18.178  0.00  0.00    +0.000 A 
ATOM     13  C   UNL     1       3.594   2.365  18.264  0.00  0.00    +0.000 A 
ATOM     14  C   UNL     1       2.331   1.823  18.505  0.00  0.00    +0.000 A 
ATOM     15  C   UNL     1       1.230   2.666  18.580  0.00  0.00    +0.000 A 
ATOM     16  F   UNL     1       0.024   2.147  18.842  0.00  0.00    +0.000 F 
ATOM     17  C   UNL     1       1.360   4.038  18.392  0.00  0.00    +0.000 A 
ATOM     18  C   UNL     1       2.629   4.585  18.184  0.00  0.00    +0.000 A 
ATOM     19 CL   UNL     1       2.759   6.292  17.969  0.00  0.00    +0.000 Cl
ENDBRANCH  11  12
ENDBRANCH   6  11
TORSDOF 4
ENDMDL
MODEL 5
REMARK VINA RESULT:      -6.8      3.355      5.836
REMARK  Name = 
REMARK  5 active torsions:
REMARK  status: ('A' for Active; 'I' for Inactive)
REMARK    1  A    between atoms: C_1  and  N_2
REMARK    2  A    between atoms: N_2  and  C_3
REMARK    3  A    between atoms: C_3  and  C_4
REMARK    4  A    between atoms: C_9  and  O_10
REMARK    5  A    between atoms: O_10  and  C_11
REMARK                            x       y       z     vdW  Elec       q    Type
REMARK                         _______ _______ _______ _____ _____    ______ ____
ROOT
ATOM      1  C   UNL     1       5.886   4.624  16.806  0.00  0.00    +0.000 A 
ATOM      2  C   UNL     1       7.278   4.728  16.988  0.00  0.00    +0.000 A 
ATOM      3  C   UNL     1       7.828   5.121  18.210  0.00  0.00    +0.000 A 
ATOM      4  C   UNL     1       6.983   5.487  19.250  0.00  0.00    +0.000 A 
ATOM      5  C   UNL     1       5.603   5.427  19.079  0.00  0.00    +0.000 A 
ATOM      6  C   UNL     1       5.046   4.923  17.890  0.00  0.00    +0.000 A 
ENDROOT
BRANCH   1   7
ATOM      7  C   UNL     1       5.366   4.222  15.444  0.00  0.00    +0.000 C 
BRANCH   7   9
ATOM      8  C   UNL     1       5.857   3.661  13.146  0.00  0.00    +0.000 C 
ATOM      9  N   UNL     1       6.408   4.114  14.416  0.00  0.00    +0.000 NA
ATOM     10  H   UNL     1       6.824   5.035  14.288  0.00  0.00    +0.000 HD
ENDBRANCH   7   9
ENDBRANCH   1   7
BRANCH   6  11
ATOM     11  O   UNL     1       3.682   4.708  17.760  0.00  0.00    +0.000 OA
BRANCH  11  12
ATOM     12  C   UNL     1       3.005   4.194  18.855  0.00  0.00    +0.000 A 
ATOM     13  C   UNL     1       2.417   5.037  19.812  0.00  0.00    +0.000 A 
ATOM     14  C   UNL     1       1.596   4.505  20.806  0.00  0.00    +0.000 A 
ATOM     15  C   UNL     1       1.428   3.128  20.888  0.00  0.00    +0.000 A 
ATOM     16  F   UNL     1       0.614   2.622  21.823  0.00  0.00    +0.000 F 
ATOM     17  C   UNL     1       2.086   2.270  20.014  0.00  0.00    +0.000 A 
ATOM     18  C   UNL     1       2.883   2.804  18.997  0.00  0.00    +0.000 A 
ATOM     19 CL   UNL     1       3.675   1.713  17.920  0.00  0.00    +0.000 Cl
ENDBRANCH  11  12
ENDBRANCH   6  11
TORSDOF 4
ENDMDL
MODEL 6
REMARK VINA RESULT:      -6.8      1.879      2.173
REMARK  Name = 
REMARK  5 active torsions:
REMARK  status: ('A' for Active; 'I' for Inactive)
REMARK    1  A    between atoms: C_1  and  N_2
REMARK    2  A    between atoms: N_2  and  C_3
REMARK    3  A    between atoms: C_3  and  C_4
REMARK    4  A    between atoms: C_9  and  O_10
REMARK    5  A    between atoms: O_10  and  C_11
REMARK                            x       y       z     vdW  Elec       q    Type
REMARK                         _______ _______ _______ _____ _____    ______ ____
ROOT
ATOM      1  C   UNL     1       1.938   4.541  19.992  0.00  0.00    +0.000 A 
ATOM      2  C   UNL     1       0.896   3.600  19.890  0.00  0.00    +0.000 A 
ATOM      3  C   UNL     1       0.966   2.526  18.999  0.00  0.00    +0.000 A 
ATOM      4  C   UNL     1       2.055   2.422  18.142  0.00  0.00    +0.000 A 
ATOM      5  C   UNL     1       3.079   3.364  18.203  0.00  0.00    +0.000 A 
ATOM      6  C   UNL     1       3.067   4.380  19.175  0.00  0.00    +0.000 A 
ENDROOT
BRANCH   1   7
ATOM      7  C   UNL     1       1.774   5.693  20.959  0.00  0.00    +0.000 C 
BRANCH   7   9
ATOM      8  C   UNL     1       1.332   8.068  20.973  0.00  0.00    +0.000 C 
ATOM      9  N   UNL     1       2.137   7.000  20.396  0.00  0.00    +0.000 NA
ATOM     10  H   UNL     1       3.118   7.173  20.604  0.00  0.00    +0.000 HD
ENDBRANCH   7   9
ENDBRANCH   1   7
BRANCH   6  11
ATOM     11  O   UNL     1       4.150   5.229  19.353  0.00  0.00    +0.000 OA
BRANCH  11  12
ATOM     12  C   UNL     1       5.057   5.341  18.311  0.00  0.00    +0.000 A 
ATOM     13  C   UNL     1       6.203   4.532  18.250  0.00  0.00    +0.000 A 
ATOM     14  C   UNL     1       7.007   4.538  17.110  0.00  0.00    +0.000 A 
ATOM     15  C   UNL     1       6.707   5.407  16.068  0.00  0.00    +0.000 A 
ATOM     16  F   UNL     1       7.461   5.388  14.962  0.00  0.00    +0.000 F 
ATOM     17  C   UNL     1       5.637   6.291  16.154  0.00  0.00    +0.000 A 
ATOM     18  C   UNL     1       4.812   6.263  17.282  0.00  0.00    +0.000 A 
ATOM     19 CL   UNL     1       3.484   7.362  17.352  0.00  0.00    +0.000 Cl
ENDBRANCH  11  12
ENDBRANCH   6  11
TORSDOF 4
ENDMDL
MODEL 7
REMARK VINA RESULT:      -6.8      3.189      5.573
REMARK  Name = 
REMARK  5 active torsions:
REMARK  status: ('A' for Active; 'I' for Inactive)
REMARK    1  A    between atoms: C_1  and  N_2
REMARK    2  A    between atoms: N_2  and  C_3
REMARK    3  A    between atoms: C_3  and  C_4
REMARK    4  A    between atoms: C_9  and  O_10
REMARK    5  A    between atoms: O_10  and  C_11
REMARK                            x       y       z     vdW  Elec       q    Type
REMARK                         _______ _______ _______ _____ _____    ______ ____
ROOT
ATOM      1  C   UNL     1       6.206   5.955  17.024  0.00  0.00    +0.000 A 
ATOM      2  C   UNL     1       7.272   6.853  17.227  0.00  0.00    +0.000 A 
ATOM      3  C   UNL     1       8.033   6.829  18.398  0.00  0.00    +0.000 A 
ATOM      4  C   UNL     1       7.688   5.951  19.417  0.00  0.00    +0.000 A 
ATOM      5  C   UNL     1       6.615   5.080  19.250  0.00  0.00    +0.000 A 
ATOM      6  C   UNL     1       5.918   5.021  18.030  0.00  0.00    +0.000 A 
ENDROOT
BRANCH   1   7
ATOM      7  C   UNL     1       5.409   6.063  15.742  0.00  0.00    +0.000 C 
BRANCH   7   9
ATOM      8  C   UNL     1       6.626   4.555  14.300  0.00  0.00    +0.000 C 
ATOM      9  N   UNL     1       5.357   4.819  14.965  0.00  0.00    +0.000 NA
ATOM     10  H   UNL     1       5.151   4.054  15.606  0.00  0.00    +0.000 HD
ENDBRANCH   7   9
ENDBRANCH   1   7
BRANCH   6  11
ATOM     11  O   UNL     1       4.951   4.055  17.791  0.00  0.00    +0.000 OA
BRANCH  11  12
ATOM     12  C   UNL     1       3.812   4.077  18.580  0.00  0.00    +0.000 A 
ATOM     13  C   UNL     1       3.341   5.271  19.150  0.00  0.00    +0.000 A 
ATOM     14  C   UNL     1       2.103   5.303  19.791  0.00  0.00    +0.000 A 
ATOM     15  C   UNL     1       1.376   4.126  19.931  0.00  0.00    +0.000 A 
ATOM     16  F   UNL     1       0.174   4.165  20.519  0.00  0.00    +0.000 F 
ATOM     17  C   UNL     1       1.875   2.915  19.466  0.00  0.00    +0.000 A 
ATOM     18  C   UNL     1       3.100   2.888  18.793  0.00  0.00    +0.000 A 
ATOM     19 CL   UNL     1       3.684   1.371  18.216  0.00  0.00    +0.000 Cl
ENDBRANCH  11  12
ENDBRANCH   6  11
TORSDOF 4
ENDMDL
MODEL 8
REMARK VINA RESULT:      -6.8      3.292      5.586
REMARK  Name = 
REMARK  5 active torsions:
REMARK  status: ('A' for Active; 'I' for Inactive)
REMARK    1  A    between atoms: C_1  and  N_2
REMARK    2  A    between atoms: N_2  and  C_3
REMARK    3  A    between atoms: C_3  and  C_4
REMARK    4  A    between atoms: C_9  and  O_10
REMARK    5  A    between atoms: O_10  and  C_11
REMARK                            x       y       z     vdW  Elec       q    Type
REMARK                         _______ _______ _______ _____ _____    ______ ____
ROOT
ATOM      1  C   UNL     1       6.029   5.813  16.909  0.00  0.00    +0.000 A 
ATOM      2  C   UNL     1       7.206   6.505  17.254  0.00  0.00    +0.000 A 
ATOM      3  C   UNL     1       7.774   6.391  18.525  0.00  0.00    +0.000 A 
ATOM      4  C   UNL     1       7.126   5.636  19.495  0.00  0.00    +0.000 A 
ATOM      5  C   UNL     1       5.941   4.975  19.184  0.00  0.00    +0.000 A 
ATOM      6  C   UNL     1       5.428   4.994  17.876  0.00  0.00    +0.000 A 
ENDROOT
BRANCH   1   7
ATOM      7  C   UNL     1       5.458   6.013  15.522  0.00  0.00    +0.000 C 
BRANCH   7   9
ATOM      8  C   UNL     1       6.276   4.015  14.438  0.00  0.00    +0.000 C 
ATOM      9  N   UNL     1       6.299   5.472  14.447  0.00  0.00    +0.000 NA
ATOM     10  H   UNL     1       5.939   5.816  13.559  0.00  0.00    +0.000 HD
ENDBRANCH   7   9
ENDBRANCH   1   7
BRANCH   6  11
ATOM     11  O   UNL     1       4.338   4.216  17.510  0.00  0.00    +0.000 OA
BRANCH  11  12
ATOM     12  C   UNL     1       3.431   3.875  18.501  0.00  0.00    +0.000 A 
ATOM     13  C   UNL     1       3.445   2.604  19.099  0.00  0.00    +0.000 A 
ATOM     14  C   UNL     1       2.644   2.341  20.209  0.00  0.00    +0.000 A 
ATOM     15  C   UNL     1       1.774   3.322  20.670  0.00  0.00    +0.000 A 
ATOM     16  F   UNL     1       1.029   3.078  21.755  0.00  0.00    +0.000 F 
ATOM     17  C   UNL     1       1.669   4.550  20.027  0.00  0.00    +0.000 A 
ATOM     18  C   UNL     1       2.496   4.826  18.934  0.00  0.00    +0.000 A 
ATOM     19 CL   UNL     1       2.351   6.364  18.167  0.00  0.00    +0.000 Cl
ENDBRANCH  11  12
ENDBRANCH   6  11
TORSDOF 4
ENDMDL
MODEL 9
REMARK VINA RESULT:      -6.8      3.672      5.931
REMARK  Name = 
REMARK  5 active torsions:
REMARK  status: ('A' for Active; 'I' for Inactive)
REMARK    1  A    between atoms: C_1  and  N_2
REMARK    2  A    between atoms: N_2  and  C_3
REMARK    3  A    between atoms: C_3  and  C_4
REMARK    4  A    between atoms: C_9  and  O_10
REMARK    5  A    between atoms: O_10  and  C_11
REMARK                            x       y       z     vdW  Elec       q    Type
REMARK                         _______ _______ _______ _____ _____    ______ ____
ROOT
ATOM      1  C   UNL     1       5.891   4.671  16.720  0.00  0.00    +0.000 A 
ATOM      2  C   UNL     1       7.019   5.499  16.877  0.00  0.00    +0.000 A 
ATOM      3  C   UNL     1       7.447   5.920  18.138  0.00  0.00    +0.000 A 
ATOM      4  C   UNL     1       6.702   5.577  19.259  0.00  0.00    +0.000 A 
ATOM      5  C   UNL     1       5.562   4.790  19.122  0.00  0.00    +0.000 A 
ATOM      6  C   UNL     1       5.193   4.269  17.869  0.00  0.00    +0.000 A 
ENDROOT
BRANCH   1   7
ATOM      7  C   UNL     1       5.472   4.282  15.319  0.00  0.00    +0.000 C 
BRANCH   7   9
ATOM      8  C   UNL     1       6.265   3.712  13.110  0.00  0.00    +0.000 C 
ATOM      9  N   UNL     1       6.506   4.513  14.303  0.00  0.00    +0.000 NA
ATOM     10  H   UNL     1       6.487   5.499  14.050  0.00  0.00    +0.000 HD
ENDBRANCH   7   9
ENDBRANCH   1   7
BRANCH   6  11
ATOM     11  O   UNL     1       4.155   3.357  17.737  0.00  0.00    +0.000 OA
BRANCH  11  12
ATOM     12  C   UNL     1       3.356   3.129  18.846  0.00  0.00    +0.000 A 
ATOM     13  C   UNL     1       3.828   2.402  19.951  0.00  0.00    +0.000 A 
ATOM     14  C   UNL     1       3.074   2.334  21.122  0.00  0.00    +0.000 A 
ATOM     15  C   UNL     1       1.818   2.926  21.160  0.00  0.00    +0.000 A 
ATOM     16  F   UNL     1       1.110   2.887  22.295  0.00  0.00    +0.000 F 
ATOM     17  C   UNL     1       1.288   3.561  20.042  0.00  0.00    +0.000 A 
ATOM     18  C   UNL     1       2.057   3.658  18.878  0.00  0.00    +0.000 A 
ATOM     19 CL   UNL     1       1.376   4.464  17.513  0.00  0.00    +0.000 Cl
ENDBRANCH  11  12
ENDBRANCH   6  11
TORSDOF 4
ENDMDL
