MODEL 1
REMARK VINA RESULT:      -8.4      0.000      0.000
REMARK  Name = 
REMARK  9 active torsions:
REMARK  status: ('A' for Active; 'I' for Inactive)
REMARK    1  A    between atoms: C_1  and  O_2
REMARK    2  A    between atoms: O_2  and  C_3
REMARK    3  A    between atoms: C_6  and  C_7
REMARK    4  A    between atoms: N_9  and  N_10
REMARK    5  A    between atoms: C_11  and  C_13
REMARK    6  A    between atoms: C_13  and  S_14
REMARK    7  A    between atoms: S_14  and  C_15
REMARK    8  A    between atoms: N_20  and  C_21
REMARK    9  A    between atoms: N_24  and  C_25
REMARK                            x       y       z     vdW  Elec       q    Type
REMARK                         _______ _______ _______ _____ _____    ______ ____
ROOT
ATOM      1  N   UNL     1       2.526   4.886  20.923  0.00  0.00    +0.000 N 
ATOM      2  C   UNL     1       1.665   3.850  20.585  0.00  0.00    +0.000 C 
ATOM      3  O   UNL     1       0.514   4.075  20.203  0.00  0.00    +0.000 OA
ATOM      4  H   UNL     1       3.494   4.783  21.222  0.00  0.00    +0.000 HD
ENDROOT
BRANCH   1   7
ATOM      5  C   UNL     1       2.288   6.879  19.564  0.00  0.00    +0.000 C 
ATOM      6  O   UNL     1       2.883   6.348  18.633  0.00  0.00    +0.000 OA
ATOM      7  N   UNL     1       2.054   6.211  20.759  0.00  0.00    +0.000 N 
ATOM      8  H   UNL     1       1.599   6.608  21.569  0.00  0.00    +0.000 HD
BRANCH   5  12
ATOM      9  C   UNL     1       0.792  10.949  19.336  0.00  0.00    +0.000 A 
ATOM     10  C   UNL     1       0.608  10.171  20.477  0.00  0.00    +0.000 A 
ATOM     11  C   UNL     1       1.112   8.861  20.536  0.00  0.00    +0.000 A 
ATOM     12  C   UNL     1       1.789   8.298  19.446  0.00  0.00    +0.000 A 
ATOM     13  C   UNL     1       1.967   9.087  18.300  0.00  0.00    +0.000 A 
ATOM     14  C   UNL     1       1.467  10.403  18.246  0.00  0.00    +0.000 A 
BRANCH   9  16
ATOM     15  C   UNL     1      -0.018  12.721  20.683  0.00  0.00    +0.000 C 
ATOM     16  O   UNL     1       0.253  12.204  19.383  0.00  0.00    +0.000 OA
ENDBRANCH   9  16
ENDBRANCH   5  12
ENDBRANCH   1   7
BRANCH   2  17
ATOM     17  C   UNL     1       2.231   2.444  20.774  0.00  0.00    +0.000 C 
BRANCH  17  18
ATOM     18  S   UNL     1       2.840   1.727  19.199  0.00  0.00    +0.000 S 
BRANCH  18  19
ATOM     19  C   UNL     1       4.103   2.812  18.747  0.00  0.00    +0.000 A 
ATOM     20  N   UNL     1       4.898   3.483  19.545  0.00  0.00    +0.000 NA
ATOM     21  C   UNL     1       5.655   4.272  18.702  0.00  0.00    +0.000 A 
ATOM     22  C   UNL     1       6.640   5.270  19.068  0.00  0.00    +0.000 A 
ATOM     23  O   UNL     1       6.919   5.505  20.238  0.00  0.00    +0.000 OA
ATOM     24  N   UNL     1       7.216   5.940  17.989  0.00  0.00    +0.000 N 
ATOM     25  C   UNL     1       8.218   6.957  18.265  0.00  0.00    +0.000 C 
ATOM     26  C   UNL     1       6.914   5.735  16.651  0.00  0.00    +0.000 A 
ATOM     27  O   UNL     1       7.420   6.344  15.716  0.00  0.00    +0.000 OA
ATOM     28  N   UNL     1       5.919   4.729  16.350  0.00  0.00    +0.000 N 
ATOM     29  C   UNL     1       5.564   4.481  14.948  0.00  0.00    +0.000 C 
ATOM     30  C   UNL     1       5.328   4.041  17.395  0.00  0.00    +0.000 A 
ATOM     31  N   UNL     1       4.353   3.082  17.422  0.00  0.00    +0.000 N 
ATOM     32  H   UNL     1       3.841   2.688  16.647  0.00  0.00    +0.000 HD
ENDBRANCH  18  19
ENDBRANCH  17  18
ENDBRANCH   2  17
TORSDOF 6
ENDMDL
MODEL 2
REMARK VINA RESULT:      -8.4      0.528      1.037
REMARK  Name = 
REMARK  9 active torsions:
REMARK  status: ('A' for Active; 'I' for Inactive)
REMARK    1  A    between atoms: C_1  and  O_2
REMARK    2  A    between atoms: O_2  and  C_3
REMARK    3  A    between atoms: C_6  and  C_7
REMARK    4  A    between atoms: N_9  and  N_10
REMARK    5  A    between atoms: C_11  and  C_13
REMARK    6  A    between atoms: C_13  and  S_14
REMARK    7  A    between atoms: S_14  and  C_15
REMARK    8  A    between atoms: N_20  and  C_21
REMARK    9  A    between atoms: N_24  and  C_25
REMARK                            x       y       z     vdW  Elec       q    Type
REMARK                         _______ _______ _______ _____ _____    ______ ____
ROOT
ATOM      1  N   UNL     1       2.482   4.781  20.920  0.00  0.00    +0.000 N 
ATOM      2  C   UNL     1       1.665   3.731  20.523  0.00  0.00    +0.000 C 
ATOM      3  O   UNL     1       0.484   3.918  20.222  0.00  0.00    +0.000 OA
ATOM      4  H   UNL     1       3.468   4.711  21.160  0.00  0.00    +0.000 HD
ENDROOT
BRANCH   1   7
ATOM      5  C   UNL     1       2.233   6.954  19.875  0.00  0.00    +0.000 C 
ATOM      6  O   UNL     1       2.966   6.622  18.949  0.00  0.00    +0.000 OA
ATOM      7  N   UNL     1       1.925   6.083  20.912  0.00  0.00    +0.000 N 
ATOM      8  H   UNL     1       1.355   6.311  21.714  0.00  0.00    +0.000 HD
BRANCH   5  12
ATOM      9  C   UNL     1       0.556  10.959  19.892  0.00  0.00    +0.000 A 
ATOM     10  C   UNL     1       1.078  10.396  18.729  0.00  0.00    +0.000 A 
ATOM     11  C   UNL     1       1.604   9.093  18.741  0.00  0.00    +0.000 A 
ATOM     12  C   UNL     1       1.637   8.339  19.923  0.00  0.00    +0.000 A 
ATOM     13  C   UNL     1       1.113   8.915  21.089  0.00  0.00    +0.000 A 
ATOM     14  C   UNL     1       0.579  10.218  21.072  0.00  0.00    +0.000 A 
BRANCH   9  16
ATOM     15  C   UNL     1       0.275  12.856  18.501  0.00  0.00    +0.000 C 
ATOM     16  O   UNL     1       0.080  12.235  19.769  0.00  0.00    +0.000 OA
ENDBRANCH   9  16
ENDBRANCH   5  12
ENDBRANCH   1   7
BRANCH   2  17
ATOM     17  C   UNL     1       2.321   2.351  20.543  0.00  0.00    +0.000 C 
BRANCH  17  18
ATOM     18  S   UNL     1       2.873   1.825  18.875  0.00  0.00    +0.000 S 
BRANCH  18  19
ATOM     19  C   UNL     1       4.155   2.926  18.530  0.00  0.00    +0.000 A 
ATOM     20  N   UNL     1       4.929   3.541  19.392  0.00  0.00    +0.000 NA
ATOM     21  C   UNL     1       5.715   4.375  18.623  0.00  0.00    +0.000 A 
ATOM     22  C   UNL     1       6.693   5.341  19.080  0.00  0.00    +0.000 A 
ATOM     23  O   UNL     1       6.938   5.502  20.270  0.00  0.00    +0.000 OA
ATOM     24  N   UNL     1       7.306   6.073  18.062  0.00  0.00    +0.000 N 
ATOM     25  C   UNL     1       8.304   7.064  18.431  0.00  0.00    +0.000 C 
ATOM     26  C   UNL     1       7.044   5.954  16.706  0.00  0.00    +0.000 A 
ATOM     27  O   UNL     1       7.581   6.615  15.826  0.00  0.00    +0.000 OA
ATOM     28  N   UNL     1       6.053   4.975  16.313  0.00  0.00    +0.000 N 
ATOM     29  C   UNL     1       5.740   4.816  14.888  0.00  0.00    +0.000 C 
ATOM     30  C   UNL     1       5.427   4.228  17.295  0.00  0.00    +0.000 A 
ATOM     31  N   UNL     1       4.446   3.276  17.233  0.00  0.00    +0.000 N 
ATOM     32  H   UNL     1       3.957   2.934  16.419  0.00  0.00    +0.000 HD
ENDBRANCH  18  19
ENDBRANCH  17  18
ENDBRANCH   2  17
TORSDOF 6
ENDMDL
MODEL 3
REMARK VINA RESULT:      -7.5      1.237      1.285
REMARK  Name = 
REMARK  9 active torsions:
REMARK  status: ('A' for Active; 'I' for Inactive)
REMARK    1  A    between atoms: C_1  and  O_2
REMARK    2  A    between atoms: O_2  and  C_3
REMARK    3  A    between atoms: C_6  and  C_7
REMARK    4  A    between atoms: N_9  and  N_10
REMARK    5  A    between atoms: C_11  and  C_13
REMARK    6  A    between atoms: C_13  and  S_14
REMARK    7  A    between atoms: S_14  and  C_15
REMARK    8  A    between atoms: N_20  and  C_21
REMARK    9  A    between atoms: N_24  and  C_25
REMARK                            x       y       z     vdW  Elec       q    Type
REMARK                         _______ _______ _______ _____ _____    ______ ____
ROOT
ATOM      1  N   UNL     1       2.090   4.908  19.657  0.00  0.00    +0.000 N 
ATOM      2  C   UNL     1       1.646   3.927  18.781  0.00  0.00    +0.000 C 
ATOM      3  O   UNL     1       1.184   4.218  17.676  0.00  0.00    +0.000 OA
ATOM      4  H   UNL     1       2.504   4.747  20.573  0.00  0.00    +0.000 HD
ENDROOT
BRANCH   1   7
ATOM      5  C   UNL     1       1.654   7.253  20.092  0.00  0.00    +0.000 C 
ATOM      6  O   UNL     1       1.356   7.009  21.256  0.00  0.00    +0.000 OA
ATOM      7  N   UNL     1       2.047   6.252  19.212  0.00  0.00    +0.000 N 
ATOM      8  H   UNL     1       2.274   6.389  18.238  0.00  0.00    +0.000 HD
BRANCH   5  12
ATOM      9  C   UNL     1       1.421  11.351  18.676  0.00  0.00    +0.000 A 
ATOM     10  C   UNL     1       0.888  10.977  19.908  0.00  0.00    +0.000 A 
ATOM     11  C   UNL     1       0.985   9.649  20.354  0.00  0.00    +0.000 A 
ATOM     12  C   UNL     1       1.598   8.666  19.565  0.00  0.00    +0.000 A 
ATOM     13  C   UNL     1       2.129   9.050  18.325  0.00  0.00    +0.000 A 
ATOM     14  C   UNL     1       2.036  10.384  17.884  0.00  0.00    +0.000 A 
BRANCH   9  16
ATOM     15  C   UNL     1       2.457  13.430  18.209  0.00  0.00    +0.000 C 
ATOM     16  O   UNL     1       1.261  12.666  18.337  0.00  0.00    +0.000 OA
ENDBRANCH   9  16
ENDBRANCH   5  12
ENDBRANCH   1   7
BRANCH   2  17
ATOM     17  C   UNL     1       1.724   2.496  19.311  0.00  0.00    +0.000 C 
BRANCH  17  18
ATOM     18  S   UNL     1       3.076   1.540  18.522  0.00  0.00    +0.000 S 
BRANCH  18  19
ATOM     19  C   UNL     1       4.299   2.733  18.282  0.00  0.00    +0.000 A 
ATOM     20  N   UNL     1       4.995   3.355  19.203  0.00  0.00    +0.000 NA
ATOM     21  C   UNL     1       5.759   4.269  18.505  0.00  0.00    +0.000 A 
ATOM     22  C   UNL     1       6.653   5.272  19.046  0.00  0.00    +0.000 A 
ATOM     23  O   UNL     1       6.837   5.394  20.252  0.00  0.00    +0.000 OA
ATOM     24  N   UNL     1       7.261   6.085  18.089  0.00  0.00    +0.000 N 
ATOM     25  C   UNL     1       8.178   7.119  18.543  0.00  0.00    +0.000 C 
ATOM     26  C   UNL     1       7.065   6.011  16.718  0.00  0.00    +0.000 A 
ATOM     27  O   UNL     1       7.596   6.743  15.891  0.00  0.00    +0.000 OA
ATOM     28  N   UNL     1       6.155   4.992  16.240  0.00  0.00    +0.000 N 
ATOM     29  C   UNL     1       5.914   4.878  14.797  0.00  0.00    +0.000 C 
ATOM     30  C   UNL     1       5.537   4.164  17.160  0.00  0.00    +0.000 A 
ATOM     31  N   UNL     1       4.622   3.157  17.015  0.00  0.00    +0.000 N 
ATOM     32  H   UNL     1       4.191   2.823  16.166  0.00  0.00    +0.000 HD
ENDBRANCH  18  19
ENDBRANCH  17  18
ENDBRANCH   2  17
TORSDOF 6
ENDMDL
MODEL 4
REMARK VINA RESULT:      -7.4      1.038      1.443
REMARK  Name = 
REMARK  9 active torsions:
REMARK  status: ('A' for Active; 'I' for Inactive)
REMARK    1  A    between atoms: C_1  and  O_2
REMARK    2  A    between atoms: O_2  and  C_3
REMARK    3  A    between atoms: C_6  and  C_7
REMARK    4  A    between atoms: N_9  and  N_10
REMARK    5  A    between atoms: C_11  and  C_13
REMARK    6  A    between atoms: C_13  and  S_14
REMARK    7  A    between atoms: S_14  and  C_15
REMARK    8  A    between atoms: N_20  and  C_21
REMARK    9  A    between atoms: N_24  and  C_25
REMARK                            x       y       z     vdW  Elec       q    Type
REMARK                         _______ _______ _______ _____ _____    ______ ____
ROOT
ATOM      1  N   UNL     1       1.617   4.200  20.038  0.00  0.00    +0.000 N 
ATOM      2  C   UNL     1       2.033   3.274  20.986  0.00  0.00    +0.000 C 
ATOM      3  O   UNL     1       2.140   3.579  22.175  0.00  0.00    +0.000 OA
ATOM      4  H   UNL     1       1.482   4.018  19.046  0.00  0.00    +0.000 HD
ENDROOT
BRANCH   1   7
ATOM      5  C   UNL     1       1.878   6.608  19.941  0.00  0.00    +0.000 C 
ATOM      6  O   UNL     1       2.711   6.508  19.047  0.00  0.00    +0.000 OA
ATOM      7  N   UNL     1       1.264   5.492  20.496  0.00  0.00    +0.000 N 
ATOM      8  H   UNL     1       0.595   5.512  21.253  0.00  0.00    +0.000 HD
BRANCH   5  12
ATOM      9  C   UNL     1       0.764  10.553  21.372  0.00  0.00    +0.000 A 
ATOM     10  C   UNL     1       0.902  10.287  20.011  0.00  0.00    +0.000 A 
ATOM     11  C   UNL     1       1.250   9.000  19.567  0.00  0.00    +0.000 A 
ATOM     12  C   UNL     1       1.488   7.963  20.479  0.00  0.00    +0.000 A 
ATOM     13  C   UNL     1       1.350   8.240  21.847  0.00  0.00    +0.000 A 
ATOM     14  C   UNL     1       0.994   9.529  22.288  0.00  0.00    +0.000 A 
BRANCH   9  16
ATOM     15  C   UNL     1      -0.854  12.030  22.274  0.00  0.00    +0.000 C 
ATOM     16  O   UNL     1       0.433  11.841  21.692  0.00  0.00    +0.000 OA
ENDBRANCH   9  16
ENDBRANCH   5  12
ENDBRANCH   1   7
BRANCH   2  17
ATOM     17  C   UNL     1       2.392   1.895  20.435  0.00  0.00    +0.000 C 
BRANCH  17  18
ATOM     18  S   UNL     1       2.534   1.897  18.606  0.00  0.00    +0.000 S 
BRANCH  18  19
ATOM     19  C   UNL     1       3.882   2.937  18.327  0.00  0.00    +0.000 A 
ATOM     20  N   UNL     1       4.630   3.528  19.227  0.00  0.00    +0.000 NA
ATOM     21  C   UNL     1       5.497   4.316  18.497  0.00  0.00    +0.000 A 
ATOM     22  C   UNL     1       6.488   5.245  19.002  0.00  0.00    +0.000 A 
ATOM     23  O   UNL     1       6.669   5.409  20.204  0.00  0.00    +0.000 OA
ATOM     24  N   UNL     1       7.192   5.936  18.016  0.00  0.00    +0.000 N 
ATOM     25  C   UNL     1       8.210   6.887  18.433  0.00  0.00    +0.000 C 
ATOM     26  C   UNL     1       7.006   5.811  16.647  0.00  0.00    +0.000 A 
ATOM     27  O   UNL     1       7.623   6.438  15.794  0.00  0.00    +0.000 OA
ATOM     28  N   UNL     1       5.997   4.872  16.206  0.00  0.00    +0.000 N 
ATOM     29  C   UNL     1       5.762   4.709  14.766  0.00  0.00    +0.000 C 
ATOM     30  C   UNL     1       5.281   4.165  17.156  0.00  0.00    +0.000 A 
ATOM     31  N   UNL     1       4.265   3.257  17.046  0.00  0.00    +0.000 N 
ATOM     32  H   UNL     1       3.810   2.926  16.208  0.00  0.00    +0.000 HD
ENDBRANCH  18  19
ENDBRANCH  17  18
ENDBRANCH   2  17
TORSDOF 6
ENDMDL
MODEL 5
REMARK VINA RESULT:      -7.3      1.132      2.345
REMARK  Name = 
REMARK  9 active torsions:
REMARK  status: ('A' for Active; 'I' for Inactive)
REMARK    1  A    between atoms: C_1  and  O_2
REMARK    2  A    between atoms: O_2  and  C_3
REMARK    3  A    between atoms: C_6  and  C_7
REMARK    4  A    between atoms: N_9  and  N_10
REMARK    5  A    between atoms: C_11  and  C_13
REMARK    6  A    between atoms: C_13  and  S_14
REMARK    7  A    between atoms: S_14  and  C_15
REMARK    8  A    between atoms: N_20  and  C_21
REMARK    9  A    between atoms: N_24  and  C_25
REMARK                            x       y       z     vdW  Elec       q    Type
REMARK                         _______ _______ _______ _____ _____    ______ ____
ROOT
ATOM      1  N   UNL     1       2.524   5.187  21.096  0.00  0.00    +0.000 N 
ATOM      2  C   UNL     1       1.822   4.045  20.731  0.00  0.00    +0.000 C 
ATOM      3  O   UNL     1       0.648   4.108  20.360  0.00  0.00    +0.000 OA
ATOM      4  H   UNL     1       3.498   5.219  21.389  0.00  0.00    +0.000 HD
ENDROOT
BRANCH   1   7
ATOM      5  C   UNL     1       2.126   7.245  19.880  0.00  0.00    +0.000 C 
ATOM      6  O   UNL     1       2.912   6.910  19.002  0.00  0.00    +0.000 OA
ATOM      7  N   UNL     1       1.860   6.432  20.974  0.00  0.00    +0.000 N 
ATOM      8  H   UNL     1       1.247   6.669  21.741  0.00  0.00    +0.000 HD
BRANCH   5  12
ATOM      9  C   UNL     1       0.123  11.084  19.548  0.00  0.00    +0.000 A 
ATOM     10  C   UNL     1       0.789  10.516  18.464  0.00  0.00    +0.000 A 
ATOM     11  C   UNL     1       1.420   9.267  18.588  0.00  0.00    +0.000 A 
ATOM     12  C   UNL     1       1.414   8.574  19.806  0.00  0.00    +0.000 A 
ATOM     13  C   UNL     1       0.744   9.153  20.893  0.00  0.00    +0.000 A 
ATOM     14  C   UNL     1       0.106  10.403  20.764  0.00  0.00    +0.000 A 
BRANCH   9  16
ATOM     15  C   UNL     1      -1.287  12.400  18.173  0.00  0.00    +0.000 C 
ATOM     16  O   UNL     1      -0.446  12.306  19.320  0.00  0.00    +0.000 OA
ENDBRANCH   9  16
ENDBRANCH   5  12
ENDBRANCH   1   7
BRANCH   2  17
ATOM     17  C   UNL     1       2.591   2.733  20.876  0.00  0.00    +0.000 C 
BRANCH  17  18
ATOM     18  S   UNL     1       2.717   1.828  19.285  0.00  0.00    +0.000 S 
BRANCH  18  19
ATOM     19  C   UNL     1       3.746   2.846  18.345  0.00  0.00    +0.000 A 
ATOM     20  N   UNL     1       3.832   2.900  17.038  0.00  0.00    +0.000 NA
ATOM     21  C   UNL     1       4.858   3.789  16.793  0.00  0.00    +0.000 A 
ATOM     22  C   UNL     1       5.425   4.156  15.511  0.00  0.00    +0.000 A 
ATOM     23  O   UNL     1       5.001   3.692  14.458  0.00  0.00    +0.000 OA
ATOM     24  N   UNL     1       6.489   5.056  15.582  0.00  0.00    +0.000 N 
ATOM     25  C   UNL     1       7.116   5.482  14.341  0.00  0.00    +0.000 C 
ATOM     26  C   UNL     1       7.026   5.587  16.745  0.00  0.00    +0.000 A 
ATOM     27  O   UNL     1       7.972   6.365  16.790  0.00  0.00    +0.000 OA
ATOM     28  N   UNL     1       6.421   5.177  17.993  0.00  0.00    +0.000 N 
ATOM     29  C   UNL     1       6.959   5.711  19.250  0.00  0.00    +0.000 C 
ATOM     30  C   UNL     1       5.360   4.289  17.962  0.00  0.00    +0.000 A 
ATOM     31  N   UNL     1       4.626   3.706  18.958  0.00  0.00    +0.000 N 
ATOM     32  H   UNL     1       4.736   3.806  19.956  0.00  0.00    +0.000 HD
ENDBRANCH  18  19
ENDBRANCH  17  18
ENDBRANCH   2  17
TORSDOF 6
ENDMDL
MODEL 6
REMARK VINA RESULT:      -7.3      4.933      7.638
REMARK  Name = 
REMARK  9 active torsions:
REMARK  status: ('A' for Active; 'I' for Inactive)
REMARK    1  A    between atoms: C_1  and  O_2
REMARK    2  A    between atoms: O_2  and  C_3
REMARK    3  A    between atoms: C_6  and  C_7
REMARK    4  A    between atoms: N_9  and  N_10
REMARK    5  A    between atoms: C_11  and  C_13
REMARK    6  A    between atoms: C_13  and  S_14
REMARK    7  A    between atoms: S_14  and  C_15
REMARK    8  A    between atoms: N_20  and  C_21
REMARK    9  A    between atoms: N_24  and  C_25
REMARK                            x       y       z     vdW  Elec       q    Type
REMARK                         _______ _______ _______ _____ _____    ______ ____
ROOT
ATOM      1  N   UNL     1       8.914   8.787  18.972  0.00  0.00    +0.000 N 
ATOM      2  C   UNL     1       8.146   7.915  18.211  0.00  0.00    +0.000 C 
ATOM      3  O   UNL     1       7.680   8.257  17.122  0.00  0.00    +0.000 OA
ATOM      4  H   UNL     1       9.350   8.571  19.866  0.00  0.00    +0.000 HD
ENDROOT
BRANCH   1   7
ATOM      5  C   UNL     1       9.539  11.109  19.270  0.00  0.00    +0.000 C 
ATOM      6  O   UNL     1       9.631  10.957  20.483  0.00  0.00    +0.000 OA
ATOM      7  N   UNL     1       9.190  10.063  18.426  0.00  0.00    +0.000 N 
ATOM      8  H   UNL     1       9.070  10.138  17.425  0.00  0.00    +0.000 HD
BRANCH   5  12
ATOM      9  C   UNL     1      10.191  15.037  17.536  0.00  0.00    +0.000 A 
ATOM     10  C   UNL     1       9.251  14.836  18.546  0.00  0.00    +0.000 A 
ATOM     11  C   UNL     1       9.065  13.560  19.103  0.00  0.00    +0.000 A 
ATOM     12  C   UNL     1       9.800  12.458  18.645  0.00  0.00    +0.000 A 
ATOM     13  C   UNL     1      10.740  12.668  17.627  0.00  0.00    +0.000 A 
ATOM     14  C   UNL     1      10.931  13.950  17.075  0.00  0.00    +0.000 A 
BRANCH   9  16
ATOM     15  C   UNL     1       9.725  17.333  17.887  0.00  0.00    +0.000 C 
ATOM     16  O   UNL     1      10.282  16.315  17.060  0.00  0.00    +0.000 OA
ENDBRANCH   9  16
ENDBRANCH   5  12
ENDBRANCH   1   7
BRANCH   2  17
ATOM     17  C   UNL     1       7.887   6.550  18.847  0.00  0.00    +0.000 C 
BRANCH  17  18
ATOM     18  S   UNL     1       7.402   5.290  17.605  0.00  0.00    +0.000 S 
BRANCH  18  19
ATOM     19  C   UNL     1       5.905   4.696  18.226  0.00  0.00    +0.000 A 
ATOM     20  N   UNL     1       5.466   3.461  18.195  0.00  0.00    +0.000 NA
ATOM     21  C   UNL     1       4.193   3.531  18.724  0.00  0.00    +0.000 A 
ATOM     22  C   UNL     1       3.226   2.459  18.849  0.00  0.00    +0.000 A 
ATOM     23  O   UNL     1       3.477   1.314  18.488  0.00  0.00    +0.000 OA
ATOM     24  N   UNL     1       1.999   2.844  19.390  0.00  0.00    +0.000 N 
ATOM     25  C   UNL     1       0.969   1.830  19.554  0.00  0.00    +0.000 C 
ATOM     26  C   UNL     1       1.653   4.127  19.785  0.00  0.00    +0.000 A 
ATOM     27  O   UNL     1       0.564   4.451  20.245  0.00  0.00    +0.000 OA
ATOM     28  N   UNL     1       2.660   5.155  19.630  0.00  0.00    +0.000 N 
ATOM     29  C   UNL     1       2.337   6.529  20.031  0.00  0.00    +0.000 C 
ATOM     30  C   UNL     1       3.891   4.809  19.100  0.00  0.00    +0.000 A 
ATOM     31  N   UNL     1       5.001   5.552  18.808  0.00  0.00    +0.000 N 
ATOM     32  H   UNL     1       5.133   6.548  18.913  0.00  0.00    +0.000 HD
ENDBRANCH  18  19
ENDBRANCH  17  18
ENDBRANCH   2  17
TORSDOF 6
ENDMDL
MODEL 7
REMARK VINA RESULT:      -7.2      1.100      1.112
REMARK  Name = 
REMARK  9 active torsions:
REMARK  status: ('A' for Active; 'I' for Inactive)
REMARK    1  A    between atoms: C_1  and  O_2
REMARK    2  A    between atoms: O_2  and  C_3
REMARK    3  A    between atoms: C_6  and  C_7
REMARK    4  A    between atoms: N_9  and  N_10
REMARK    5  A    between atoms: C_11  and  C_13
REMARK    6  A    between atoms: C_13  and  S_14
REMARK    7  A    between atoms: S_14  and  C_15
REMARK    8  A    between atoms: N_20  and  C_21
REMARK    9  A    between atoms: N_24  and  C_25
REMARK                            x       y       z     vdW  Elec       q    Type
REMARK                         _______ _______ _______ _____ _____    ______ ____
ROOT
ATOM      1  N   UNL     1       1.886   4.618  18.045  0.00  0.00    +0.000 N 
ATOM      2  C   UNL     1       1.380   3.538  18.757  0.00  0.00    +0.000 C 
ATOM      3  O   UNL     1       0.676   3.704  19.756  0.00  0.00    +0.000 OA
ATOM      4  H   UNL     1       2.452   4.562  17.201  0.00  0.00    +0.000 HD
ENDROOT
BRANCH   1   7
ATOM      5  C   UNL     1       2.367   6.986  18.229  0.00  0.00    +0.000 C 
ATOM      6  O   UNL     1       3.431   6.843  17.636  0.00  0.00    +0.000 OA
ATOM      7  N   UNL     1       1.516   5.916  18.473  0.00  0.00    +0.000 N 
ATOM      8  H   UNL     1       0.645   5.969  18.982  0.00  0.00    +0.000 HD
BRANCH   5  12
ATOM      9  C   UNL     1       1.103  10.845  19.768  0.00  0.00    +0.000 A 
ATOM     10  C   UNL     1       1.041   9.694  20.553  0.00  0.00    +0.000 A 
ATOM     11  C   UNL     1       1.468   8.458  20.041  0.00  0.00    +0.000 A 
ATOM     12  C   UNL     1       1.943   8.346  18.727  0.00  0.00    +0.000 A 
ATOM     13  C   UNL     1       1.998   9.507  17.943  0.00  0.00    +0.000 A 
ATOM     14  C   UNL     1       1.577  10.748  18.461  0.00  0.00    +0.000 A 
BRANCH   9  16
ATOM     15  C   UNL     1       1.465  13.149  20.185  0.00  0.00    +0.000 C 
ATOM     16  O   UNL     1       0.653  11.991  20.362  0.00  0.00    +0.000 OA
ENDBRANCH   9  16
ENDBRANCH   5  12
ENDBRANCH   1   7
BRANCH   2  17
ATOM     17  C   UNL     1       1.805   2.163  18.245  0.00  0.00    +0.000 C 
BRANCH  17  18
ATOM     18  S   UNL     1       3.318   1.551  19.083  0.00  0.00    +0.000 S 
BRANCH  18  19
ATOM     19  C   UNL     1       4.490   2.755  18.685  0.00  0.00    +0.000 A 
ATOM     20  N   UNL     1       5.230   3.449  19.515  0.00  0.00    +0.000 NA
ATOM     21  C   UNL     1       5.919   4.335  18.710  0.00  0.00    +0.000 A 
ATOM     22  C   UNL     1       6.820   5.390  19.125  0.00  0.00    +0.000 A 
ATOM     23  O   UNL     1       7.083   5.592  20.305  0.00  0.00    +0.000 OA
ATOM     24  N   UNL     1       7.339   6.155  18.080  0.00  0.00    +0.000 N 
ATOM     25  C   UNL     1       8.256   7.236  18.404  0.00  0.00    +0.000 C 
ATOM     26  C   UNL     1       7.051   5.990  16.733  0.00  0.00    +0.000 A 
ATOM     27  O   UNL     1       7.505   6.680  15.828  0.00  0.00    +0.000 OA
ATOM     28  N   UNL     1       6.139   4.922  16.383  0.00  0.00    +0.000 N 
ATOM     29  C   UNL     1       5.803   4.712  14.970  0.00  0.00    +0.000 C 
ATOM     30  C   UNL     1       5.608   4.140  17.394  0.00  0.00    +0.000 A 
ATOM     31  N   UNL     1       4.714   3.105  17.374  0.00  0.00    +0.000 N 
ATOM     32  H   UNL     1       4.234   2.708  16.580  0.00  0.00    +0.000 HD
ENDBRANCH  18  19
ENDBRANCH  17  18
ENDBRANCH   2  17
TORSDOF 6
ENDMDL
MODEL 8
REMARK VINA RESULT:      -7.2      1.340      1.432
REMARK  Name = 
REMARK  9 active torsions:
REMARK  status: ('A' for Active; 'I' for Inactive)
REMARK    1  A    between atoms: C_1  and  O_2
REMARK    2  A    between atoms: O_2  and  C_3
REMARK    3  A    between atoms: C_6  and  C_7
REMARK    4  A    between atoms: N_9  and  N_10
REMARK    5  A    between atoms: C_11  and  C_13
REMARK    6  A    between atoms: C_13  and  S_14
REMARK    7  A    between atoms: S_14  and  C_15
REMARK    8  A    between atoms: N_20  and  C_21
REMARK    9  A    between atoms: N_24  and  C_25
REMARK                            x       y       z     vdW  Elec       q    Type
REMARK                         _______ _______ _______ _____ _____    ______ ____
ROOT
ATOM      1  N   UNL     1       1.470   4.391  20.053  0.00  0.00    +0.000 N 
ATOM      2  C   UNL     1       2.250   3.664  20.943  0.00  0.00    +0.000 C 
ATOM      3  O   UNL     1       2.645   4.160  22.000  0.00  0.00    +0.000 OA
ATOM      4  H   UNL     1       1.087   4.045  19.176  0.00  0.00    +0.000 HD
ENDROOT
BRANCH   1   7
ATOM      5  C   UNL     1       1.818   6.787  19.941  0.00  0.00    +0.000 C 
ATOM      6  O   UNL     1       2.764   6.641  19.175  0.00  0.00    +0.000 OA
ATOM      7  N   UNL     1       1.098   5.705  20.430  0.00  0.00    +0.000 N 
ATOM      8  H   UNL     1       0.332   5.763  21.085  0.00  0.00    +0.000 HD
BRANCH   5  12
ATOM      9  C   UNL     1       0.593  10.707  21.350  0.00  0.00    +0.000 A 
ATOM     10  C   UNL     1       0.696   9.623  22.220  0.00  0.00    +0.000 A 
ATOM     11  C   UNL     1       1.108   8.366  21.746  0.00  0.00    +0.000 A 
ATOM     12  C   UNL     1       1.401   8.166  20.390  0.00  0.00    +0.000 A 
ATOM     13  C   UNL     1       1.291   9.261  19.522  0.00  0.00    +0.000 A 
ATOM     14  C   UNL     1       0.886  10.523  20.000  0.00  0.00    +0.000 A 
BRANCH   9  16
ATOM     15  C   UNL     1      -1.020  11.811  22.688  0.00  0.00    +0.000 C 
ATOM     16  O   UNL     1       0.175  11.880  21.915  0.00  0.00    +0.000 OA
ENDBRANCH   9  16
ENDBRANCH   5  12
ENDBRANCH   1   7
BRANCH   2  17
ATOM     17  C   UNL     1       2.613   2.251  20.488  0.00  0.00    +0.000 C 
BRANCH  17  18
ATOM     18  S   UNL     1       2.977   2.176  18.692  0.00  0.00    +0.000 S 
BRANCH  18  19
ATOM     19  C   UNL     1       4.212   3.366  18.501  0.00  0.00    +0.000 A 
ATOM     20  N   UNL     1       5.201   3.625  19.323  0.00  0.00    +0.000 NA
ATOM     21  C   UNL     1       5.839   4.715  18.768  0.00  0.00    +0.000 A 
ATOM     22  C   UNL     1       6.955   5.461  19.314  0.00  0.00    +0.000 A 
ATOM     23  O   UNL     1       7.477   5.157  20.381  0.00  0.00    +0.000 OA
ATOM     24  N   UNL     1       7.362   6.548  18.540  0.00  0.00    +0.000 N 
ATOM     25  C   UNL     1       8.479   7.351  19.012  0.00  0.00    +0.000 C 
ATOM     26  C   UNL     1       6.787   6.953  17.345  0.00  0.00    +0.000 A 
ATOM     27  O   UNL     1       7.148   7.920  16.684  0.00  0.00    +0.000 OA
ATOM     28  N   UNL     1       5.673   6.171  16.855  0.00  0.00    +0.000 N 
ATOM     29  C   UNL     1       5.031   6.565  15.595  0.00  0.00    +0.000 C 
ATOM     30  C   UNL     1       5.244   5.083  17.594  0.00  0.00    +0.000 A 
ATOM     31  N   UNL     1       4.218   4.198  17.407  0.00  0.00    +0.000 N 
ATOM     32  H   UNL     1       3.534   4.182  16.665  0.00  0.00    +0.000 HD
ENDBRANCH  18  19
ENDBRANCH  17  18
ENDBRANCH   2  17
TORSDOF 6
ENDMDL
MODEL 9
REMARK VINA RESULT:      -7.1      5.385      7.920
REMARK  Name = 
REMARK  9 active torsions:
REMARK  status: ('A' for Active; 'I' for Inactive)
REMARK    1  A    between atoms: C_1  and  O_2
REMARK    2  A    between atoms: O_2  and  C_3
REMARK    3  A    between atoms: C_6  and  C_7
REMARK    4  A    between atoms: N_9  and  N_10
REMARK    5  A    between atoms: C_11  and  C_13
REMARK    6  A    between atoms: C_13  and  S_14
REMARK    7  A    between atoms: S_14  and  C_15
REMARK    8  A    between atoms: N_20  and  C_21
REMARK    9  A    between atoms: N_24  and  C_25
REMARK                            x       y       z     vdW  Elec       q    Type
REMARK                         _______ _______ _______ _____ _____    ______ ____
ROOT
ATOM      1  N   UNL     1       8.985   9.530  18.801  0.00  0.00    +0.000 N 
ATOM      2  C   UNL     1       8.162   8.677  18.077  0.00  0.00    +0.000 C 
ATOM      3  O   UNL     1       7.434   9.102  17.177  0.00  0.00    +0.000 OA
ATOM      4  H   UNL     1       9.628   9.253  19.539  0.00  0.00    +0.000 HD
ENDROOT
BRANCH   1   7
ATOM      5  C   UNL     1      10.146  11.652  18.644  0.00  0.00    +0.000 C 
ATOM      6  O   UNL     1      11.159  11.164  19.131  0.00  0.00    +0.000 OA
ATOM      7  N   UNL     1       8.999  10.897  18.432  0.00  0.00    +0.000 N 
ATOM      8  H   UNL     1       8.128  11.252  18.064  0.00  0.00    +0.000 HD
BRANCH   5  12
ATOM      9  C   UNL     1      10.141  15.834  17.473  0.00  0.00    +0.000 A 
ATOM     10  C   UNL     1      11.116  14.951  17.011  0.00  0.00    +0.000 A 
ATOM     11  C   UNL     1      11.092  13.599  17.390  0.00  0.00    +0.000 A 
ATOM     12  C   UNL     1      10.105  13.111  18.258  0.00  0.00    +0.000 A 
ATOM     13  C   UNL     1       9.130  14.005  18.721  0.00  0.00    +0.000 A 
ATOM     14  C   UNL     1       9.152  15.360  18.332  0.00  0.00    +0.000 A 
BRANCH   9  16
ATOM     15  C   UNL     1       9.590  18.110  17.830  0.00  0.00    +0.000 C 
ATOM     16  O   UNL     1      10.266  17.127  17.049  0.00  0.00    +0.000 OA
ENDBRANCH   9  16
ENDBRANCH   5  12
ENDBRANCH   1   7
BRANCH   2  17
ATOM     17  C   UNL     1       8.194   7.214  18.514  0.00  0.00    +0.000 C 
BRANCH  17  18
ATOM     18  S   UNL     1       7.330   6.118  17.323  0.00  0.00    +0.000 S 
BRANCH  18  19
ATOM     19  C   UNL     1       6.042   5.466  18.267  0.00  0.00    +0.000 A 
ATOM     20  N   UNL     1       5.950   4.254  18.758  0.00  0.00    +0.000 NA
ATOM     21  C   UNL     1       4.700   4.207  19.341  0.00  0.00    +0.000 A 
ATOM     22  C   UNL     1       4.054   3.068  19.962  0.00  0.00    +0.000 A 
ATOM     23  O   UNL     1       4.606   1.977  20.048  0.00  0.00    +0.000 OA
ATOM     24  N   UNL     1       2.764   3.316  20.430  0.00  0.00    +0.000 N 
ATOM     25  C   UNL     1       2.042   2.229  21.072  0.00  0.00    +0.000 C 
ATOM     26  C   UNL     1       2.082   4.519  20.331  0.00  0.00    +0.000 A 
ATOM     27  O   UNL     1       0.941   4.716  20.735  0.00  0.00    +0.000 OA
ATOM     28  N   UNL     1       2.777   5.617  19.695  0.00  0.00    +0.000 N 
ATOM     29  C   UNL     1       2.094   6.909  19.565  0.00  0.00    +0.000 C 
ATOM     30  C   UNL     1       4.061   5.409  19.222  0.00  0.00    +0.000 A 
ATOM     31  N   UNL     1       4.935   6.227  18.560  0.00  0.00    +0.000 N 
ATOM     32  H   UNL     1       4.794   7.181  18.260  0.00  0.00    +0.000 HD
ENDBRANCH  18  19
ENDBRANCH  17  18
ENDBRANCH   2  17
TORSDOF 6
ENDMDL
