MODEL 1
REMARK VINA RESULT:      -5.9      0.000      0.000
REMARK  Name = 
REMARK  14 active torsions:
REMARK  status: ('A' for Active; 'I' for Inactive)
REMARK    1  A    between atoms: C_1  and  C_2
REMARK    2  A    between atoms: C_2  and  O_3
REMARK    3  A    between atoms: O_3  and  P_4
REMARK    4  A    between atoms: P_4  and  N_6
REMARK    5  A    between atoms: P_4  and  O_15
REMARK    6  A    between atoms: N_6  and  P_7
REMARK    7  A    between atoms: P_7  and  O_9
REMARK    8  A    between atoms: P_7  and  O_12
REMARK    9  A    between atoms: O_9  and  C_10
REMARK   10  A    between atoms: C_10  and  C_11
REMARK   11  A    between atoms: O_12  and  C_13
REMARK   12  A    between atoms: C_13  and  C_14
REMARK   13  A    between atoms: O_15  and  C_16
REMARK   14  A    between atoms: C_16  and  C_17
REMARK                            x       y       z     vdW  Elec       q    Type
REMARK                         _______ _______ _______ _____ _____    ______ ____
ROOT
ATOM      1  N   UNL     1       5.512   3.790  16.750  0.00  0.00    +0.000 NA
ATOM      2  H   UNL     1       4.995   3.929  15.907  0.00  0.00    +0.000 HD
ENDROOT
BRANCH   1   3
ATOM      3  P   UNL     1       4.612   3.829  18.117  0.00  0.00    +0.000 P 
ATOM      4  O   UNL     1       5.229   3.467  19.434  0.00  0.00    +0.000 OA
BRANCH   3   5
ATOM      5  O   UNL     1       3.134   3.265  17.824  0.00  0.00    +0.000 OA
BRANCH   5   7
ATOM      6  C   UNL     1       1.043   2.467  18.693  0.00  0.00    +0.000 C 
ATOM      7  C   UNL     1       2.524   2.182  18.540  0.00  0.00    +0.000 C 
ENDBRANCH   5   7
ENDBRANCH   3   5
BRANCH   3   8
ATOM      8  O   UNL     1       4.244   5.420  18.219  0.00  0.00    +0.000 OA
BRANCH   8   9
ATOM      9  C   UNL     1       2.894   5.844  18.289  0.00  0.00    +0.000 C 
ATOM     10  C   UNL     1       2.432   6.196  19.677  0.00  0.00    +0.000 C 
ENDBRANCH   8   9
ENDBRANCH   3   8
ENDBRANCH   1   3
BRANCH   1  11
ATOM     11  P   UNL     1       6.554   5.232  16.718  0.00  0.00    +0.000 P 
ATOM     12  O   UNL     1       7.857   4.440  16.722  0.00  0.00    +0.000 OA
BRANCH  11  13
ATOM     13  O   UNL     1       6.281   5.439  15.102  0.00  0.00    +0.000 OA
BRANCH  13  14
ATOM     14  C   UNL     1       7.037   4.818  14.086  0.00  0.00    +0.000 C 
ATOM     15  C   UNL     1       6.146   3.821  13.361  0.00  0.00    +0.000 C 
ENDBRANCH  13  14
ENDBRANCH  11  13
BRANCH  11  16
ATOM     16  O   UNL     1       7.567   6.634  16.687  0.00  0.00    +0.000 OA
BRANCH  16  17
ATOM     17  C   UNL     1       7.787   7.235  17.948  0.00  0.00    +0.000 C 
ATOM     18  C   UNL     1       7.942   8.729  17.744  0.00  0.00    +0.000 C 
ENDBRANCH  16  17
ENDBRANCH  11  16
ENDBRANCH   1  11
TORSDOF 10
ENDMDL
MODEL 2
REMARK VINA RESULT:      -5.6      1.118      5.877
REMARK  Name = 
REMARK  14 active torsions:
REMARK  status: ('A' for Active; 'I' for Inactive)
REMARK    1  A    between atoms: C_1  and  C_2
REMARK    2  A    between atoms: C_2  and  O_3
REMARK    3  A    between atoms: O_3  and  P_4
REMARK    4  A    between atoms: P_4  and  N_6
REMARK    5  A    between atoms: P_4  and  O_15
REMARK    6  A    between atoms: N_6  and  P_7
REMARK    7  A    between atoms: P_7  and  O_9
REMARK    8  A    between atoms: P_7  and  O_12
REMARK    9  A    between atoms: O_9  and  C_10
REMARK   10  A    between atoms: C_10  and  C_11
REMARK   11  A    between atoms: O_12  and  C_13
REMARK   12  A    between atoms: C_13  and  C_14
REMARK   13  A    between atoms: O_15  and  C_16
REMARK   14  A    between atoms: C_16  and  C_17
REMARK                            x       y       z     vdW  Elec       q    Type
REMARK                         _______ _______ _______ _____ _____    ______ ____
ROOT
ATOM      1  N   UNL     1       6.500   4.802  18.959  0.00  0.00    +0.000 NA
ATOM      2  H   UNL     1       6.288   5.614  19.500  0.00  0.00    +0.000 HD
ENDROOT
BRANCH   1   3
ATOM      3  P   UNL     1       7.167   5.111  17.496  0.00  0.00    +0.000 P 
ATOM      4  O   UNL     1       8.200   4.184  16.930  0.00  0.00    +0.000 OA
BRANCH   3   5
ATOM      5  O   UNL     1       7.436   6.689  17.332  0.00  0.00    +0.000 OA
BRANCH   5   7
ATOM      6  C   UNL     1       8.074   8.945  17.849  0.00  0.00    +0.000 C 
ATOM      7  C   UNL     1       8.130   7.497  18.293  0.00  0.00    +0.000 C 
ENDBRANCH   5   7
ENDBRANCH   3   5
BRANCH   3   8
ATOM      8  O   UNL     1       5.867   4.986  16.511  0.00  0.00    +0.000 OA
BRANCH   8   9
ATOM      9  C   UNL     1       5.968   5.325  15.139  0.00  0.00    +0.000 C 
ATOM     10  C   UNL     1       5.898   4.144  14.208  0.00  0.00    +0.000 C 
ENDBRANCH   8   9
ENDBRANCH   3   8
ENDBRANCH   1   3
BRANCH   1  11
ATOM     11  P   UNL     1       4.859   4.160  18.706  0.00  0.00    +0.000 P 
ATOM     12  O   UNL     1       4.982   3.086  19.781  0.00  0.00    +0.000 OA
BRANCH  11  13
ATOM     13  O   UNL     1       4.198   5.418  19.549  0.00  0.00    +0.000 OA
BRANCH  13  14
ATOM     14  C   UNL     1       3.018   6.091  19.170  0.00  0.00    +0.000 C 
ATOM     15  C   UNL     1       3.345   7.030  18.019  0.00  0.00    +0.000 C 
ENDBRANCH  13  14
ENDBRANCH  11  13
BRANCH  11  16
ATOM     16  O   UNL     1       3.264   3.536  18.460  0.00  0.00    +0.000 OA
BRANCH  16  17
ATOM     17  C   UNL     1       2.957   2.382  19.216  0.00  0.00    +0.000 C 
ATOM     18  C   UNL     1       1.469   2.118  19.099  0.00  0.00    +0.000 C 
ENDBRANCH  16  17
ENDBRANCH  11  16
ENDBRANCH   1  11
TORSDOF 10
ENDMDL
MODEL 3
REMARK VINA RESULT:      -5.6      1.166      2.382
REMARK  Name = 
REMARK  14 active torsions:
REMARK  status: ('A' for Active; 'I' for Inactive)
REMARK    1  A    between atoms: C_1  and  C_2
REMARK    2  A    between atoms: C_2  and  O_3
REMARK    3  A    between atoms: O_3  and  P_4
REMARK    4  A    between atoms: P_4  and  N_6
REMARK    5  A    between atoms: P_4  and  O_15
REMARK    6  A    between atoms: N_6  and  P_7
REMARK    7  A    between atoms: P_7  and  O_9
REMARK    8  A    between atoms: P_7  and  O_12
REMARK    9  A    between atoms: O_9  and  C_10
REMARK   10  A    between atoms: C_10  and  C_11
REMARK   11  A    between atoms: O_12  and  C_13
REMARK   12  A    between atoms: C_13  and  C_14
REMARK   13  A    between atoms: O_15  and  C_16
REMARK   14  A    between atoms: C_16  and  C_17
REMARK                            x       y       z     vdW  Elec       q    Type
REMARK                         _______ _______ _______ _____ _____    ______ ____
ROOT
ATOM      1  N   UNL     1       5.708   3.685  18.461  0.00  0.00    +0.000 NA
ATOM      2  H   UNL     1       6.177   2.900  18.060  0.00  0.00    +0.000 HD
ENDROOT
BRANCH   1   3
ATOM      3  P   UNL     1       4.163   3.887  17.960  0.00  0.00    +0.000 P 
ATOM      4  O   UNL     1       3.791   3.601  16.536  0.00  0.00    +0.000 OA
BRANCH   3   5
ATOM      5  O   UNL     1       3.532   5.207  18.627  0.00  0.00    +0.000 OA
BRANCH   5   7
ATOM      6  C   UNL     1       1.946   5.675  20.368  0.00  0.00    +0.000 C 
ATOM      7  C   UNL     1       3.404   5.419  20.040  0.00  0.00    +0.000 C 
ENDBRANCH   5   7
ENDBRANCH   3   5
BRANCH   3   8
ATOM      8  O   UNL     1       3.380   2.766  18.859  0.00  0.00    +0.000 OA
BRANCH   8   9
ATOM      9  C   UNL     1       2.286   2.046  18.317  0.00  0.00    +0.000 C 
ATOM     10  C   UNL     1       0.942   2.506  18.814  0.00  0.00    +0.000 C 
ENDBRANCH   8   9
ENDBRANCH   3   8
ENDBRANCH   1   3
BRANCH   1  11
ATOM     11  P   UNL     1       6.695   5.009  17.798  0.00  0.00    +0.000 P 
ATOM     12  O   UNL     1       7.959   4.605  18.549  0.00  0.00    +0.000 OA
BRANCH  11  13
ATOM     13  O   UNL     1       6.874   4.206  16.365  0.00  0.00    +0.000 OA
BRANCH  13  14
ATOM     14  C   UNL     1       6.954   4.840  15.108  0.00  0.00    +0.000 C 
ATOM     15  C   UNL     1       6.288   3.947  14.072  0.00  0.00    +0.000 C 
ENDBRANCH  13  14
ENDBRANCH  11  13
BRANCH  11  16
ATOM     16  O   UNL     1       7.654   6.296  17.153  0.00  0.00    +0.000 OA
BRANCH  16  17
ATOM     17  C   UNL     1       7.107   7.588  17.327  0.00  0.00    +0.000 C 
ATOM     18  C   UNL     1       8.160   8.469  17.969  0.00  0.00    +0.000 C 
ENDBRANCH  16  17
ENDBRANCH  11  16
ENDBRANCH   1  11
TORSDOF 10
ENDMDL
MODEL 4
REMARK VINA RESULT:      -5.4      1.380      5.647
REMARK  Name = 
REMARK  14 active torsions:
REMARK  status: ('A' for Active; 'I' for Inactive)
REMARK    1  A    between atoms: C_1  and  C_2
REMARK    2  A    between atoms: C_2  and  O_3
REMARK    3  A    between atoms: O_3  and  P_4
REMARK    4  A    between atoms: P_4  and  N_6
REMARK    5  A    between atoms: P_4  and  O_15
REMARK    6  A    between atoms: N_6  and  P_7
REMARK    7  A    between atoms: P_7  and  O_9
REMARK    8  A    between atoms: P_7  and  O_12
REMARK    9  A    between atoms: O_9  and  C_10
REMARK   10  A    between atoms: C_10  and  C_11
REMARK   11  A    between atoms: O_12  and  C_13
REMARK   12  A    between atoms: C_13  and  C_14
REMARK   13  A    between atoms: O_15  and  C_16
REMARK   14  A    between atoms: C_16  and  C_17
REMARK                            x       y       z     vdW  Elec       q    Type
REMARK                         _______ _______ _______ _____ _____    ______ ____
ROOT
ATOM      1  N   UNL     1       4.890   6.189  17.877  0.00  0.00    +0.000 NA
ATOM      2  H   UNL     1       3.980   6.594  17.955  0.00  0.00    +0.000 HD
ENDROOT
BRANCH   1   3
ATOM      3  P   UNL     1       5.450   6.059  16.345  0.00  0.00    +0.000 P 
ATOM      4  O   UNL     1       4.957   6.995  15.282  0.00  0.00    +0.000 OA
BRANCH   3   5
ATOM      5  O   UNL     1       5.599   4.509  15.939  0.00  0.00    +0.000 OA
BRANCH   5   7
ATOM      6  C   UNL     1       6.072   3.934  13.657  0.00  0.00    +0.000 C 
ATOM      7  C   UNL     1       6.617   3.994  15.070  0.00  0.00    +0.000 C 
ENDBRANCH   5   7
ENDBRANCH   3   5
BRANCH   3   8
ATOM      8  O   UNL     1       7.035   6.407  16.547  0.00  0.00    +0.000 OA
BRANCH   8   9
ATOM      9  C   UNL     1       7.440   7.416  17.457  0.00  0.00    +0.000 C 
ATOM     10  C   UNL     1       8.182   6.896  18.659  0.00  0.00    +0.000 C 
ENDBRANCH   8   9
ENDBRANCH   3   8
ENDBRANCH   1   3
BRANCH   1  11
ATOM     11  P   UNL     1       4.557   4.555  18.498  0.00  0.00    +0.000 P 
ATOM     12  O   UNL     1       5.946   4.369  19.100  0.00  0.00    +0.000 OA
BRANCH  11  13
ATOM     13  O   UNL     1       3.709   5.173  19.775  0.00  0.00    +0.000 OA
BRANCH  13  14
ATOM     14  C   UNL     1       2.429   5.753  19.668  0.00  0.00    +0.000 C 
ATOM     15  C   UNL     1       1.498   5.058  20.651  0.00  0.00    +0.000 C 
ENDBRANCH  13  14
ENDBRANCH  11  13
BRANCH  11  16
ATOM     16  O   UNL     1       4.234   2.967  19.103  0.00  0.00    +0.000 OA
BRANCH  16  17
ATOM     17  C   UNL     1       3.499   2.137  18.225  0.00  0.00    +0.000 C 
ATOM     18  C   UNL     1       2.079   2.031  18.746  0.00  0.00    +0.000 C 
ENDBRANCH  16  17
ENDBRANCH  11  16
ENDBRANCH   1  11
TORSDOF 10
ENDMDL
MODEL 5
REMARK VINA RESULT:      -5.4      1.350      1.451
REMARK  Name = 
REMARK  14 active torsions:
REMARK  status: ('A' for Active; 'I' for Inactive)
REMARK    1  A    between atoms: C_1  and  C_2
REMARK    2  A    between atoms: C_2  and  O_3
REMARK    3  A    between atoms: O_3  and  P_4
REMARK    4  A    between atoms: P_4  and  N_6
REMARK    5  A    between atoms: P_4  and  O_15
REMARK    6  A    between atoms: N_6  and  P_7
REMARK    7  A    between atoms: P_7  and  O_9
REMARK    8  A    between atoms: P_7  and  O_12
REMARK    9  A    between atoms: O_9  and  C_10
REMARK   10  A    between atoms: C_10  and  C_11
REMARK   11  A    between atoms: O_12  and  C_13
REMARK   12  A    between atoms: C_13  and  C_14
REMARK   13  A    between atoms: O_15  and  C_16
REMARK   14  A    between atoms: C_16  and  C_17
REMARK                            x       y       z     vdW  Elec       q    Type
REMARK                         _______ _______ _______ _____ _____    ______ ____
ROOT
ATOM      1  N   UNL     1       5.442   3.642  17.738  0.00  0.00    +0.000 NA
ATOM      2  H   UNL     1       5.020   3.532  16.840  0.00  0.00    +0.000 HD
ENDROOT
BRANCH   1   3
ATOM      3  P   UNL     1       4.412   4.106  18.923  0.00  0.00    +0.000 P 
ATOM      4  O   UNL     1       4.844   5.121  19.939  0.00  0.00    +0.000 OA
BRANCH   3   5
ATOM      5  O   UNL     1       3.585   2.838  19.465  0.00  0.00    +0.000 OA
BRANCH   5   7
ATOM      6  C   UNL     1       2.373   2.920  21.536  0.00  0.00    +0.000 C 
ATOM      7  C   UNL     1       2.266   2.911  20.024  0.00  0.00    +0.000 C 
ENDBRANCH   5   7
ENDBRANCH   3   5
BRANCH   3   8
ATOM      8  O   UNL     1       3.220   4.819  18.058  0.00  0.00    +0.000 OA
BRANCH   8   9
ATOM      9  C   UNL     1       2.709   6.083  18.444  0.00  0.00    +0.000 C 
ATOM     10  C   UNL     1       3.319   7.244  17.705  0.00  0.00    +0.000 C 
ENDBRANCH   8   9
ENDBRANCH   3   8
ENDBRANCH   1   3
BRANCH   1  11
ATOM     11  P   UNL     1       6.553   4.990  17.396  0.00  0.00    +0.000 P 
ATOM     12  O   UNL     1       7.655   4.475  18.316  0.00  0.00    +0.000 OA
BRANCH  11  13
ATOM     13  O   UNL     1       6.976   4.322  15.945  0.00  0.00    +0.000 OA
BRANCH  13  14
ATOM     14  C   UNL     1       6.713   4.916  14.694  0.00  0.00    +0.000 C 
ATOM     15  C   UNL     1       6.055   3.880  13.794  0.00  0.00    +0.000 C 
ENDBRANCH  13  14
ENDBRANCH  11  13
BRANCH  11  16
ATOM     16  O   UNL     1       7.633   6.300  17.063  0.00  0.00    +0.000 OA
BRANCH  16  17
ATOM     17  C   UNL     1       7.121   7.582  17.365  0.00  0.00    +0.000 C 
ATOM     18  C   UNL     1       8.221   8.395  18.016  0.00  0.00    +0.000 C 
ENDBRANCH  16  17
ENDBRANCH  11  16
ENDBRANCH   1  11
TORSDOF 10
ENDMDL
MODEL 6
REMARK VINA RESULT:      -5.4      1.669      5.696
REMARK  Name = 
REMARK  14 active torsions:
REMARK  status: ('A' for Active; 'I' for Inactive)
REMARK    1  A    between atoms: C_1  and  C_2
REMARK    2  A    between atoms: C_2  and  O_3
REMARK    3  A    between atoms: O_3  and  P_4
REMARK    4  A    between atoms: P_4  and  N_6
REMARK    5  A    between atoms: P_4  and  O_15
REMARK    6  A    between atoms: N_6  and  P_7
REMARK    7  A    between atoms: P_7  and  O_9
REMARK    8  A    between atoms: P_7  and  O_12
REMARK    9  A    between atoms: O_9  and  C_10
REMARK   10  A    between atoms: C_10  and  C_11
REMARK   11  A    between atoms: O_12  and  C_13
REMARK   12  A    between atoms: C_13  and  C_14
REMARK   13  A    between atoms: O_15  and  C_16
REMARK   14  A    between atoms: C_16  and  C_17
REMARK                            x       y       z     vdW  Elec       q    Type
REMARK                         _______ _______ _______ _____ _____    ______ ____
ROOT
ATOM      1  N   UNL     1       4.543   5.767  17.395  0.00  0.00    +0.000 NA
ATOM      2  H   UNL     1       4.159   5.543  16.501  0.00  0.00    +0.000 HD
ENDROOT
BRANCH   1   3
ATOM      3  P   UNL     1       5.923   4.965  17.763  0.00  0.00    +0.000 P 
ATOM      4  O   UNL     1       5.997   4.129  19.005  0.00  0.00    +0.000 OA
BRANCH   3   5
ATOM      5  O   UNL     1       7.202   5.878  17.421  0.00  0.00    +0.000 OA
BRANCH   5   7
ATOM      6  C   UNL     1       7.890   8.163  17.686  0.00  0.00    +0.000 C 
ATOM      7  C   UNL     1       7.810   6.798  18.339  0.00  0.00    +0.000 C 
ENDBRANCH   5   7
ENDBRANCH   3   5
BRANCH   3   8
ATOM      8  O   UNL     1       6.034   3.917  16.511  0.00  0.00    +0.000 OA
BRANCH   8   9
ATOM      9  C   UNL     1       6.688   4.295  15.312  0.00  0.00    +0.000 C 
ATOM     10  C   UNL     1       5.846   4.131  14.076  0.00  0.00    +0.000 C 
ENDBRANCH   8   9
ENDBRANCH   3   8
ENDBRANCH   1   3
BRANCH   1  11
ATOM     11  P   UNL     1       3.243   5.168  18.453  0.00  0.00    +0.000 P 
ATOM     12  O   UNL     1       2.274   6.292  18.100  0.00  0.00    +0.000 OA
BRANCH  11  13
ATOM     13  O   UNL     1       2.835   4.004  17.354  0.00  0.00    +0.000 OA
BRANCH  13  14
ATOM     14  C   UNL     1       2.336   2.731  17.698  0.00  0.00    +0.000 C 
ATOM     15  C   UNL     1       3.512   1.819  18.014  0.00  0.00    +0.000 C 
ENDBRANCH  13  14
ENDBRANCH  11  13
BRANCH  11  16
ATOM     16  O   UNL     1       1.979   4.587  19.480  0.00  0.00    +0.000 OA
BRANCH  16  17
ATOM     17  C   UNL     1       2.207   4.772  20.863  0.00  0.00    +0.000 C 
ATOM     18  C   UNL     1       2.076   3.428  21.552  0.00  0.00    +0.000 C 
ENDBRANCH  16  17
ENDBRANCH  11  16
ENDBRANCH   1  11
TORSDOF 10
ENDMDL
MODEL 7
REMARK VINA RESULT:      -5.4      1.041      6.088
REMARK  Name = 
REMARK  14 active torsions:
REMARK  status: ('A' for Active; 'I' for Inactive)
REMARK    1  A    between atoms: C_1  and  C_2
REMARK    2  A    between atoms: C_2  and  O_3
REMARK    3  A    between atoms: O_3  and  P_4
REMARK    4  A    between atoms: P_4  and  N_6
REMARK    5  A    between atoms: P_4  and  O_15
REMARK    6  A    between atoms: N_6  and  P_7
REMARK    7  A    between atoms: P_7  and  O_9
REMARK    8  A    between atoms: P_7  and  O_12
REMARK    9  A    between atoms: O_9  and  C_10
REMARK   10  A    between atoms: C_10  and  C_11
REMARK   11  A    between atoms: O_12  and  C_13
REMARK   12  A    between atoms: C_13  and  C_14
REMARK   13  A    between atoms: O_15  and  C_16
REMARK   14  A    between atoms: C_16  and  C_17
REMARK                            x       y       z     vdW  Elec       q    Type
REMARK                         _______ _______ _______ _____ _____    ______ ____
ROOT
ATOM      1  N   UNL     1       5.354   6.061  17.415  0.00  0.00    +0.000 NA
ATOM      2  H   UNL     1       4.618   6.101  16.742  0.00  0.00    +0.000 HD
ENDROOT
BRANCH   1   3
ATOM      3  P   UNL     1       6.842   5.796  16.786  0.00  0.00    +0.000 P 
ATOM      4  O   UNL     1       7.530   4.483  17.009  0.00  0.00    +0.000 OA
BRANCH   3   5
ATOM      5  O   UNL     1       7.742   7.123  16.915  0.00  0.00    +0.000 OA
BRANCH   5   7
ATOM      6  C   UNL     1       8.196   9.238  17.956  0.00  0.00    +0.000 C 
ATOM      7  C   UNL     1       8.103   7.739  18.159  0.00  0.00    +0.000 C 
ENDBRANCH   5   7
ENDBRANCH   3   5
BRANCH   3   8
ATOM      8  O   UNL     1       6.534   5.871  15.181  0.00  0.00    +0.000 OA
BRANCH   8   9
ATOM      9  C   UNL     1       6.948   4.825  14.319  0.00  0.00    +0.000 C 
ATOM     10  C   UNL     1       5.832   3.920  13.870  0.00  0.00    +0.000 C 
ENDBRANCH   8   9
ENDBRANCH   3   8
ENDBRANCH   1   3
BRANCH   1  11
ATOM     11  P   UNL     1       4.862   4.615  18.329  0.00  0.00    +0.000 P 
ATOM     12  O   UNL     1       5.498   5.076  19.637  0.00  0.00    +0.000 OA
BRANCH  11  13
ATOM     13  O   UNL     1       3.319   5.188  18.476  0.00  0.00    +0.000 OA
BRANCH  13  14
ATOM     14  C   UNL     1       2.935   6.205  19.374  0.00  0.00    +0.000 C 
ATOM     15  C   UNL     1       2.009   5.602  20.420  0.00  0.00    +0.000 C 
ENDBRANCH  13  14
ENDBRANCH  11  13
BRANCH  11  16
ATOM     16  O   UNL     1       4.384   3.210  19.218  0.00  0.00    +0.000 OA
BRANCH  16  17
ATOM     17  C   UNL     1       3.606   2.283  18.487  0.00  0.00    +0.000 C 
ATOM     18  C   UNL     1       2.325   2.025  19.254  0.00  0.00    +0.000 C 
ENDBRANCH  16  17
ENDBRANCH  11  16
ENDBRANCH   1  11
TORSDOF 10
ENDMDL
MODEL 8
REMARK VINA RESULT:      -5.4      1.306      5.913
REMARK  Name = 
REMARK  14 active torsions:
REMARK  status: ('A' for Active; 'I' for Inactive)
REMARK    1  A    between atoms: C_1  and  C_2
REMARK    2  A    between atoms: C_2  and  O_3
REMARK    3  A    between atoms: O_3  and  P_4
REMARK    4  A    between atoms: P_4  and  N_6
REMARK    5  A    between atoms: P_4  and  O_15
REMARK    6  A    between atoms: N_6  and  P_7
REMARK    7  A    between atoms: P_7  and  O_9
REMARK    8  A    between atoms: P_7  and  O_12
REMARK    9  A    between atoms: O_9  and  C_10
REMARK   10  A    between atoms: C_10  and  C_11
REMARK   11  A    between atoms: O_12  and  C_13
REMARK   12  A    between atoms: C_13  and  C_14
REMARK   13  A    between atoms: O_15  and  C_16
REMARK   14  A    between atoms: C_16  and  C_17
REMARK                            x       y       z     vdW  Elec       q    Type
REMARK                         _______ _______ _______ _____ _____    ______ ____
ROOT
ATOM      1  N   UNL     1       6.046   4.470  19.066  0.00  0.00    +0.000 NA
ATOM      2  H   UNL     1       5.590   5.253  19.485  0.00  0.00    +0.000 HD
ENDROOT
BRANCH   1   3
ATOM      3  P   UNL     1       6.749   4.783  17.620  0.00  0.00    +0.000 P 
ATOM      4  O   UNL     1       8.099   4.215  17.302  0.00  0.00    +0.000 OA
BRANCH   3   5
ATOM      5  O   UNL     1       6.481   6.311  17.193  0.00  0.00    +0.000 OA
BRANCH   5   7
ATOM      6  C   UNL     1       8.150   7.352  18.570  0.00  0.00    +0.000 C 
ATOM      7  C   UNL     1       7.477   7.343  17.212  0.00  0.00    +0.000 C 
ENDBRANCH   5   7
ENDBRANCH   3   5
BRANCH   3   8
ATOM      8  O   UNL     1       5.706   4.059  16.588  0.00  0.00    +0.000 OA
BRANCH   8   9
ATOM      9  C   UNL     1       5.452   4.619  15.312  0.00  0.00    +0.000 C 
ATOM     10  C   UNL     1       6.262   4.008  14.200  0.00  0.00    +0.000 C 
ENDBRANCH   8   9
ENDBRANCH   3   8
ENDBRANCH   1   3
BRANCH   1  11
ATOM     11  P   UNL     1       4.648   3.403  18.795  0.00  0.00    +0.000 P 
ATOM     12  O   UNL     1       4.986   2.466  19.949  0.00  0.00    +0.000 OA
BRANCH  11  13
ATOM     13  O   UNL     1       3.634   4.488  19.518  0.00  0.00    +0.000 OA
BRANCH  13  14
ATOM     14  C   UNL     1       3.763   5.887  19.407  0.00  0.00    +0.000 C 
ATOM     15  C   UNL     1       2.402   6.521  19.658  0.00  0.00    +0.000 C 
ENDBRANCH  13  14
ENDBRANCH  11  13
BRANCH  11  16
ATOM     16  O   UNL     1       3.289   2.365  18.532  0.00  0.00    +0.000 OA
BRANCH  16  17
ATOM     17  C   UNL     1       2.285   2.442  19.524  0.00  0.00    +0.000 C 
ATOM     18  C   UNL     1       0.934   2.436  18.837  0.00  0.00    +0.000 C 
ENDBRANCH  16  17
ENDBRANCH  11  16
ENDBRANCH   1  11
TORSDOF 10
ENDMDL
MODEL 9
REMARK VINA RESULT:      -5.4      1.664      2.453
REMARK  Name = 
REMARK  14 active torsions:
REMARK  status: ('A' for Active; 'I' for Inactive)
REMARK    1  A    between atoms: C_1  and  C_2
REMARK    2  A    between atoms: C_2  and  O_3
REMARK    3  A    between atoms: O_3  and  P_4
REMARK    4  A    between atoms: P_4  and  N_6
REMARK    5  A    between atoms: P_4  and  O_15
REMARK    6  A    between atoms: N_6  and  P_7
REMARK    7  A    between atoms: P_7  and  O_9
REMARK    8  A    between atoms: P_7  and  O_12
REMARK    9  A    between atoms: O_9  and  C_10
REMARK   10  A    between atoms: C_10  and  C_11
REMARK   11  A    between atoms: O_12  and  C_13
REMARK   12  A    between atoms: C_13  and  C_14
REMARK   13  A    between atoms: O_15  and  C_16
REMARK   14  A    between atoms: C_16  and  C_17
REMARK                            x       y       z     vdW  Elec       q    Type
REMARK                         _______ _______ _______ _____ _____    ______ ____
ROOT
ATOM      1  N   UNL     1       5.621   4.198  19.022  0.00  0.00    +0.000 NA
ATOM      2  H   UNL     1       5.739   3.428  18.398  0.00  0.00    +0.000 HD
ENDROOT
BRANCH   1   3
ATOM      3  P   UNL     1       4.105   4.816  19.064  0.00  0.00    +0.000 P 
ATOM      4  O   UNL     1       3.862   6.239  18.661  0.00  0.00    +0.000 OA
BRANCH   3   5
ATOM      5  O   UNL     1       3.326   4.283  20.366  0.00  0.00    +0.000 OA
BRANCH   5   7
ATOM      6  C   UNL     1       1.013   3.658  20.520  0.00  0.00    +0.000 C 
ATOM      7  C   UNL     1       2.034   4.747  20.783  0.00  0.00    +0.000 C 
ENDBRANCH   5   7
ENDBRANCH   3   5
BRANCH   3   8
ATOM      8  O   UNL     1       3.349   3.898  17.939  0.00  0.00    +0.000 OA
BRANCH   8   9
ATOM      9  C   UNL     1       3.847   2.614  17.605  0.00  0.00    +0.000 C 
ATOM     10  C   UNL     1       3.291   1.501  18.452  0.00  0.00    +0.000 C 
ENDBRANCH   8   9
ENDBRANCH   3   8
ENDBRANCH   1   3
BRANCH   1  11
ATOM     11  P   UNL     1       6.695   5.390  18.251  0.00  0.00    +0.000 P 
ATOM     12  O   UNL     1       7.870   5.115  19.182  0.00  0.00    +0.000 OA
BRANCH  11  13
ATOM     13  O   UNL     1       7.000   4.358  16.997  0.00  0.00    +0.000 OA
BRANCH  13  14
ATOM     14  C   UNL     1       7.043   4.749  15.643  0.00  0.00    +0.000 C 
ATOM     15  C   UNL     1       5.682   4.483  15.018  0.00  0.00    +0.000 C 
ENDBRANCH  13  14
ENDBRANCH  11  13
BRANCH  11  16
ATOM     16  O   UNL     1       7.738   6.548  17.501  0.00  0.00    +0.000 OA
BRANCH  16  17
ATOM     17  C   UNL     1       8.236   7.547  18.369  0.00  0.00    +0.000 C 
ATOM     18  C   UNL     1       7.991   8.899  17.731  0.00  0.00    +0.000 C 
ENDBRANCH  16  17
ENDBRANCH  11  16
ENDBRANCH   1  11
TORSDOF 10
ENDMDL
