MODEL 1
REMARK VINA RESULT:      -9.1      0.000      0.000
REMARK  Name = 
REMARK  6 active torsions:
REMARK  status: ('A' for Active; 'I' for Inactive)
REMARK    1  A    between atoms: C_1  and  N_2
REMARK    2  A    between atoms: N_6  and  C_7
REMARK    3  A    between atoms: C_7  and  C_8
REMARK    4  A    between atoms: C_11  and  N_12
REMARK    5  A    between atoms: C_13  and  C_15
REMARK    6  A    between atoms: C_25  and  C_26
REMARK                            x       y       z     vdW  Elec       q    Type
REMARK                         _______ _______ _______ _____ _____    ______ ____
ROOT
ATOM      1  C   UNL     1      -1.103  12.960  19.281  0.00  0.00    +0.000 C 
ENDROOT
BRANCH   1   7
ATOM      2  C   UNL     1      -2.295  13.653  23.731  0.00  0.00    +0.000 C 
ATOM      3  N   UNL     1      -3.461  12.825  23.529  0.00  0.00    +0.000 N 
ATOM      4  C   UNL     1      -3.860  12.683  22.206  0.00  0.00    +0.000 A 
ATOM      5  N   UNL     1      -2.963  12.713  21.222  0.00  0.00    +0.000 NA
ATOM      6  C   UNL     1      -3.402  12.526  19.963  0.00  0.00    +0.000 A 
ATOM      7  N   UNL     1      -2.472  12.642  18.920  0.00  0.00    +0.000 N 
ATOM      8  C   UNL     1      -4.758  12.249  19.657  0.00  0.00    +0.000 A 
ATOM      9  C   UNL     1      -5.328  11.918  18.374  0.00  0.00    +0.000 A 
ATOM     10  C   UNL     1      -4.507  11.630  17.142  0.00  0.00    +0.000 C 
ATOM     11  C   UNL     1      -6.720  11.838  18.232  0.00  0.00    +0.000 A 
ATOM     12  C   UNL     1      -7.543  11.978  19.337  0.00  0.00    +0.000 A 
ATOM     13  C   UNL     1      -6.974  12.190  20.592  0.00  0.00    +0.000 A 
ATOM     14  C   UNL     1      -5.605  12.328  20.770  0.00  0.00    +0.000 A 
ATOM     15  N   UNL     1      -5.170  12.537  22.017  0.00  0.00    +0.000 NA
ATOM     16  H   UNL     1      -4.288  13.088  24.051  0.00  0.00    +0.000 HD
ATOM     17  H   UNL     1      -2.830  13.310  18.243  0.00  0.00    +0.000 HD
ENDBRANCH   1   7
BRANCH   1  18
ATOM     18  C   UNL     1      -0.241  11.796  18.847  0.00  0.00    +0.000 A 
ATOM     19  C   UNL     1       1.152  11.918  18.836  0.00  0.00    +0.000 A 
ATOM     20  C   UNL     1       1.955  10.854  18.419  0.00  0.00    +0.000 A 
ATOM     21  C   UNL     1       1.386   9.650  17.999  0.00  0.00    +0.000 A 
ATOM     22  C   UNL     1      -0.008   9.544  17.956  0.00  0.00    +0.000 A 
ATOM     23  C   UNL     1      -0.816  10.608  18.380  0.00  0.00    +0.000 A 
BRANCH  21  24
ATOM     24  N   UNL     1       2.151   8.533  17.597  0.00  0.00    +0.000 N 
ATOM     25  C   UNL     1       2.562   7.495  18.418  0.00  0.00    +0.000 C 
ATOM     26  O   UNL     1       2.290   7.363  19.607  0.00  0.00    +0.000 OA
ATOM     27  H   UNL     1       2.382   8.496  16.616  0.00  0.00    +0.000 HD
BRANCH  25  28
ATOM     28  C   UNL     1       3.415   6.444  17.793  0.00  0.00    +0.000 A 
ATOM     29  C   UNL     1       4.510   6.876  17.022  0.00  0.00    +0.000 A 
ATOM     30  C   UNL     1       5.358   5.951  16.414  0.00  0.00    +0.000 A 
ATOM     31  C   UNL     1       5.115   4.595  16.585  0.00  0.00    +0.000 A 
ATOM     32  F   UNL     1       5.925   3.703  16.000  0.00  0.00    +0.000 F 
ATOM     33  C   UNL     1       4.045   4.147  17.352  0.00  0.00    +0.000 A 
ATOM     34  C   UNL     1       3.194   5.071  17.967  0.00  0.00    +0.000 A 
ENDBRANCH  25  28
ENDBRANCH  21  24
ENDBRANCH   1  18
TORSDOF 4
ENDMDL
MODEL 2
REMARK VINA RESULT:      -8.7      4.605     10.884
REMARK  Name = 
REMARK  6 active torsions:
REMARK  status: ('A' for Active; 'I' for Inactive)
REMARK    1  A    between atoms: C_1  and  N_2
REMARK    2  A    between atoms: N_6  and  C_7
REMARK    3  A    between atoms: C_7  and  C_8
REMARK    4  A    between atoms: C_11  and  N_12
REMARK    5  A    between atoms: C_13  and  C_15
REMARK    6  A    between atoms: C_25  and  C_26
REMARK                            x       y       z     vdW  Elec       q    Type
REMARK                         _______ _______ _______ _____ _____    ______ ____
ROOT
ATOM      1  C   UNL     1       2.444   7.757  18.313  0.00  0.00    +0.000 C 
ENDROOT
BRANCH   1   7
ATOM      2  C   UNL     1       6.900   6.969  17.209  0.00  0.00    +0.000 C 
ATOM      3  N   UNL     1       6.664   5.551  17.344  0.00  0.00    +0.000 N 
ATOM      4  C   UNL     1       5.557   5.208  18.110  0.00  0.00    +0.000 A 
ATOM      5  N   UNL     1       4.490   6.005  18.150  0.00  0.00    +0.000 NA
ATOM      6  C   UNL     1       3.429   5.601  18.874  0.00  0.00    +0.000 A 
ATOM      7  N   UNL     1       2.339   6.477  18.986  0.00  0.00    +0.000 N 
ATOM      8  C   UNL     1       3.387   4.351  19.542  0.00  0.00    +0.000 A 
ATOM      9  C   UNL     1       2.277   3.758  20.245  0.00  0.00    +0.000 A 
ATOM     10  C   UNL     1       0.878   4.321  20.229  0.00  0.00    +0.000 C 
ATOM     11  C   UNL     1       2.471   2.586  20.988  0.00  0.00    +0.000 A 
ATOM     12  C   UNL     1       3.698   1.942  20.967  0.00  0.00    +0.000 A 
ATOM     13  C   UNL     1       4.733   2.466  20.194  0.00  0.00    +0.000 A 
ATOM     14  C   UNL     1       4.600   3.652  19.487  0.00  0.00    +0.000 A 
ATOM     15  N   UNL     1       5.661   4.066  18.786  0.00  0.00    +0.000 NA
ATOM     16  H   UNL     1       7.438   5.004  17.699  0.00  0.00    +0.000 HD
ATOM     17  H   UNL     1       2.130   6.604  19.972  0.00  0.00    +0.000 HD
ENDBRANCH   1   7
BRANCH   1  18
ATOM     18  C   UNL     1       1.653   8.758  19.125  0.00  0.00    +0.000 A 
ATOM     19  C   UNL     1       1.406   8.526  20.482  0.00  0.00    +0.000 A 
ATOM     20  C   UNL     1       0.661   9.437  21.235  0.00  0.00    +0.000 A 
ATOM     21  C   UNL     1       0.142  10.593  20.650  0.00  0.00    +0.000 A 
ATOM     22  C   UNL     1       0.339  10.801  19.280  0.00  0.00    +0.000 A 
ATOM     23  C   UNL     1       1.092   9.892  18.524  0.00  0.00    +0.000 A 
BRANCH  21  24
ATOM     24  N   UNL     1      -0.591  11.561  21.370  0.00  0.00    +0.000 N 
ATOM     25  C   UNL     1      -1.010  11.445  22.686  0.00  0.00    +0.000 C 
ATOM     26  O   UNL     1      -0.773  10.507  23.441  0.00  0.00    +0.000 OA
ATOM     27  H   UNL     1      -0.792  12.414  20.871  0.00  0.00    +0.000 HD
BRANCH  25  28
ATOM     28  C   UNL     1      -1.826  12.568  23.230  0.00  0.00    +0.000 A 
ATOM     29  C   UNL     1      -3.173  12.297  23.537  0.00  0.00    +0.000 A 
ATOM     30  C   UNL     1      -3.995  13.296  24.058  0.00  0.00    +0.000 A 
ATOM     31  C   UNL     1      -3.468  14.560  24.281  0.00  0.00    +0.000 A 
ATOM     32  F   UNL     1      -4.255  15.523  24.779  0.00  0.00    +0.000 F 
ATOM     33  C   UNL     1      -2.137  14.845  23.995  0.00  0.00    +0.000 A 
ATOM     34  C   UNL     1      -1.307  13.846  23.476  0.00  0.00    +0.000 A 
ENDBRANCH  25  28
ENDBRANCH  21  24
ENDBRANCH   1  18
TORSDOF 4
ENDMDL
MODEL 3
REMARK VINA RESULT:      -8.6      4.606     10.804
REMARK  Name = 
REMARK  6 active torsions:
REMARK  status: ('A' for Active; 'I' for Inactive)
REMARK    1  A    between atoms: C_1  and  N_2
REMARK    2  A    between atoms: N_6  and  C_7
REMARK    3  A    between atoms: C_7  and  C_8
REMARK    4  A    between atoms: C_11  and  N_12
REMARK    5  A    between atoms: C_13  and  C_15
REMARK    6  A    between atoms: C_25  and  C_26
REMARK                            x       y       z     vdW  Elec       q    Type
REMARK                         _______ _______ _______ _____ _____    ______ ____
ROOT
ATOM      1  C   UNL     1       2.550   7.782  18.180  0.00  0.00    +0.000 C 
ENDROOT
BRANCH   1   7
ATOM      2  C   UNL     1       7.082   7.088  17.356  0.00  0.00    +0.000 C 
ATOM      3  N   UNL     1       6.865   5.665  17.463  0.00  0.00    +0.000 N 
ATOM      4  C   UNL     1       5.719   5.294  18.154  0.00  0.00    +0.000 A 
ATOM      5  N   UNL     1       4.636   6.069  18.133  0.00  0.00    +0.000 NA
ATOM      6  C   UNL     1       3.539   5.639  18.784  0.00  0.00    +0.000 A 
ATOM      7  N   UNL     1       2.428   6.493  18.834  0.00  0.00    +0.000 N 
ATOM      8  C   UNL     1       3.479   4.382  19.437  0.00  0.00    +0.000 A 
ATOM      9  C   UNL     1       2.338   3.761  20.063  0.00  0.00    +0.000 A 
ATOM     10  C   UNL     1       0.932   4.298  19.962  0.00  0.00    +0.000 C 
ATOM     11  C   UNL     1       2.507   2.585  20.806  0.00  0.00    +0.000 A 
ATOM     12  C   UNL     1       3.745   1.965  20.858  0.00  0.00    +0.000 A 
ATOM     13  C   UNL     1       4.817   2.516  20.157  0.00  0.00    +0.000 A 
ATOM     14  C   UNL     1       4.706   3.706  19.453  0.00  0.00    +0.000 A 
ATOM     15  N   UNL     1       5.802   4.147  18.826  0.00  0.00    +0.000 NA
ATOM     16  H   UNL     1       7.626   5.128  17.862  0.00  0.00    +0.000 HD
ATOM     17  H   UNL     1       2.153   6.606  19.806  0.00  0.00    +0.000 HD
ENDBRANCH   1   7
BRANCH   1  18
ATOM     18  C   UNL     1       1.712   8.766  18.965  0.00  0.00    +0.000 A 
ATOM     19  C   UNL     1       1.466  10.045  18.456  0.00  0.00    +0.000 A 
ATOM     20  C   UNL     1       0.709  10.966  19.183  0.00  0.00    +0.000 A 
ATOM     21  C   UNL     1       0.186  10.633  20.434  0.00  0.00    +0.000 A 
ATOM     22  C   UNL     1       0.477   9.375  20.972  0.00  0.00    +0.000 A 
ATOM     23  C   UNL     1       1.231   8.446  20.241  0.00  0.00    +0.000 A 
BRANCH  21  24
ATOM     24  N   UNL     1      -0.610  11.514  21.198  0.00  0.00    +0.000 N 
ATOM     25  C   UNL     1      -0.777  11.469  22.573  0.00  0.00    +0.000 C 
ATOM     26  O   UNL     1      -0.226  10.689  23.343  0.00  0.00    +0.000 OA
ATOM     27  H   UNL     1      -1.067  12.248  20.678  0.00  0.00    +0.000 HD
BRANCH  25  28
ATOM     28  C   UNL     1      -1.715  12.465  23.167  0.00  0.00    +0.000 A 
ATOM     29  C   UNL     1      -1.238  13.778  23.338  0.00  0.00    +0.000 A 
ATOM     30  C   UNL     1      -2.061  14.765  23.878  0.00  0.00    +0.000 A 
ATOM     31  C   UNL     1      -3.362  14.441  24.237  0.00  0.00    +0.000 A 
ATOM     32  F   UNL     1      -4.155  15.386  24.760  0.00  0.00    +0.000 F 
ATOM     33  C   UNL     1      -3.856  13.152  24.066  0.00  0.00    +0.000 A 
ATOM     34  C   UNL     1      -3.036  12.159  23.521  0.00  0.00    +0.000 A 
ENDBRANCH  25  28
ENDBRANCH  21  24
ENDBRANCH   1  18
TORSDOF 4
ENDMDL
MODEL 4
REMARK VINA RESULT:      -8.6      2.001      2.790
REMARK  Name = 
REMARK  6 active torsions:
REMARK  status: ('A' for Active; 'I' for Inactive)
REMARK    1  A    between atoms: C_1  and  N_2
REMARK    2  A    between atoms: N_6  and  C_7
REMARK    3  A    between atoms: C_7  and  C_8
REMARK    4  A    between atoms: C_11  and  N_12
REMARK    5  A    between atoms: C_13  and  C_15
REMARK    6  A    between atoms: C_25  and  C_26
REMARK                            x       y       z     vdW  Elec       q    Type
REMARK                         _______ _______ _______ _____ _____    ______ ____
ROOT
ATOM      1  C   UNL     1       0.627  11.572  18.935  0.00  0.00    +0.000 C 
ENDROOT
BRANCH   1   7
ATOM      2  C   UNL     1      -1.183  13.406  22.816  0.00  0.00    +0.000 C 
ATOM      3  N   UNL     1      -2.461  12.829  22.472  0.00  0.00    +0.000 N 
ATOM      4  C   UNL     1      -2.620  12.509  21.129  0.00  0.00    +0.000 A 
ATOM      5  N   UNL     1      -1.573  12.140  20.393  0.00  0.00    +0.000 NA
ATOM      6  C   UNL     1      -1.793  11.798  19.110  0.00  0.00    +0.000 A 
ATOM      7  N   UNL     1      -0.681  11.492  18.312  0.00  0.00    +0.000 N 
ATOM      8  C   UNL     1      -3.089  11.766  18.536  0.00  0.00    +0.000 A 
ATOM      9  C   UNL     1      -3.466  11.311  17.221  0.00  0.00    +0.000 A 
ATOM     10  C   UNL     1      -2.525  10.605  16.277  0.00  0.00    +0.000 C 
ATOM     11  C   UNL     1      -4.776  11.509  16.766  0.00  0.00    +0.000 A 
ATOM     12  C   UNL     1      -5.734  12.049  17.610  0.00  0.00    +0.000 A 
ATOM     13  C   UNL     1      -5.383  12.385  18.917  0.00  0.00    +0.000 A 
ATOM     14  C   UNL     1      -4.086  12.255  19.391  0.00  0.00    +0.000 A 
ATOM     15  N   UNL     1      -3.861  12.616  20.659  0.00  0.00    +0.000 NA
ATOM     16  H   UNL     1      -3.277  13.367  22.736  0.00  0.00    +0.000 HD
ATOM     17  H   UNL     1      -0.717  12.068  17.476  0.00  0.00    +0.000 HD
ENDBRANCH   1   7
BRANCH   1  18
ATOM     18  C   UNL     1       1.181  10.166  19.000  0.00  0.00    +0.000 A 
ATOM     19  C   UNL     1       1.066   9.417  20.175  0.00  0.00    +0.000 A 
ATOM     20  C   UNL     1       1.590   8.125  20.249  0.00  0.00    +0.000 A 
ATOM     21  C   UNL     1       2.246   7.556  19.156  0.00  0.00    +0.000 A 
ATOM     22  C   UNL     1       2.413   8.323  17.997  0.00  0.00    +0.000 A 
ATOM     23  C   UNL     1       1.881   9.617  17.919  0.00  0.00    +0.000 A 
BRANCH  21  24
ATOM     24  N   UNL     1       2.769   6.244  19.165  0.00  0.00    +0.000 N 
ATOM     25  C   UNL     1       2.278   5.172  18.437  0.00  0.00    +0.000 C 
ATOM     26  O   UNL     1       1.346   5.205  17.641  0.00  0.00    +0.000 OA
ATOM     27  H   UNL     1       3.587   6.107  19.739  0.00  0.00    +0.000 HD
BRANCH  25  28
ATOM     28  C   UNL     1       2.951   3.857  18.646  0.00  0.00    +0.000 A 
ATOM     29  C   UNL     1       3.673   3.685  19.841  0.00  0.00    +0.000 A 
ATOM     30  C   UNL     1       4.321   2.480  20.110  0.00  0.00    +0.000 A 
ATOM     31  C   UNL     1       4.237   1.445  19.188  0.00  0.00    +0.000 A 
ATOM     32  F   UNL     1       4.860   0.287  19.441  0.00  0.00    +0.000 F 
ATOM     33  C   UNL     1       3.519   1.591  18.006  0.00  0.00    +0.000 A 
ATOM     34  C   UNL     1       2.864   2.797  17.734  0.00  0.00    +0.000 A 
ENDBRANCH  25  28
ENDBRANCH  21  24
ENDBRANCH   1  18
TORSDOF 4
ENDMDL
MODEL 5
REMARK VINA RESULT:      -8.4      5.167     10.825
REMARK  Name = 
REMARK  6 active torsions:
REMARK  status: ('A' for Active; 'I' for Inactive)
REMARK    1  A    between atoms: C_1  and  N_2
REMARK    2  A    between atoms: N_6  and  C_7
REMARK    3  A    between atoms: C_7  and  C_8
REMARK    4  A    between atoms: C_11  and  N_12
REMARK    5  A    between atoms: C_13  and  C_15
REMARK    6  A    between atoms: C_25  and  C_26
REMARK                            x       y       z     vdW  Elec       q    Type
REMARK                         _______ _______ _______ _____ _____    ______ ____
ROOT
ATOM      1  C   UNL     1       2.330   6.780  19.387  0.00  0.00    +0.000 C 
ENDROOT
BRANCH   1   7
ATOM      2  C   UNL     1       0.877   2.394  18.791  0.00  0.00    +0.000 C 
ATOM      3  N   UNL     1       2.218   2.021  18.409  0.00  0.00    +0.000 N 
ATOM      4  C   UNL     1       3.021   3.069  17.978  0.00  0.00    +0.000 A 
ATOM      5  N   UNL     1       2.853   4.296  18.470  0.00  0.00    +0.000 NA
ATOM      6  C   UNL     1       3.689   5.263  18.049  0.00  0.00    +0.000 A 
ATOM      7  N   UNL     1       3.459   6.571  18.501  0.00  0.00    +0.000 N 
ATOM      8  C   UNL     1       4.761   5.016  17.155  0.00  0.00    +0.000 A 
ATOM      9  C   UNL     1       5.787   5.933  16.724  0.00  0.00    +0.000 A 
ATOM     10  C   UNL     1       5.988   7.304  17.319  0.00  0.00    +0.000 C 
ATOM     11  C   UNL     1       6.672   5.557  15.704  0.00  0.00    +0.000 A 
ATOM     12  C   UNL     1       6.628   4.275  15.180  0.00  0.00    +0.000 A 
ATOM     13  C   UNL     1       5.702   3.362  15.682  0.00  0.00    +0.000 A 
ATOM     14  C   UNL     1       4.774   3.708  16.653  0.00  0.00    +0.000 A 
ATOM     15  N   UNL     1       3.927   2.753  17.055  0.00  0.00    +0.000 NA
ATOM     16  H   UNL     1       2.294   1.295  17.706  0.00  0.00    +0.000 HD
ATOM     17  H   UNL     1       3.401   7.184  17.692  0.00  0.00    +0.000 HD
ENDBRANCH   1   7
BRANCH   1  18
ATOM     18  C   UNL     1       1.933   8.235  19.275  0.00  0.00    +0.000 A 
ATOM     19  C   UNL     1       1.248   8.861  20.322  0.00  0.00    +0.000 A 
ATOM     20  C   UNL     1       0.862  10.199  20.218  0.00  0.00    +0.000 A 
ATOM     21  C   UNL     1       1.144  10.938  19.068  0.00  0.00    +0.000 A 
ATOM     22  C   UNL     1       1.778  10.300  17.996  0.00  0.00    +0.000 A 
ATOM     23  C   UNL     1       2.173   8.959  18.100  0.00  0.00    +0.000 A 
BRANCH  21  24
ATOM     24  N   UNL     1       0.803  12.301  18.923  0.00  0.00    +0.000 N 
ATOM     25  C   UNL     1       1.687  13.367  18.981  0.00  0.00    +0.000 C 
ATOM     26  O   UNL     1       2.903  13.291  19.123  0.00  0.00    +0.000 OA
ATOM     27  H   UNL     1      -0.170  12.487  18.734  0.00  0.00    +0.000 HD
BRANCH  25  28
ATOM     28  C   UNL     1       1.098  14.732  18.859  0.00  0.00    +0.000 A 
ATOM     29  C   UNL     1       1.974  15.786  18.541  0.00  0.00    +0.000 A 
ATOM     30  C   UNL     1       1.494  17.088  18.402  0.00  0.00    +0.000 A 
ATOM     31  C   UNL     1       0.138  17.332  18.571  0.00  0.00    +0.000 A 
ATOM     32  F   UNL     1      -0.326  18.581  18.442  0.00  0.00    +0.000 F 
ATOM     33  C   UNL     1      -0.746  16.302  18.875  0.00  0.00    +0.000 A 
ATOM     34  C   UNL     1      -0.270  14.994  19.012  0.00  0.00    +0.000 A 
ENDBRANCH  25  28
ENDBRANCH  21  24
ENDBRANCH   1  18
TORSDOF 4
ENDMDL
MODEL 6
REMARK VINA RESULT:      -8.4      0.890      1.473
REMARK  Name = 
REMARK  6 active torsions:
REMARK  status: ('A' for Active; 'I' for Inactive)
REMARK    1  A    between atoms: C_1  and  N_2
REMARK    2  A    between atoms: N_6  and  C_7
REMARK    3  A    between atoms: C_7  and  C_8
REMARK    4  A    between atoms: C_11  and  N_12
REMARK    5  A    between atoms: C_13  and  C_15
REMARK    6  A    between atoms: C_25  and  C_26
REMARK                            x       y       z     vdW  Elec       q    Type
REMARK                         _______ _______ _______ _____ _____    ______ ____
ROOT
ATOM      1  C   UNL     1      -1.568  12.330  20.118  0.00  0.00    +0.000 C 
ENDROOT
BRANCH   1   7
ATOM      2  C   UNL     1      -3.860  13.427  24.023  0.00  0.00    +0.000 C 
ATOM      3  N   UNL     1      -5.068  12.890  23.444  0.00  0.00    +0.000 N 
ATOM      4  C   UNL     1      -5.068  12.802  22.057  0.00  0.00    +0.000 A 
ATOM      5  N   UNL     1      -3.934  12.589  21.393  0.00  0.00    +0.000 NA
ATOM      6  C   UNL     1      -4.000  12.469  20.054  0.00  0.00    +0.000 A 
ATOM      7  N   UNL     1      -2.797  12.330  19.347  0.00  0.00    +0.000 N 
ATOM      8  C   UNL     1      -5.224  12.507  19.340  0.00  0.00    +0.000 A 
ATOM      9  C   UNL     1      -5.438  12.277  17.933  0.00  0.00    +0.000 A 
ATOM     10  C   UNL     1      -4.373  11.766  16.996  0.00  0.00    +0.000 C 
ATOM     11  C   UNL     1      -6.699  12.522  17.372  0.00  0.00    +0.000 A 
ATOM     12  C   UNL     1      -7.763  12.887  18.182  0.00  0.00    +0.000 A 
ATOM     13  C   UNL     1      -7.570  13.000  19.558  0.00  0.00    +0.000 A 
ATOM     14  C   UNL     1      -6.327  12.819  20.147  0.00  0.00    +0.000 A 
ATOM     15  N   UNL     1      -6.255  12.961  21.475  0.00  0.00    +0.000 NA
ATOM     16  H   UNL     1      -5.929  13.355  23.701  0.00  0.00    +0.000 HD
ATOM     17  H   UNL     1      -2.767  13.040  18.621  0.00  0.00    +0.000 HD
ENDBRANCH   1   7
BRANCH   1  18
ATOM     18  C   UNL     1      -0.650  11.297  19.504  0.00  0.00    +0.000 A 
ATOM     19  C   UNL     1      -1.041  10.604  18.353  0.00  0.00    +0.000 A 
ATOM     20  C   UNL     1      -0.206   9.636  17.789  0.00  0.00    +0.000 A 
ATOM     21  C   UNL     1       1.029   9.334  18.364  0.00  0.00    +0.000 A 
ATOM     22  C   UNL     1       1.398   9.984  19.547  0.00  0.00    +0.000 A 
ATOM     23  C   UNL     1       0.566  10.961  20.110  0.00  0.00    +0.000 A 
BRANCH  21  24
ATOM     24  N   UNL     1       1.924   8.387  17.820  0.00  0.00    +0.000 N 
ATOM     25  C   UNL     1       2.464   7.303  18.494  0.00  0.00    +0.000 C 
ATOM     26  O   UNL     1       2.217   6.974  19.649  0.00  0.00    +0.000 OA
ATOM     27  H   UNL     1       2.153   8.516  16.846  0.00  0.00    +0.000 HD
BRANCH  25  28
ATOM     28  C   UNL     1       3.437   6.462  17.738  0.00  0.00    +0.000 A 
ATOM     29  C   UNL     1       3.259   5.068  17.787  0.00  0.00    +0.000 A 
ATOM     30  C   UNL     1       4.124   4.218  17.098  0.00  0.00    +0.000 A 
ATOM     31  C   UNL     1       5.160   4.765  16.354  0.00  0.00    +0.000 A 
ATOM     32  F   UNL     1       5.995   3.953  15.693  0.00  0.00    +0.000 F 
ATOM     33  C   UNL     1       5.347   6.141  16.283  0.00  0.00    +0.000 A 
ATOM     34  C   UNL     1       4.479   6.998  16.969  0.00  0.00    +0.000 A 
ENDBRANCH  25  28
ENDBRANCH  21  24
ENDBRANCH   1  18
TORSDOF 4
ENDMDL
MODEL 7
REMARK VINA RESULT:      -8.4      4.521     10.768
REMARK  Name = 
REMARK  6 active torsions:
REMARK  status: ('A' for Active; 'I' for Inactive)
REMARK    1  A    between atoms: C_1  and  N_2
REMARK    2  A    between atoms: N_6  and  C_7
REMARK    3  A    between atoms: C_7  and  C_8
REMARK    4  A    between atoms: C_11  and  N_12
REMARK    5  A    between atoms: C_13  and  C_15
REMARK    6  A    between atoms: C_25  and  C_26
REMARK                            x       y       z     vdW  Elec       q    Type
REMARK                         _______ _______ _______ _____ _____    ______ ____
ROOT
ATOM      1  C   UNL     1       3.204   7.819  17.717  0.00  0.00    +0.000 C 
ENDROOT
BRANCH   1   7
ATOM      2  C   UNL     1       7.712   6.914  18.466  0.00  0.00    +0.000 C 
ATOM      3  N   UNL     1       7.472   5.531  18.125  0.00  0.00    +0.000 N 
ATOM      4  C   UNL     1       6.150   5.119  18.230  0.00  0.00    +0.000 A 
ATOM      5  N   UNL     1       5.155   5.977  18.009  0.00  0.00    +0.000 NA
ATOM      6  C   UNL     1       3.894   5.511  18.082  0.00  0.00    +0.000 A 
ATOM      7  N   UNL     1       2.845   6.431  17.934  0.00  0.00    +0.000 N 
ATOM      8  C   UNL     1       3.592   4.148  18.328  0.00  0.00    +0.000 A 
ATOM      9  C   UNL     1       2.300   3.509  18.314  0.00  0.00    +0.000 A 
ATOM     10  C   UNL     1       1.036   4.184  17.843  0.00  0.00    +0.000 C 
ATOM     11  C   UNL     1       2.176   2.181  18.746  0.00  0.00    +0.000 A 
ATOM     12  C   UNL     1       3.303   1.452  19.090  0.00  0.00    +0.000 A 
ATOM     13  C   UNL     1       4.560   2.048  18.994  0.00  0.00    +0.000 A 
ATOM     14  C   UNL     1       4.723   3.375  18.623  0.00  0.00    +0.000 A 
ATOM     15  N   UNL     1       5.974   3.844  18.573  0.00  0.00    +0.000 NA
ATOM     16  H   UNL     1       8.026   4.847  18.626  0.00  0.00    +0.000 HD
ATOM     17  H   UNL     1       2.223   6.339  18.732  0.00  0.00    +0.000 HD
ENDBRANCH   1   7
BRANCH   1  18
ATOM     18  C   UNL     1       2.201   8.666  18.468  0.00  0.00    +0.000 A 
ATOM     19  C   UNL     1       1.737   9.864  17.916  0.00  0.00    +0.000 A 
ATOM     20  C   UNL     1       0.824  10.660  18.611  0.00  0.00    +0.000 A 
ATOM     21  C   UNL     1       0.361  10.283  19.873  0.00  0.00    +0.000 A 
ATOM     22  C   UNL     1       0.867   9.114  20.454  0.00  0.00    +0.000 A 
ATOM     23  C   UNL     1       1.777   8.310  19.755  0.00  0.00    +0.000 A 
BRANCH  21  24
ATOM     24  N   UNL     1      -0.583  11.034  20.607  0.00  0.00    +0.000 N 
ATOM     25  C   UNL     1      -0.289  12.059  21.493  0.00  0.00    +0.000 C 
ATOM     26  O   UNL     1       0.827  12.500  21.744  0.00  0.00    +0.000 OA
ATOM     27  H   UNL     1      -1.549  10.806  20.433  0.00  0.00    +0.000 HD
BRANCH  25  28
ATOM     28  C   UNL     1      -1.444  12.679  22.205  0.00  0.00    +0.000 A 
ATOM     29  C   UNL     1      -2.220  11.840  23.027  0.00  0.00    +0.000 A 
ATOM     30  C   UNL     1      -3.309  12.351  23.732  0.00  0.00    +0.000 A 
ATOM     31  C   UNL     1      -3.615  13.700  23.622  0.00  0.00    +0.000 A 
ATOM     32  F   UNL     1      -4.663  14.194  24.294  0.00  0.00    +0.000 F 
ATOM     33  C   UNL     1      -2.854  14.548  22.824  0.00  0.00    +0.000 A 
ATOM     34  C   UNL     1      -1.758  14.042  22.119  0.00  0.00    +0.000 A 
ENDBRANCH  25  28
ENDBRANCH  21  24
ENDBRANCH   1  18
TORSDOF 4
ENDMDL
MODEL 8
REMARK VINA RESULT:      -8.4      1.955      2.642
REMARK  Name = 
REMARK  6 active torsions:
REMARK  status: ('A' for Active; 'I' for Inactive)
REMARK    1  A    between atoms: C_1  and  N_2
REMARK    2  A    between atoms: N_6  and  C_7
REMARK    3  A    between atoms: C_7  and  C_8
REMARK    4  A    between atoms: C_11  and  N_12
REMARK    5  A    between atoms: C_13  and  C_15
REMARK    6  A    between atoms: C_25  and  C_26
REMARK                            x       y       z     vdW  Elec       q    Type
REMARK                         _______ _______ _______ _____ _____    ______ ____
ROOT
ATOM      1  C   UNL     1       0.479  11.696  19.234  0.00  0.00    +0.000 C 
ENDROOT
BRANCH   1   7
ATOM      2  C   UNL     1      -1.446  13.435  23.103  0.00  0.00    +0.000 C 
ATOM      3  N   UNL     1      -2.711  12.860  22.711  0.00  0.00    +0.000 N 
ATOM      4  C   UNL     1      -2.831  12.570  21.358  0.00  0.00    +0.000 A 
ATOM      5  N   UNL     1      -1.762  12.222  20.643  0.00  0.00    +0.000 NA
ATOM      6  C   UNL     1      -1.946  11.908  19.347  0.00  0.00    +0.000 A 
ATOM      7  N   UNL     1      -0.810  11.624  18.573  0.00  0.00    +0.000 N 
ATOM      8  C   UNL     1      -3.225  11.883  18.737  0.00  0.00    +0.000 A 
ATOM      9  C   UNL     1      -3.563  11.455  17.402  0.00  0.00    +0.000 A 
ATOM     10  C   UNL     1      -2.593  10.775  16.469  0.00  0.00    +0.000 C 
ATOM     11  C   UNL     1      -4.862  11.658  16.915  0.00  0.00    +0.000 A 
ATOM     12  C   UNL     1      -5.844  12.175  17.744  0.00  0.00    +0.000 A 
ATOM     13  C   UNL     1      -5.532  12.483  19.068  0.00  0.00    +0.000 A 
ATOM     14  C   UNL     1      -4.247  12.348  19.575  0.00  0.00    +0.000 A 
ATOM     15  N   UNL     1      -4.060  12.682  20.856  0.00  0.00    +0.000 NA
ATOM     16  H   UNL     1      -3.537  13.389  22.964  0.00  0.00    +0.000 HD
ATOM     17  H   UNL     1      -0.826  12.219  17.749  0.00  0.00    +0.000 HD
ENDBRANCH   1   7
BRANCH   1  18
ATOM     18  C   UNL     1       1.067  10.302  19.226  0.00  0.00    +0.000 A 
ATOM     19  C   UNL     1       1.674   9.801  18.071  0.00  0.00    +0.000 A 
ATOM     20  C   UNL     1       2.203   8.508  18.050  0.00  0.00    +0.000 A 
ATOM     21  C   UNL     1       2.132   7.687  19.177  0.00  0.00    +0.000 A 
ATOM     22  C   UNL     1       1.475   8.165  20.316  0.00  0.00    +0.000 A 
ATOM     23  C   UNL     1       0.950   9.464  20.342  0.00  0.00    +0.000 A 
BRANCH  21  24
ATOM     24  N   UNL     1       2.676   6.385  19.220  0.00  0.00    +0.000 N 
ATOM     25  C   UNL     1       2.255   5.306  18.458  0.00  0.00    +0.000 C 
ATOM     26  O   UNL     1       1.378   5.325  17.601  0.00  0.00    +0.000 OA
ATOM     27  H   UNL     1       3.456   6.261  19.847  0.00  0.00    +0.000 HD
BRANCH  25  28
ATOM     28  C   UNL     1       2.935   4.003  18.710  0.00  0.00    +0.000 A 
ATOM     29  C   UNL     1       2.655   2.947  17.824  0.00  0.00    +0.000 A 
ATOM     30  C   UNL     1       3.261   1.703  17.991  0.00  0.00    +0.000 A 
ATOM     31  C   UNL     1       4.153   1.518  19.037  0.00  0.00    +0.000 A 
ATOM     32  F   UNL     1       4.735   0.323  19.203  0.00  0.00    +0.000 F 
ATOM     33  C   UNL     1       4.453   2.552  19.918  0.00  0.00    +0.000 A 
ATOM     34  C   UNL     1       3.851   3.804  19.752  0.00  0.00    +0.000 A 
ENDBRANCH  25  28
ENDBRANCH  21  24
ENDBRANCH   1  18
TORSDOF 4
ENDMDL
MODEL 9
REMARK VINA RESULT:      -8.3      1.060      1.123
REMARK  Name = 
REMARK  6 active torsions:
REMARK  status: ('A' for Active; 'I' for Inactive)
REMARK    1  A    between atoms: C_1  and  N_2
REMARK    2  A    between atoms: N_6  and  C_7
REMARK    3  A    between atoms: C_7  and  C_8
REMARK    4  A    between atoms: C_11  and  N_12
REMARK    5  A    between atoms: C_13  and  C_15
REMARK    6  A    between atoms: C_25  and  C_26
REMARK                            x       y       z     vdW  Elec       q    Type
REMARK                         _______ _______ _______ _____ _____    ______ ____
ROOT
ATOM      1  C   UNL     1      -1.565  11.973  20.411  0.00  0.00    +0.000 C 
ENDROOT
BRANCH   1   7
ATOM      2  C   UNL     1      -4.068  13.342  24.093  0.00  0.00    +0.000 C 
ATOM      3  N   UNL     1      -5.265  12.888  23.426  0.00  0.00    +0.000 N 
ATOM      4  C   UNL     1      -5.160  12.768  22.045  0.00  0.00    +0.000 A 
ATOM      5  N   UNL     1      -3.996  12.449  21.481  0.00  0.00    +0.000 NA
ATOM      6  C   UNL     1      -3.964  12.303  20.143  0.00  0.00    +0.000 A 
ATOM      7  N   UNL     1      -2.723  12.052  19.540  0.00  0.00    +0.000 N 
ATOM      8  C   UNL     1      -5.119  12.421  19.330  0.00  0.00    +0.000 A 
ATOM      9  C   UNL     1      -5.237  12.175  17.914  0.00  0.00    +0.000 A 
ATOM     10  C   UNL     1      -4.144  11.558  17.078  0.00  0.00    +0.000 C 
ATOM     11  C   UNL     1      -6.424  12.505  17.248  0.00  0.00    +0.000 A 
ATOM     12  C   UNL     1      -7.517  12.972  17.960  0.00  0.00    +0.000 A 
ATOM     13  C   UNL     1      -7.427  13.103  19.345  0.00  0.00    +0.000 A 
ATOM     14  C   UNL     1      -6.254  12.838  20.038  0.00  0.00    +0.000 A 
ATOM     15  N   UNL     1      -6.279  13.006  21.364  0.00  0.00    +0.000 NA
ATOM     16  H   UNL     1      -6.104  13.427  23.603  0.00  0.00    +0.000 HD
ATOM     17  H   UNL     1      -2.577  12.740  18.807  0.00  0.00    +0.000 HD
ENDBRANCH   1   7
BRANCH   1  18
ATOM     18  C   UNL     1      -0.604  10.982  19.793  0.00  0.00    +0.000 A 
ATOM     19  C   UNL     1       0.455  10.465  20.546  0.00  0.00    +0.000 A 
ATOM     20  C   UNL     1       1.357   9.563  19.978  0.00  0.00    +0.000 A 
ATOM     21  C   UNL     1       1.226   9.163  18.647  0.00  0.00    +0.000 A 
ATOM     22  C   UNL     1       0.202   9.720  17.874  0.00  0.00    +0.000 A 
ATOM     23  C   UNL     1      -0.709  10.620  18.444  0.00  0.00    +0.000 A 
BRANCH  21  24
ATOM     24  N   UNL     1       2.091   8.231  18.031  0.00  0.00    +0.000 N 
ATOM     25  C   UNL     1       2.520   7.036  18.586  0.00  0.00    +0.000 C 
ATOM     26  O   UNL     1       2.183   6.581  19.674  0.00  0.00    +0.000 OA
ATOM     27  H   UNL     1       2.387   8.466  17.096  0.00  0.00    +0.000 HD
BRANCH  25  28
ATOM     28  C   UNL     1       3.483   6.232  17.779  0.00  0.00    +0.000 A 
ATOM     29  C   UNL     1       4.474   6.935  17.069  0.00  0.00    +0.000 A 
ATOM     30  C   UNL     1       5.415   6.250  16.300  0.00  0.00    +0.000 A 
ATOM     31  C   UNL     1       5.370   4.863  16.252  0.00  0.00    +0.000 A 
ATOM     32  F   UNL     1       6.270   4.202  15.512  0.00  0.00    +0.000 F 
ATOM     33  C   UNL     1       4.406   4.149  16.955  0.00  0.00    +0.000 A 
ATOM     34  C   UNL     1       3.463   4.831  17.731  0.00  0.00    +0.000 A 
ENDBRANCH  25  28
ENDBRANCH  21  24
ENDBRANCH   1  18
TORSDOF 4
ENDMDL
