MODEL 1
REMARK VINA RESULT:      -8.2      0.000      0.000
REMARK  Name = 
REMARK  7 active torsions:
REMARK  status: ('A' for Active; 'I' for Inactive)
REMARK    1  A    between atoms: C_1  and  C_2
REMARK    2  A    between atoms: C_2  and  C_3
REMARK    3  A    between atoms: C_3  and  C_4
REMARK    4  A    between atoms: C_10  and  C_11
REMARK    5  A    between atoms: C_14  and  O_15
REMARK    6  A    between atoms: N_19  and  C_20
REMARK    7  A    between atoms: C_23  and  N_24
REMARK                            x       y       z     vdW  Elec       q    Type
REMARK                         _______ _______ _______ _____ _____    ______ ____
ROOT
ATOM      1  C   UNL     1       1.555   7.567  20.359  0.00  0.00    +0.000 C 
ATOM      2  O   UNL     1       1.821   8.305  19.416  0.00  0.00    +0.000 OA
ATOM      3  N   UNL     1       0.783   7.933  21.440  0.00  0.00    +0.000 N 
ATOM      4  C   UNL     1       0.161   9.158  21.444  0.00  0.00    +0.000 A 
ATOM      5  N   UNL     1       0.013  10.017  20.466  0.00  0.00    +0.000 NA
ATOM      6  N   UNL     1      -0.642  11.159  20.873  0.00  0.00    +0.000 NA
ATOM      7  C   UNL     1      -0.932  11.139  22.162  0.00  0.00    +0.000 A 
ATOM      8  S   UNL     1      -0.513   9.646  22.930  0.00  0.00    +0.000 S 
ATOM      9  H   UNL     1       0.735   7.375  22.280  0.00  0.00    +0.000 HD
ENDROOT
BRANCH   7  10
ATOM     10  C   UNL     1      -1.581  12.246  22.876  0.00  0.00    +0.000 A 
ATOM     11  C   UNL     1      -0.851  13.423  23.125  0.00  0.00    +0.000 A 
ATOM     12  C   UNL     1      -1.422  14.496  23.816  0.00  0.00    +0.000 A 
ATOM     13  C   UNL     1      -2.730  14.391  24.275  0.00  0.00    +0.000 A 
ATOM     14  C   UNL     1      -3.465  13.232  24.060  0.00  0.00    +0.000 A 
ATOM     15  C   UNL     1      -2.893  12.162  23.366  0.00  0.00    +0.000 A 
BRANCH  13  16
ATOM     16  O   UNL     1      -3.333  15.407  24.951  0.00  0.00    +0.000 OA
ATOM     17  H   UNL     1      -2.970  16.251  24.635  0.00  0.00    +0.000 HD
ENDBRANCH  13  16
ENDBRANCH   7  10
BRANCH   1  18
ATOM     18  C   UNL     1       2.138   6.172  20.445  0.00  0.00    +0.000 C 
BRANCH  18  20
ATOM     19  C   UNL     1       2.018   4.955  18.142  0.00  0.00    +0.000 C 
ATOM     20  C   UNL     1       2.842   5.700  19.178  0.00  0.00    +0.000 C 
ATOM     21  N   UNL     1       4.093   6.046  19.038  0.00  0.00    +0.000 NA
BRANCH  21  22
ATOM     22  C   UNL     1       4.808   5.784  17.860  0.00  0.00    +0.000 A 
ATOM     23  C   UNL     1       4.633   6.596  16.744  0.00  0.00    +0.000 A 
ATOM     24  C   UNL     1       5.321   6.296  15.565  0.00  0.00    +0.000 A 
ATOM     25  C   UNL     1       6.173   5.190  15.551  0.00  0.00    +0.000 A 
ATOM     26  C   UNL     1       6.287   4.425  16.695  0.00  0.00    +0.000 A 
ATOM     27  N   UNL     1       5.596   4.690  17.829  0.00  0.00    +0.000 NA
BRANCH  25  28
ATOM     28  N   UNL     1       6.930   4.826  14.363  0.00  0.00    +0.000 N 
ATOM     29  O   UNL     1       7.995   5.422  14.155  0.00  0.00    +0.000 OA
ATOM     30  O   UNL     1       6.465   3.941  13.631  0.00  0.00    +0.000 OA
ENDBRANCH  25  28
ENDBRANCH  21  22
ENDBRANCH  18  20
ENDBRANCH   1  18
TORSDOF 6
ENDMDL
MODEL 2
REMARK VINA RESULT:      -8.2      0.531      1.300
REMARK  Name = 
REMARK  7 active torsions:
REMARK  status: ('A' for Active; 'I' for Inactive)
REMARK    1  A    between atoms: C_1  and  C_2
REMARK    2  A    between atoms: C_2  and  C_3
REMARK    3  A    between atoms: C_3  and  C_4
REMARK    4  A    between atoms: C_10  and  C_11
REMARK    5  A    between atoms: C_14  and  O_15
REMARK    6  A    between atoms: N_19  and  C_20
REMARK    7  A    between atoms: C_23  and  N_24
REMARK                            x       y       z     vdW  Elec       q    Type
REMARK                         _______ _______ _______ _____ _____    ______ ____
ROOT
ATOM      1  C   UNL     1       1.663   7.471  20.293  0.00  0.00    +0.000 C 
ATOM      2  O   UNL     1       1.965   8.222  19.371  0.00  0.00    +0.000 OA
ATOM      3  N   UNL     1       0.869   7.831  21.361  0.00  0.00    +0.000 N 
ATOM      4  C   UNL     1       0.268   9.066  21.373  0.00  0.00    +0.000 A 
ATOM      5  N   UNL     1       0.159   9.944  20.407  0.00  0.00    +0.000 NA
ATOM      6  N   UNL     1      -0.488  11.090  20.819  0.00  0.00    +0.000 NA
ATOM      7  C   UNL     1      -0.811  11.051  22.100  0.00  0.00    +0.000 A 
ATOM      8  S   UNL     1      -0.437   9.537  22.850  0.00  0.00    +0.000 S 
ATOM      9  H   UNL     1       0.790   7.258  22.189  0.00  0.00    +0.000 HD
ENDROOT
BRANCH   7  10
ATOM     10  C   UNL     1      -1.459  12.156  22.817  0.00  0.00    +0.000 A 
ATOM     11  C   UNL     1      -2.761  11.977  23.320  0.00  0.00    +0.000 A 
ATOM     12  C   UNL     1      -3.424  13.008  23.996  0.00  0.00    +0.000 A 
ATOM     13  C   UNL     1      -2.787  14.232  24.160  0.00  0.00    +0.000 A 
ATOM     14  C   UNL     1      -1.510  14.441  23.654  0.00  0.00    +0.000 A 
ATOM     15  C   UNL     1      -0.848  13.408  22.984  0.00  0.00    +0.000 A 
BRANCH  13  16
ATOM     16  O   UNL     1      -3.388  15.267  24.810  0.00  0.00    +0.000 OA
ATOM     17  H   UNL     1      -4.193  14.939  25.243  0.00  0.00    +0.000 HD
ENDBRANCH  13  16
ENDBRANCH   7  10
BRANCH   1  18
ATOM     18  C   UNL     1       2.220   6.065  20.368  0.00  0.00    +0.000 C 
BRANCH  18  20
ATOM     19  C   UNL     1       1.972   4.913  18.042  0.00  0.00    +0.000 C 
ATOM     20  C   UNL     1       2.866   5.570  19.079  0.00  0.00    +0.000 C 
ATOM     21  N   UNL     1       4.138   5.823  18.925  0.00  0.00    +0.000 NA
BRANCH  21  22
ATOM     22  C   UNL     1       4.812   5.534  17.729  0.00  0.00    +0.000 A 
ATOM     23  C   UNL     1       5.610   4.398  17.637  0.00  0.00    +0.000 A 
ATOM     24  C   UNL     1       6.308   4.147  16.453  0.00  0.00    +0.000 A 
ATOM     25  C   UNL     1       6.172   5.045  15.393  0.00  0.00    +0.000 A 
ATOM     26  C   UNL     1       5.370   6.156  15.563  0.00  0.00    +0.000 A 
ATOM     27  N   UNL     1       4.719   6.423  16.720  0.00  0.00    +0.000 NA
BRANCH  25  28
ATOM     28  N   UNL     1       6.859   4.840  14.127  0.00  0.00    +0.000 N 
ATOM     29  O   UNL     1       7.834   5.562  13.878  0.00  0.00    +0.000 OA
ATOM     30  O   UNL     1       6.429   3.955  13.375  0.00  0.00    +0.000 OA
ENDBRANCH  25  28
ENDBRANCH  21  22
ENDBRANCH  18  20
ENDBRANCH   1  18
TORSDOF 6
ENDMDL
MODEL 3
REMARK VINA RESULT:      -8.0      3.469      3.839
REMARK  Name = 
REMARK  7 active torsions:
REMARK  status: ('A' for Active; 'I' for Inactive)
REMARK    1  A    between atoms: C_1  and  C_2
REMARK    2  A    between atoms: C_2  and  C_3
REMARK    3  A    between atoms: C_3  and  C_4
REMARK    4  A    between atoms: C_10  and  C_11
REMARK    5  A    between atoms: C_14  and  O_15
REMARK    6  A    between atoms: N_19  and  C_20
REMARK    7  A    between atoms: C_23  and  N_24
REMARK                            x       y       z     vdW  Elec       q    Type
REMARK                         _______ _______ _______ _____ _____    ______ ____
ROOT
ATOM      1  C   UNL     1       2.615   4.704  20.450  0.00  0.00    +0.000 C 
ATOM      2  O   UNL     1       1.876   4.717  21.430  0.00  0.00    +0.000 OA
ATOM      3  N   UNL     1       2.763   5.758  19.575  0.00  0.00    +0.000 N 
ATOM      4  C   UNL     1       2.147   6.956  19.845  0.00  0.00    +0.000 A 
ATOM      5  N   UNL     1       1.558   7.356  20.945  0.00  0.00    +0.000 NA
ATOM      6  N   UNL     1       1.023   8.620  20.817  0.00  0.00    +0.000 NA
ATOM      7  C   UNL     1       1.193   9.115  19.604  0.00  0.00    +0.000 A 
ATOM      8  S   UNL     1       2.134   8.090  18.576  0.00  0.00    +0.000 S 
ATOM      9  H   UNL     1       3.229   5.656  18.685  0.00  0.00    +0.000 HD
ENDROOT
BRANCH   7  10
ATOM     10  C   UNL     1       0.678  10.420  19.170  0.00  0.00    +0.000 A 
ATOM     11  C   UNL     1       1.566  11.504  19.051  0.00  0.00    +0.000 A 
ATOM     12  C   UNL     1       1.116  12.769  18.657  0.00  0.00    +0.000 A 
ATOM     13  C   UNL     1      -0.235  12.958  18.392  0.00  0.00    +0.000 A 
ATOM     14  C   UNL     1      -1.136  11.909  18.523  0.00  0.00    +0.000 A 
ATOM     15  C   UNL     1      -0.684  10.645  18.912  0.00  0.00    +0.000 A 
BRANCH  13  16
ATOM     16  O   UNL     1      -0.724  14.169  18.005  0.00  0.00    +0.000 OA
ATOM     17  H   UNL     1      -0.588  14.805  18.726  0.00  0.00    +0.000 HD
ENDBRANCH  13  16
ENDBRANCH   7  10
BRANCH   1  18
ATOM     18  C   UNL     1       3.389   3.459  20.074  0.00  0.00    +0.000 C 
BRANCH  18  20
ATOM     19  C   UNL     1       3.458   2.647  17.597  0.00  0.00    +0.000 C 
ATOM     20  C   UNL     1       4.045   3.512  18.699  0.00  0.00    +0.000 C 
ATOM     21  N   UNL     1       5.020   4.366  18.546  0.00  0.00    +0.000 NA
BRANCH  21  22
ATOM     22  C   UNL     1       5.614   4.599  17.297  0.00  0.00    +0.000 A 
ATOM     23  C   UNL     1       4.847   5.086  16.242  0.00  0.00    +0.000 A 
ATOM     24  C   UNL     1       5.444   5.272  14.992  0.00  0.00    +0.000 A 
ATOM     25  C   UNL     1       6.800   4.972  14.847  0.00  0.00    +0.000 A 
ATOM     26  C   UNL     1       7.492   4.482  15.937  0.00  0.00    +0.000 A 
ATOM     27  N   UNL     1       6.911   4.266  17.141  0.00  0.00    +0.000 NA
BRANCH  25  28
ATOM     28  N   UNL     1       7.489   5.154  13.578  0.00  0.00    +0.000 N 
ATOM     29  O   UNL     1       7.021   4.587  12.583  0.00  0.00    +0.000 OA
ATOM     30  O   UNL     1       8.503   5.867  13.570  0.00  0.00    +0.000 OA
ENDBRANCH  25  28
ENDBRANCH  21  22
ENDBRANCH  18  20
ENDBRANCH   1  18
TORSDOF 6
ENDMDL
MODEL 4
REMARK VINA RESULT:      -7.7      7.159      9.481
REMARK  Name = 
REMARK  7 active torsions:
REMARK  status: ('A' for Active; 'I' for Inactive)
REMARK    1  A    between atoms: C_1  and  C_2
REMARK    2  A    between atoms: C_2  and  C_3
REMARK    3  A    between atoms: C_3  and  C_4
REMARK    4  A    between atoms: C_10  and  C_11
REMARK    5  A    between atoms: C_14  and  O_15
REMARK    6  A    between atoms: N_19  and  C_20
REMARK    7  A    between atoms: C_23  and  N_24
REMARK                            x       y       z     vdW  Elec       q    Type
REMARK                         _______ _______ _______ _____ _____    ______ ____
ROOT
ATOM      1  C   UNL     1       8.253   7.892  18.266  0.00  0.00    +0.000 C 
ATOM      2  O   UNL     1       7.783   8.171  17.168  0.00  0.00    +0.000 OA
ATOM      3  N   UNL     1       8.915   8.788  19.078  0.00  0.00    +0.000 N 
ATOM      4  C   UNL     1       8.974  10.113  18.719  0.00  0.00    +0.000 A 
ATOM      5  N   UNL     1       8.317  10.748  17.780  0.00  0.00    +0.000 NA
ATOM      6  N   UNL     1       8.678  12.076  17.702  0.00  0.00    +0.000 NA
ATOM      7  C   UNL     1       9.629  12.389  18.564  0.00  0.00    +0.000 A 
ATOM      8  S   UNL     1      10.056  11.079  19.611  0.00  0.00    +0.000 S 
ATOM      9  H   UNL     1       9.447   8.492  19.883  0.00  0.00    +0.000 HD
ENDROOT
BRANCH   7  10
ATOM     10  C   UNL     1      10.243  13.719  18.664  0.00  0.00    +0.000 A 
ATOM     11  C   UNL     1       9.588  14.821  18.084  0.00  0.00    +0.000 A 
ATOM     12  C   UNL     1      10.144  16.104  18.140  0.00  0.00    +0.000 A 
ATOM     13  C   UNL     1      11.370  16.287  18.768  0.00  0.00    +0.000 A 
ATOM     14  C   UNL     1      12.047  15.212  19.330  0.00  0.00    +0.000 A 
ATOM     15  C   UNL     1      11.487  13.931  19.276  0.00  0.00    +0.000 A 
BRANCH  13  16
ATOM     16  O   UNL     1      11.953  17.515  18.850  0.00  0.00    +0.000 OA
ATOM     17  H   UNL     1      12.457  17.677  18.036  0.00  0.00    +0.000 HD
ENDBRANCH  13  16
ENDBRANCH   7  10
BRANCH   1  18
ATOM     18  C   UNL     1       8.206   6.476  18.798  0.00  0.00    +0.000 C 
BRANCH  18  20
ATOM     19  C   UNL     1       6.760   5.085  17.133  0.00  0.00    +0.000 C 
ATOM     20  C   UNL     1       6.911   5.729  18.499  0.00  0.00    +0.000 C 
ATOM     21  N   UNL     1       6.052   5.628  19.478  0.00  0.00    +0.000 NA
BRANCH  21  22
ATOM     22  C   UNL     1       4.886   4.856  19.365  0.00  0.00    +0.000 A 
ATOM     23  C   UNL     1       3.654   5.478  19.190  0.00  0.00    +0.000 A 
ATOM     24  C   UNL     1       2.497   4.697  19.122  0.00  0.00    +0.000 A 
ATOM     25  C   UNL     1       2.620   3.310  19.222  0.00  0.00    +0.000 A 
ATOM     26  C   UNL     1       3.876   2.766  19.406  0.00  0.00    +0.000 A 
ATOM     27  N   UNL     1       4.996   3.520  19.508  0.00  0.00    +0.000 NA
BRANCH  25  28
ATOM     28  N   UNL     1       1.460   2.434  19.146  0.00  0.00    +0.000 N 
ATOM     29  O   UNL     1       0.364   2.901  19.483  0.00  0.00    +0.000 OA
ATOM     30  O   UNL     1       1.639   1.274  18.748  0.00  0.00    +0.000 OA
ENDBRANCH  25  28
ENDBRANCH  21  22
ENDBRANCH  18  20
ENDBRANCH   1  18
TORSDOF 6
ENDMDL
MODEL 5
REMARK VINA RESULT:      -7.7      4.135     10.103
REMARK  Name = 
REMARK  7 active torsions:
REMARK  status: ('A' for Active; 'I' for Inactive)
REMARK    1  A    between atoms: C_1  and  C_2
REMARK    2  A    between atoms: C_2  and  C_3
REMARK    3  A    between atoms: C_3  and  C_4
REMARK    4  A    between atoms: C_10  and  C_11
REMARK    5  A    between atoms: C_14  and  O_15
REMARK    6  A    between atoms: N_19  and  C_20
REMARK    7  A    between atoms: C_23  and  N_24
REMARK                            x       y       z     vdW  Elec       q    Type
REMARK                         _______ _______ _______ _____ _____    ______ ____
ROOT
ATOM      1  C   UNL     1       0.764   9.455  21.280  0.00  0.00    +0.000 C 
ATOM      2  O   UNL     1       1.066   8.709  22.206  0.00  0.00    +0.000 OA
ATOM      3  N   UNL     1       1.129   9.251  19.966  0.00  0.00    +0.000 N 
ATOM      4  C   UNL     1       1.778   8.093  19.616  0.00  0.00    +0.000 A 
ATOM      5  N   UNL     1       1.960   7.000  20.314  0.00  0.00    +0.000 NA
ATOM      6  N   UNL     1       2.698   6.061  19.626  0.00  0.00    +0.000 NA
ATOM      7  C   UNL     1       3.083   6.497  18.439  0.00  0.00    +0.000 A 
ATOM      8  S   UNL     1       2.454   8.061  18.052  0.00  0.00    +0.000 S 
ATOM      9  H   UNL     1       1.027   9.968  19.263  0.00  0.00    +0.000 HD
ENDROOT
BRANCH   7  10
ATOM     10  C   UNL     1       3.926   5.727  17.515  0.00  0.00    +0.000 A 
ATOM     11  C   UNL     1       4.724   6.414  16.581  0.00  0.00    +0.000 A 
ATOM     12  C   UNL     1       5.529   5.721  15.670  0.00  0.00    +0.000 A 
ATOM     13  C   UNL     1       5.529   4.332  15.683  0.00  0.00    +0.000 A 
ATOM     14  C   UNL     1       4.735   3.630  16.580  0.00  0.00    +0.000 A 
ATOM     15  C   UNL     1       3.934   4.324  17.492  0.00  0.00    +0.000 A 
BRANCH  13  16
ATOM     16  O   UNL     1       6.296   3.611  14.818  0.00  0.00    +0.000 OA
ATOM     17  H   UNL     1       7.172   3.476  15.216  0.00  0.00    +0.000 HD
ENDBRANCH  13  16
ENDBRANCH   7  10
BRANCH   1  18
ATOM     18  C   UNL     1       0.003  10.740  21.530  0.00  0.00    +0.000 C 
BRANCH  18  20
ATOM     19  C   UNL     1      -0.547  12.686  19.884  0.00  0.00    +0.000 C 
ATOM     20  C   UNL     1       0.481  11.930  20.707  0.00  0.00    +0.000 C 
ATOM     21  N   UNL     1       1.737  12.267  20.836  0.00  0.00    +0.000 NA
BRANCH  21  22
ATOM     22  C   UNL     1       2.262  13.419  20.234  0.00  0.00    +0.000 A 
ATOM     23  C   UNL     1       2.259  14.628  20.923  0.00  0.00    +0.000 A 
ATOM     24  C   UNL     1       2.747  15.775  20.293  0.00  0.00    +0.000 A 
ATOM     25  C   UNL     1       3.234  15.667  18.989  0.00  0.00    +0.000 A 
ATOM     26  C   UNL     1       3.194  14.435  18.366  0.00  0.00    +0.000 A 
ATOM     27  N   UNL     1       2.690  13.327  18.958  0.00  0.00    +0.000 NA
BRANCH  25  28
ATOM     28  N   UNL     1       3.769  16.817  18.276  0.00  0.00    +0.000 N 
ATOM     29  O   UNL     1       3.083  17.300  17.366  0.00  0.00    +0.000 OA
ATOM     30  O   UNL     1       4.878  17.246  18.624  0.00  0.00    +0.000 OA
ENDBRANCH  25  28
ENDBRANCH  21  22
ENDBRANCH  18  20
ENDBRANCH   1  18
TORSDOF 6
ENDMDL
MODEL 6
REMARK VINA RESULT:      -7.7      2.996      3.445
REMARK  Name = 
REMARK  7 active torsions:
REMARK  status: ('A' for Active; 'I' for Inactive)
REMARK    1  A    between atoms: C_1  and  C_2
REMARK    2  A    between atoms: C_2  and  C_3
REMARK    3  A    between atoms: C_3  and  C_4
REMARK    4  A    between atoms: C_10  and  C_11
REMARK    5  A    between atoms: C_14  and  O_15
REMARK    6  A    between atoms: N_19  and  C_20
REMARK    7  A    between atoms: C_23  and  N_24
REMARK                            x       y       z     vdW  Elec       q    Type
REMARK                         _______ _______ _______ _____ _____    ______ ____
ROOT
ATOM      1  C   UNL     1       2.522   5.058  20.226  0.00  0.00    +0.000 C 
ATOM      2  O   UNL     1       1.717   4.892  21.137  0.00  0.00    +0.000 OA
ATOM      3  N   UNL     1       2.676   6.238  19.530  0.00  0.00    +0.000 N 
ATOM      4  C   UNL     1       1.982   7.354  19.926  0.00  0.00    +0.000 A 
ATOM      5  N   UNL     1       1.298   7.559  21.024  0.00  0.00    +0.000 NA
ATOM      6  N   UNL     1       0.708   8.805  21.043  0.00  0.00    +0.000 NA
ATOM      7  C   UNL     1       0.937   9.485  19.934  0.00  0.00    +0.000 A 
ATOM      8  S   UNL     1       1.999   8.666  18.841  0.00  0.00    +0.000 S 
ATOM      9  H   UNL     1       3.208   6.290  18.673  0.00  0.00    +0.000 HD
ENDROOT
BRANCH   7  10
ATOM     10  C   UNL     1       0.386  10.818  19.659  0.00  0.00    +0.000 A 
ATOM     11  C   UNL     1       0.918  11.933  20.333  0.00  0.00    +0.000 A 
ATOM     12  C   UNL     1       0.413  13.219  20.115  0.00  0.00    +0.000 A 
ATOM     13  C   UNL     1      -0.641  13.394  19.227  0.00  0.00    +0.000 A 
ATOM     14  C   UNL     1      -1.199  12.307  18.564  0.00  0.00    +0.000 A 
ATOM     15  C   UNL     1      -0.689  11.023  18.781  0.00  0.00    +0.000 A 
BRANCH  13  16
ATOM     16  O   UNL     1      -1.169  14.625  18.978  0.00  0.00    +0.000 OA
ATOM     17  H   UNL     1      -2.055  14.514  18.597  0.00  0.00    +0.000 HD
ENDBRANCH  13  16
ENDBRANCH   7  10
BRANCH   1  18
ATOM     18  C   UNL     1       3.384   3.916  19.730  0.00  0.00    +0.000 C 
BRANCH  18  20
ATOM     19  C   UNL     1       5.843   4.576  19.171  0.00  0.00    +0.000 C 
ATOM     20  C   UNL     1       4.426   4.314  18.692  0.00  0.00    +0.000 C 
ATOM     21  N   UNL     1       4.040   4.320  17.445  0.00  0.00    +0.000 NA
BRANCH  21  22
ATOM     22  C   UNL     1       4.939   4.542  16.391  0.00  0.00    +0.000 A 
ATOM     23  C   UNL     1       5.168   5.835  15.932  0.00  0.00    +0.000 A 
ATOM     24  C   UNL     1       6.034   6.035  14.853  0.00  0.00    +0.000 A 
ATOM     25  C   UNL     1       6.651   4.923  14.277  0.00  0.00    +0.000 A 
ATOM     26  C   UNL     1       6.366   3.669  14.780  0.00  0.00    +0.000 A 
ATOM     27  N   UNL     1       5.501   3.467  15.802  0.00  0.00    +0.000 NA
BRANCH  25  28
ATOM     28  N   UNL     1       7.574   5.057  13.160  0.00  0.00    +0.000 N 
ATOM     29  O   UNL     1       8.573   5.771  13.322  0.00  0.00    +0.000 OA
ATOM     30  O   UNL     1       7.307   4.448  12.114  0.00  0.00    +0.000 OA
ENDBRANCH  25  28
ENDBRANCH  21  22
ENDBRANCH  18  20
ENDBRANCH   1  18
TORSDOF 6
ENDMDL
MODEL 7
REMARK VINA RESULT:      -7.6      3.609      4.091
REMARK  Name = 
REMARK  7 active torsions:
REMARK  status: ('A' for Active; 'I' for Inactive)
REMARK    1  A    between atoms: C_1  and  C_2
REMARK    2  A    between atoms: C_2  and  C_3
REMARK    3  A    between atoms: C_3  and  C_4
REMARK    4  A    between atoms: C_10  and  C_11
REMARK    5  A    between atoms: C_14  and  O_15
REMARK    6  A    between atoms: N_19  and  C_20
REMARK    7  A    between atoms: C_23  and  N_24
REMARK                            x       y       z     vdW  Elec       q    Type
REMARK                         _______ _______ _______ _____ _____    ______ ____
ROOT
ATOM      1  C   UNL     1       2.632   4.378  20.590  0.00  0.00    +0.000 C 
ATOM      2  O   UNL     1       1.825   4.362  21.514  0.00  0.00    +0.000 OA
ATOM      3  N   UNL     1       2.825   5.450  19.745  0.00  0.00    +0.000 N 
ATOM      4  C   UNL     1       2.171   6.633  19.990  0.00  0.00    +0.000 A 
ATOM      5  N   UNL     1       1.499   7.004  21.051  0.00  0.00    +0.000 NA
ATOM      6  N   UNL     1       0.954   8.262  20.906  0.00  0.00    +0.000 NA
ATOM      7  C   UNL     1       1.202   8.782  19.717  0.00  0.00    +0.000 A 
ATOM      8  S   UNL     1       2.230   7.789  18.742  0.00  0.00    +0.000 S 
ATOM      9  H   UNL     1       3.354   5.370  18.889  0.00  0.00    +0.000 HD
ENDROOT
BRANCH   7  10
ATOM     10  C   UNL     1       0.697  10.086  19.268  0.00  0.00    +0.000 A 
ATOM     11  C   UNL     1      -0.514  10.144  18.555  0.00  0.00    +0.000 A 
ATOM     12  C   UNL     1      -1.025  11.362  18.094  0.00  0.00    +0.000 A 
ATOM     13  C   UNL     1      -0.314  12.532  18.336  0.00  0.00    +0.000 A 
ATOM     14  C   UNL     1       0.894  12.499  19.020  0.00  0.00    +0.000 A 
ATOM     15  C   UNL     1       1.400  11.281  19.483  0.00  0.00    +0.000 A 
BRANCH  13  16
ATOM     16  O   UNL     1      -0.768  13.743  17.909  0.00  0.00    +0.000 OA
ATOM     17  H   UNL     1      -0.133  14.107  17.270  0.00  0.00    +0.000 HD
ENDBRANCH  13  16
ENDBRANCH   7  10
BRANCH   1  18
ATOM     18  C   UNL     1       3.452   3.152  20.250  0.00  0.00    +0.000 C 
BRANCH  18  20
ATOM     19  C   UNL     1       3.511   2.301  17.786  0.00  0.00    +0.000 C 
ATOM     20  C   UNL     1       4.100   3.185  18.871  0.00  0.00    +0.000 C 
ATOM     21  N   UNL     1       5.071   4.042  18.699  0.00  0.00    +0.000 NA
BRANCH  21  22
ATOM     22  C   UNL     1       5.656   4.257  17.442  0.00  0.00    +0.000 A 
ATOM     23  C   UNL     1       7.026   4.482  17.342  0.00  0.00    +0.000 A 
ATOM     24  C   UNL     1       7.587   4.737  16.088  0.00  0.00    +0.000 A 
ATOM     25  C   UNL     1       6.750   4.746  14.971  0.00  0.00    +0.000 A 
ATOM     26  C   UNL     1       5.399   4.525  15.150  0.00  0.00    +0.000 A 
ATOM     27  N   UNL     1       4.844   4.312  16.367  0.00  0.00    +0.000 NA
BRANCH  25  28
ATOM     28  N   UNL     1       7.268   4.991  13.633  0.00  0.00    +0.000 N 
ATOM     29  O   UNL     1       8.228   5.765  13.520  0.00  0.00    +0.000 OA
ATOM     30  O   UNL     1       6.718   4.410  12.687  0.00  0.00    +0.000 OA
ENDBRANCH  25  28
ENDBRANCH  21  22
ENDBRANCH  18  20
ENDBRANCH   1  18
TORSDOF 6
ENDMDL
MODEL 8
REMARK VINA RESULT:      -7.6      4.092     10.218
REMARK  Name = 
REMARK  7 active torsions:
REMARK  status: ('A' for Active; 'I' for Inactive)
REMARK    1  A    between atoms: C_1  and  C_2
REMARK    2  A    between atoms: C_2  and  C_3
REMARK    3  A    between atoms: C_3  and  C_4
REMARK    4  A    between atoms: C_10  and  C_11
REMARK    5  A    between atoms: C_14  and  O_15
REMARK    6  A    between atoms: N_19  and  C_20
REMARK    7  A    between atoms: C_23  and  N_24
REMARK                            x       y       z     vdW  Elec       q    Type
REMARK                         _______ _______ _______ _____ _____    ______ ____
ROOT
ATOM      1  C   UNL     1       0.890   9.219  21.306  0.00  0.00    +0.000 C 
ATOM      2  O   UNL     1       1.205   8.434  22.195  0.00  0.00    +0.000 OA
ATOM      3  N   UNL     1       1.251   9.082  19.983  0.00  0.00    +0.000 N 
ATOM      4  C   UNL     1       1.912   7.948  19.575  0.00  0.00    +0.000 A 
ATOM      5  N   UNL     1       2.110   6.826  20.221  0.00  0.00    +0.000 NA
ATOM      6  N   UNL     1       2.855   5.929  19.485  0.00  0.00    +0.000 NA
ATOM      7  C   UNL     1       3.229   6.425  18.319  0.00  0.00    +0.000 A 
ATOM      8  S   UNL     1       2.580   7.998  18.009  0.00  0.00    +0.000 S 
ATOM      9  H   UNL     1       1.138   9.829  19.315  0.00  0.00    +0.000 HD
ENDROOT
BRANCH   7  10
ATOM     10  C   UNL     1       4.076   5.710  17.356  0.00  0.00    +0.000 A 
ATOM     11  C   UNL     1       4.778   6.444  16.382  0.00  0.00    +0.000 A 
ATOM     12  C   UNL     1       5.583   5.803  15.434  0.00  0.00    +0.000 A 
ATOM     13  C   UNL     1       5.680   4.417  15.450  0.00  0.00    +0.000 A 
ATOM     14  C   UNL     1       4.981   3.668  16.388  0.00  0.00    +0.000 A 
ATOM     15  C   UNL     1       4.180   4.311  17.337  0.00  0.00    +0.000 A 
BRANCH  13  16
ATOM     16  O   UNL     1       6.451   3.745  14.550  0.00  0.00    +0.000 OA
ATOM     17  H   UNL     1       6.411   4.209  13.697  0.00  0.00    +0.000 HD
ENDBRANCH  13  16
ENDBRANCH   7  10
BRANCH   1  18
ATOM     18  C   UNL     1       0.115  10.481  21.619  0.00  0.00    +0.000 C 
BRANCH  18  20
ATOM     19  C   UNL     1      -0.778  12.015  19.710  0.00  0.00    +0.000 C 
ATOM     20  C   UNL     1       0.353  11.629  20.646  0.00  0.00    +0.000 C 
ATOM     21  N   UNL     1       1.495  12.256  20.745  0.00  0.00    +0.000 NA
BRANCH  21  22
ATOM     22  C   UNL     1       1.777  13.407  19.995  0.00  0.00    +0.000 A 
ATOM     23  C   UNL     1       2.488  13.304  18.803  0.00  0.00    +0.000 A 
ATOM     24  C   UNL     1       2.797  14.465  18.089  0.00  0.00    +0.000 A 
ATOM     25  C   UNL     1       2.370  15.695  18.594  0.00  0.00    +0.000 A 
ATOM     26  C   UNL     1       1.678  15.718  19.789  0.00  0.00    +0.000 A 
ATOM     27  N   UNL     1       1.406  14.600  20.503  0.00  0.00    +0.000 NA
BRANCH  25  28
ATOM     28  N   UNL     1       2.645  16.942  17.897  0.00  0.00    +0.000 N 
ATOM     29  O   UNL     1       3.828  17.291  17.787  0.00  0.00    +0.000 OA
ATOM     30  O   UNL     1       1.680  17.580  17.454  0.00  0.00    +0.000 OA
ENDBRANCH  25  28
ENDBRANCH  21  22
ENDBRANCH  18  20
ENDBRANCH   1  18
TORSDOF 6
ENDMDL
MODEL 9
REMARK VINA RESULT:      -7.6      7.282      8.964
REMARK  Name = 
REMARK  7 active torsions:
REMARK  status: ('A' for Active; 'I' for Inactive)
REMARK    1  A    between atoms: C_1  and  C_2
REMARK    2  A    between atoms: C_2  and  C_3
REMARK    3  A    between atoms: C_3  and  C_4
REMARK    4  A    between atoms: C_10  and  C_11
REMARK    5  A    between atoms: C_14  and  O_15
REMARK    6  A    between atoms: N_19  and  C_20
REMARK    7  A    between atoms: C_23  and  N_24
REMARK                            x       y       z     vdW  Elec       q    Type
REMARK                         _______ _______ _______ _____ _____    ______ ____
ROOT
ATOM      1  C   UNL     1       7.889   7.683  17.805  0.00  0.00    +0.000 C 
ATOM      2  O   UNL     1       8.287   7.242  18.878  0.00  0.00    +0.000 OA
ATOM      3  N   UNL     1       7.978   9.006  17.427  0.00  0.00    +0.000 N 
ATOM      4  C   UNL     1       8.649   9.896  18.229  0.00  0.00    +0.000 A 
ATOM      5  N   UNL     1       9.423   9.664  19.260  0.00  0.00    +0.000 NA
ATOM      6  N   UNL     1       9.889  10.829  19.832  0.00  0.00    +0.000 NA
ATOM      7  C   UNL     1       9.415  11.906  19.232  0.00  0.00    +0.000 A 
ATOM      8  S   UNL     1       8.450  11.543  17.843  0.00  0.00    +0.000 S 
ATOM      9  H   UNL     1       7.481   9.370  16.627  0.00  0.00    +0.000 HD
ENDROOT
BRANCH   7  10
ATOM     10  C   UNL     1       9.701  13.280  19.664  0.00  0.00    +0.000 A 
ATOM     11  C   UNL     1       9.986  13.527  21.020  0.00  0.00    +0.000 A 
ATOM     12  C   UNL     1      10.248  14.822  21.480  0.00  0.00    +0.000 A 
ATOM     13  C   UNL     1      10.213  15.882  20.582  0.00  0.00    +0.000 A 
ATOM     14  C   UNL     1       9.913  15.668  19.242  0.00  0.00    +0.000 A 
ATOM     15  C   UNL     1       9.656  14.372  18.784  0.00  0.00    +0.000 A 
BRANCH  13  16
ATOM     16  O   UNL     1      10.462  17.162  20.978  0.00  0.00    +0.000 OA
ATOM     17  H   UNL     1      10.217  17.252  21.914  0.00  0.00    +0.000 HD
ENDBRANCH  13  16
ENDBRANCH   7  10
BRANCH   1  18
ATOM     18  C   UNL     1       7.178   6.790  16.811  0.00  0.00    +0.000 C 
BRANCH  18  20
ATOM     19  C   UNL     1       4.598   7.104  17.007  0.00  0.00    +0.000 C 
ATOM     20  C   UNL     1       5.830   6.261  17.285  0.00  0.00    +0.000 C 
ATOM     21  N   UNL     1       5.823   5.073  17.827  0.00  0.00    +0.000 NA
BRANCH  21  22
ATOM     22  C   UNL     1       4.630   4.427  18.183  0.00  0.00    +0.000 A 
ATOM     23  C   UNL     1       3.918   3.705  17.229  0.00  0.00    +0.000 A 
ATOM     24  C   UNL     1       2.709   3.103  17.589  0.00  0.00    +0.000 A 
ATOM     25  C   UNL     1       2.261   3.238  18.905  0.00  0.00    +0.000 A 
ATOM     26  C   UNL     1       3.017   3.978  19.792  0.00  0.00    +0.000 A 
ATOM     27  N   UNL     1       4.171   4.593  19.440  0.00  0.00    +0.000 NA
BRANCH  25  28
ATOM     28  N   UNL     1       1.018   2.627  19.353  0.00  0.00    +0.000 N 
ATOM     29  O   UNL     1       0.281   2.127  18.493  0.00  0.00    +0.000 OA
ATOM     30  O   UNL     1       0.774   2.641  20.568  0.00  0.00    +0.000 OA
ENDBRANCH  25  28
ENDBRANCH  21  22
ENDBRANCH  18  20
ENDBRANCH   1  18
TORSDOF 6
ENDMDL
