MODEL 1
REMARK VINA RESULT:      -7.7      0.000      0.000
REMARK  Name = 
REMARK  6 active torsions:
REMARK  status: ('A' for Active; 'I' for Inactive)
REMARK    1  A    between atoms: C_1  and  C_2
REMARK    2  A    between atoms: C_4  and  C_5
REMARK    3  A    between atoms: N_8  and  S_9
REMARK    4  A    between atoms: S_9  and  C_12
REMARK    5  A    between atoms: C_15  and  N_16
REMARK    6  A    between atoms: C_17  and  C_19
REMARK                            x       y       z     vdW  Elec       q    Type
REMARK                         _______ _______ _______ _____ _____    ______ ____
ROOT
ATOM      1  S   UNL     1       2.805   3.044  17.775  0.00  0.00    +0.000 S 
ATOM      2  O   UNL     1       2.259   3.335  16.468  0.00  0.00    +0.000 OA
ATOM      3  O   UNL     1       2.346   1.887  18.520  0.00  0.00    +0.000 OA
ENDROOT
BRANCH   1  11
ATOM      4  C   UNL     1       6.454   3.894  13.477  0.00  0.00    +0.000 C 
ATOM      5  C   UNL     1       6.121   4.303  14.880  0.00  0.00    +0.000 A 
ATOM      6  C   UNL     1       6.546   5.519  15.381  0.00  0.00    +0.000 A 
ATOM      7  C   UNL     1       6.202   5.809  16.689  0.00  0.00    +0.000 A 
ATOM      8  C   UNL     1       6.632   7.096  17.325  0.00  0.00    +0.000 C 
ATOM      9  N   UNL     1       5.495   4.952  17.456  0.00  0.00    +0.000 NA
ATOM     10  C   UNL     1       5.117   3.818  16.861  0.00  0.00    +0.000 A 
ATOM     11  N   UNL     1       4.467   2.900  17.679  0.00  0.00    +0.000 N 
ATOM     12  N   UNL     1       5.394   3.436  15.615  0.00  0.00    +0.000 NA
ATOM     13  H   UNL     1       4.906   2.796  18.584  0.00  0.00    +0.000 HD
ENDBRANCH   1  11
BRANCH   1  14
ATOM     14  C   UNL     1       2.506   4.464  18.810  0.00  0.00    +0.000 A 
ATOM     15  C   UNL     1       2.329   4.286  20.180  0.00  0.00    +0.000 A 
ATOM     16  C   UNL     1       2.071   5.399  20.990  0.00  0.00    +0.000 A 
ATOM     17  C   UNL     1       2.007   6.688  20.450  0.00  0.00    +0.000 A 
ATOM     18  C   UNL     1       2.227   6.854  19.076  0.00  0.00    +0.000 A 
ATOM     19  C   UNL     1       2.486   5.744  18.254  0.00  0.00    +0.000 A 
BRANCH  17  20
ATOM     20  N   UNL     1       1.734   7.822  21.249  0.00  0.00    +0.000 N 
ATOM     21  C   UNL     1       0.505   8.445  21.439  0.00  0.00    +0.000 C 
ATOM     22  O   UNL     1      -0.567   8.140  20.939  0.00  0.00    +0.000 OA
ATOM     23  H   UNL     1       2.526   8.227  21.730  0.00  0.00    +0.000 HD
BRANCH  21  24
ATOM     24  C   UNL     1       0.584   9.633  22.334  0.00  0.00    +0.000 C 
ATOM     25  C   UNL     1      -0.681  10.407  22.643  0.00  0.00    +0.000 C 
ATOM     26  C   UNL     1      -0.005   9.624  23.731  0.00  0.00    +0.000 C 
ENDBRANCH  21  24
ENDBRANCH  17  20
ENDBRANCH   1  14
TORSDOF 4
ENDMDL
MODEL 2
REMARK VINA RESULT:      -7.4      3.798      8.665
REMARK  Name = 
REMARK  6 active torsions:
REMARK  status: ('A' for Active; 'I' for Inactive)
REMARK    1  A    between atoms: C_1  and  C_2
REMARK    2  A    between atoms: C_4  and  C_5
REMARK    3  A    between atoms: N_8  and  S_9
REMARK    4  A    between atoms: S_9  and  C_12
REMARK    5  A    between atoms: C_15  and  N_16
REMARK    6  A    between atoms: C_17  and  C_19
REMARK                            x       y       z     vdW  Elec       q    Type
REMARK                         _______ _______ _______ _____ _____    ______ ____
ROOT
ATOM      1  S   UNL     1       0.593   9.769  20.695  0.00  0.00    +0.000 S 
ATOM      2  O   UNL     1       1.410  10.229  21.796  0.00  0.00    +0.000 OA
ATOM      3  O   UNL     1      -0.692   9.145  20.947  0.00  0.00    +0.000 OA
ENDROOT
BRANCH   1  11
ATOM      4  C   UNL     1      -2.691  10.141  16.050  0.00  0.00    +0.000 C 
ATOM      5  C   UNL     1      -2.432  10.740  17.399  0.00  0.00    +0.000 A 
ATOM      6  C   UNL     1      -3.420  11.444  18.061  0.00  0.00    +0.000 A 
ATOM      7  C   UNL     1      -3.090  11.970  19.297  0.00  0.00    +0.000 A 
ATOM      8  C   UNL     1      -4.090  12.763  20.082  0.00  0.00    +0.000 C 
ATOM      9  N   UNL     1      -1.861  11.823  19.838  0.00  0.00    +0.000 NA
ATOM     10  C   UNL     1      -0.995  11.103  19.121  0.00  0.00    +0.000 A 
ATOM     11  N   UNL     1       0.294  11.029  19.640  0.00  0.00    +0.000 N 
ATOM     12  N   UNL     1      -1.203  10.556  17.925  0.00  0.00    +0.000 NA
ATOM     13  H   UNL     1       0.636  11.918  19.981  0.00  0.00    +0.000 HD
ENDBRANCH   1  11
BRANCH   1  14
ATOM     14  C   UNL     1       1.556   8.588  19.770  0.00  0.00    +0.000 A 
ATOM     15  C   UNL     1       2.010   8.924  18.497  0.00  0.00    +0.000 A 
ATOM     16  C   UNL     1       2.747   7.988  17.760  0.00  0.00    +0.000 A 
ATOM     17  C   UNL     1       3.053   6.729  18.289  0.00  0.00    +0.000 A 
ATOM     18  C   UNL     1       2.622   6.422  19.587  0.00  0.00    +0.000 A 
ATOM     19  C   UNL     1       1.882   7.353  20.334  0.00  0.00    +0.000 A 
BRANCH  17  20
ATOM     20  N   UNL     1       3.783   5.766  17.556  0.00  0.00    +0.000 N 
ATOM     21  C   UNL     1       5.074   5.313  17.808  0.00  0.00    +0.000 C 
ATOM     22  O   UNL     1       5.826   5.675  18.700  0.00  0.00    +0.000 OA
ATOM     23  H   UNL     1       3.313   5.367  16.754  0.00  0.00    +0.000 HD
BRANCH  21  24
ATOM     24  C   UNL     1       5.544   4.304  16.818  0.00  0.00    +0.000 C 
ATOM     25  C   UNL     1       5.383   4.593  15.340  0.00  0.00    +0.000 C 
ATOM     26  C   UNL     1       6.758   4.547  15.943  0.00  0.00    +0.000 C 
ENDBRANCH  21  24
ENDBRANCH  17  20
ENDBRANCH   1  14
TORSDOF 4
ENDMDL
MODEL 3
REMARK VINA RESULT:      -7.4      0.831      1.035
REMARK  Name = 
REMARK  6 active torsions:
REMARK  status: ('A' for Active; 'I' for Inactive)
REMARK    1  A    between atoms: C_1  and  C_2
REMARK    2  A    between atoms: C_4  and  C_5
REMARK    3  A    between atoms: N_8  and  S_9
REMARK    4  A    between atoms: S_9  and  C_12
REMARK    5  A    between atoms: C_15  and  N_16
REMARK    6  A    between atoms: C_17  and  C_19
REMARK                            x       y       z     vdW  Elec       q    Type
REMARK                         _______ _______ _______ _____ _____    ______ ____
ROOT
ATOM      1  S   UNL     1       2.815   3.213  18.215  0.00  0.00    +0.000 S 
ATOM      2  O   UNL     1       2.231   3.180  16.893  0.00  0.00    +0.000 OA
ATOM      3  O   UNL     1       2.430   2.231  19.211  0.00  0.00    +0.000 OA
ENDROOT
BRANCH   1  11
ATOM      4  C   UNL     1       6.371   3.828  13.802  0.00  0.00    +0.000 C 
ATOM      5  C   UNL     1       6.038   4.345  15.169  0.00  0.00    +0.000 A 
ATOM      6  C   UNL     1       6.418   5.617  15.554  0.00  0.00    +0.000 A 
ATOM      7  C   UNL     1       6.078   6.008  16.836  0.00  0.00    +0.000 A 
ATOM      8  C   UNL     1       6.462   7.363  17.349  0.00  0.00    +0.000 C 
ATOM      9  N   UNL     1       5.418   5.194  17.687  0.00  0.00    +0.000 NA
ATOM     10  C   UNL     1       5.080   3.998  17.199  0.00  0.00    +0.000 A 
ATOM     11  N   UNL     1       4.480   3.130  18.106  0.00  0.00    +0.000 N 
ATOM     12  N   UNL     1       5.358   3.518  15.988  0.00  0.00    +0.000 NA
ATOM     13  H   UNL     1       4.934   3.124  19.009  0.00  0.00    +0.000 HD
ENDBRANCH   1  11
BRANCH   1  14
ATOM     14  C   UNL     1       2.460   4.813  18.918  0.00  0.00    +0.000 A 
ATOM     15  C   UNL     1       2.299   4.934  20.296  0.00  0.00    +0.000 A 
ATOM     16  C   UNL     1       1.997   6.186  20.846  0.00  0.00    +0.000 A 
ATOM     17  C   UNL     1       1.875   7.321  20.037  0.00  0.00    +0.000 A 
ATOM     18  C   UNL     1       2.079   7.189  18.656  0.00  0.00    +0.000 A 
ATOM     19  C   UNL     1       2.382   5.938  18.095  0.00  0.00    +0.000 A 
BRANCH  17  20
ATOM     20  N   UNL     1       1.558   8.590  20.572  0.00  0.00    +0.000 N 
ATOM     21  C   UNL     1       0.420   8.945  21.289  0.00  0.00    +0.000 C 
ATOM     22  O   UNL     1      -0.528   8.229  21.578  0.00  0.00    +0.000 OA
ATOM     23  H   UNL     1       2.234   9.324  20.406  0.00  0.00    +0.000 HD
BRANCH  21  24
ATOM     24  C   UNL     1       0.401  10.380  21.684  0.00  0.00    +0.000 C 
ATOM     25  C   UNL     1       1.052  11.403  20.776  0.00  0.00    +0.000 C 
ATOM     26  C   UNL     1      -0.440  11.403  20.945  0.00  0.00    +0.000 C 
ENDBRANCH  21  24
ENDBRANCH  17  20
ENDBRANCH   1  14
TORSDOF 4
ENDMDL
MODEL 4
REMARK VINA RESULT:      -7.4      3.950      7.028
REMARK  Name = 
REMARK  6 active torsions:
REMARK  status: ('A' for Active; 'I' for Inactive)
REMARK    1  A    between atoms: C_1  and  C_2
REMARK    2  A    between atoms: C_4  and  C_5
REMARK    3  A    between atoms: N_8  and  S_9
REMARK    4  A    between atoms: S_9  and  C_12
REMARK    5  A    between atoms: C_15  and  N_16
REMARK    6  A    between atoms: C_17  and  C_19
REMARK                            x       y       z     vdW  Elec       q    Type
REMARK                         _______ _______ _______ _____ _____    ______ ____
ROOT
ATOM      1  S   UNL     1       5.807   4.615  17.867  0.00  0.00    +0.000 S 
ATOM      2  O   UNL     1       5.785   4.063  19.203  0.00  0.00    +0.000 OA
ATOM      3  O   UNL     1       6.360   3.848  16.767  0.00  0.00    +0.000 OA
ENDROOT
BRANCH   1  11
ATOM      4  C   UNL     1       0.723   2.281  18.969  0.00  0.00    +0.000 C 
ATOM      5  C   UNL     1       1.523   3.545  19.073  0.00  0.00    +0.000 A 
ATOM      6  C   UNL     1       1.195   4.513  20.004  0.00  0.00    +0.000 A 
ATOM      7  C   UNL     1       1.981   5.651  20.023  0.00  0.00    +0.000 A 
ATOM      8  C   UNL     1       1.692   6.763  20.985  0.00  0.00    +0.000 C 
ATOM      9  N   UNL     1       3.014   5.828  19.172  0.00  0.00    +0.000 NA
ATOM     10  C   UNL     1       3.254   4.818  18.333  0.00  0.00    +0.000 A 
ATOM     11  N   UNL     1       4.261   5.041  17.399  0.00  0.00    +0.000 N 
ATOM     12  N   UNL     1       2.563   3.684  18.226  0.00  0.00    +0.000 NA
ATOM     13  H   UNL     1       4.215   5.959  16.980  0.00  0.00    +0.000 HD
ENDBRANCH   1  11
BRANCH   1  14
ATOM     14  C   UNL     1       6.725   6.141  17.932  0.00  0.00    +0.000 A 
ATOM     15  C   UNL     1       7.826   6.241  18.779  0.00  0.00    +0.000 A 
ATOM     16  C   UNL     1       8.534   7.448  18.848  0.00  0.00    +0.000 A 
ATOM     17  C   UNL     1       8.166   8.548  18.066  0.00  0.00    +0.000 A 
ATOM     18  C   UNL     1       7.080   8.419  17.190  0.00  0.00    +0.000 A 
ATOM     19  C   UNL     1       6.363   7.213  17.114  0.00  0.00    +0.000 A 
BRANCH  17  20
ATOM     20  N   UNL     1       8.859   9.778  18.132  0.00  0.00    +0.000 N 
ATOM     21  C   UNL     1       9.240  10.474  19.275  0.00  0.00    +0.000 C 
ATOM     22  O   UNL     1       9.033  10.160  20.438  0.00  0.00    +0.000 OA
ATOM     23  H   UNL     1       9.098  10.202  17.245  0.00  0.00    +0.000 HD
BRANCH  21  24
ATOM     24  C   UNL     1       9.940  11.754  18.975  0.00  0.00    +0.000 C 
ATOM     25  C   UNL     1      11.413  11.883  19.307  0.00  0.00    +0.000 C 
ATOM     26  C   UNL     1      10.974  11.861  17.871  0.00  0.00    +0.000 C 
ENDBRANCH  21  24
ENDBRANCH  17  20
ENDBRANCH   1  14
TORSDOF 4
ENDMDL
MODEL 5
REMARK VINA RESULT:      -7.3      3.326      8.596
REMARK  Name = 
REMARK  6 active torsions:
REMARK  status: ('A' for Active; 'I' for Inactive)
REMARK    1  A    between atoms: C_1  and  C_2
REMARK    2  A    between atoms: C_4  and  C_5
REMARK    3  A    between atoms: N_8  and  S_9
REMARK    4  A    between atoms: S_9  and  C_12
REMARK    5  A    between atoms: C_15  and  N_16
REMARK    6  A    between atoms: C_17  and  C_19
REMARK                            x       y       z     vdW  Elec       q    Type
REMARK                         _______ _______ _______ _____ _____    ______ ____
ROOT
ATOM      1  S   UNL     1       0.847   9.208  21.226  0.00  0.00    +0.000 S 
ATOM      2  O   UNL     1       1.667   9.342  22.409  0.00  0.00    +0.000 OA
ATOM      3  O   UNL     1      -0.520   8.734  21.331  0.00  0.00    +0.000 OA
ENDROOT
BRANCH   1  11
ATOM      4  C   UNL     1      -2.413  10.987  16.899  0.00  0.00    +0.000 C 
ATOM      5  C   UNL     1      -2.015  11.280  18.314  0.00  0.00    +0.000 A 
ATOM      6  C   UNL     1      -2.838  12.022  19.140  0.00  0.00    +0.000 A 
ATOM      7  C   UNL     1      -2.387  12.253  20.427  0.00  0.00    +0.000 A 
ATOM      8  C   UNL     1      -3.202  13.062  21.389  0.00  0.00    +0.000 C 
ATOM      9  N   UNL     1      -1.196  11.792  20.867  0.00  0.00    +0.000 NA
ATOM     10  C   UNL     1      -0.497  11.066  19.992  0.00  0.00    +0.000 A 
ATOM     11  N   UNL     1       0.767  10.669  20.418  0.00  0.00    +0.000 N 
ATOM     12  N   UNL     1      -0.832  10.786  18.733  0.00  0.00    +0.000 NA
ATOM     13  H   UNL     1       1.277  11.406  20.885  0.00  0.00    +0.000 HD
ENDBRANCH   1  11
BRANCH   1  14
ATOM     14  C   UNL     1       1.686   8.093  20.116  0.00  0.00    +0.000 A 
ATOM     15  C   UNL     1       1.923   6.781  20.516  0.00  0.00    +0.000 A 
ATOM     16  C   UNL     1       2.603   5.911  19.654  0.00  0.00    +0.000 A 
ATOM     17  C   UNL     1       3.030   6.332  18.390  0.00  0.00    +0.000 A 
ATOM     18  C   UNL     1       2.748   7.645  17.987  0.00  0.00    +0.000 A 
ATOM     19  C   UNL     1       2.067   8.525  18.845  0.00  0.00    +0.000 A 
BRANCH  17  20
ATOM     20  N   UNL     1       3.729   5.474  17.511  0.00  0.00    +0.000 N 
ATOM     21  C   UNL     1       4.990   4.918  17.699  0.00  0.00    +0.000 C 
ATOM     22  O   UNL     1       5.738   5.079  18.652  0.00  0.00    +0.000 OA
ATOM     23  H   UNL     1       3.259   5.246  16.645  0.00  0.00    +0.000 HD
BRANCH  21  24
ATOM     24  C   UNL     1       5.433   4.073  16.556  0.00  0.00    +0.000 C 
ATOM     25  C   UNL     1       5.354   4.634  15.151  0.00  0.00    +0.000 C 
ATOM     26  C   UNL     1       6.696   4.381  15.775  0.00  0.00    +0.000 C 
ENDBRANCH  21  24
ENDBRANCH  17  20
ENDBRANCH   1  14
TORSDOF 4
ENDMDL
MODEL 6
REMARK VINA RESULT:      -7.3      4.175      8.712
REMARK  Name = 
REMARK  6 active torsions:
REMARK  status: ('A' for Active; 'I' for Inactive)
REMARK    1  A    between atoms: C_1  and  C_2
REMARK    2  A    between atoms: C_4  and  C_5
REMARK    3  A    between atoms: N_8  and  S_9
REMARK    4  A    between atoms: S_9  and  C_12
REMARK    5  A    between atoms: C_15  and  N_16
REMARK    6  A    between atoms: C_17  and  C_19
REMARK                            x       y       z     vdW  Elec       q    Type
REMARK                         _______ _______ _______ _____ _____    ______ ____
ROOT
ATOM      1  S   UNL     1       0.310  10.911  20.545  0.00  0.00    +0.000 S 
ATOM      2  O   UNL     1       1.292  11.659  21.298  0.00  0.00    +0.000 OA
ATOM      3  O   UNL     1      -0.868  10.379  21.203  0.00  0.00    +0.000 OA
ENDROOT
BRANCH   1  11
ATOM      4  C   UNL     1      -2.847   9.563  15.993  0.00  0.00    +0.000 C 
ATOM      5  C   UNL     1      -2.772  10.463  17.190  0.00  0.00    +0.000 A 
ATOM      6  C   UNL     1      -3.915  11.030  17.720  0.00  0.00    +0.000 A 
ATOM      7  C   UNL     1      -3.751  11.855  18.819  0.00  0.00    +0.000 A 
ATOM      8  C   UNL     1      -4.930  12.528  19.451  0.00  0.00    +0.000 C 
ATOM      9  N   UNL     1      -2.537  12.113  19.351  0.00  0.00    +0.000 NA
ATOM     10  C   UNL     1      -1.506  11.491  18.773  0.00  0.00    +0.000 A 
ATOM     11  N   UNL     1      -0.251  11.829  19.267  0.00  0.00    +0.000 N 
ATOM     12  N   UNL     1      -1.549  10.683  17.715  0.00  0.00    +0.000 NA
ATOM     13  H   UNL     1      -0.138  12.822  19.416  0.00  0.00    +0.000 HD
ENDBRANCH   1  11
BRANCH   1  14
ATOM     14  C   UNL     1       1.146   9.521  19.806  0.00  0.00    +0.000 A 
ATOM     15  C   UNL     1       1.566   9.601  18.481  0.00  0.00    +0.000 A 
ATOM     16  C   UNL     1       2.202   8.501  17.893  0.00  0.00    +0.000 A 
ATOM     17  C   UNL     1       2.442   7.330  18.619  0.00  0.00    +0.000 A 
ATOM     18  C   UNL     1       2.048   7.279  19.964  0.00  0.00    +0.000 A 
ATOM     19  C   UNL     1       1.409   8.377  20.563  0.00  0.00    +0.000 A 
BRANCH  17  20
ATOM     20  N   UNL     1       3.070   6.204  18.039  0.00  0.00    +0.000 N 
ATOM     21  C   UNL     1       2.500   4.963  17.772  0.00  0.00    +0.000 C 
ATOM     22  O   UNL     1       1.355   4.607  18.004  0.00  0.00    +0.000 OA
ATOM     23  H   UNL     1       4.046   6.315  17.798  0.00  0.00    +0.000 HD
BRANCH  21  24
ATOM     24  C   UNL     1       3.461   3.996  17.173  0.00  0.00    +0.000 C 
ATOM     25  C   UNL     1       4.884   3.953  17.693  0.00  0.00    +0.000 C 
ATOM     26  C   UNL     1       3.967   2.790  17.941  0.00  0.00    +0.000 C 
ENDBRANCH  21  24
ENDBRANCH  17  20
ENDBRANCH   1  14
TORSDOF 4
ENDMDL
MODEL 7
REMARK VINA RESULT:      -7.2      3.684      8.587
REMARK  Name = 
REMARK  6 active torsions:
REMARK  status: ('A' for Active; 'I' for Inactive)
REMARK    1  A    between atoms: C_1  and  C_2
REMARK    2  A    between atoms: C_4  and  C_5
REMARK    3  A    between atoms: N_8  and  S_9
REMARK    4  A    between atoms: S_9  and  C_12
REMARK    5  A    between atoms: C_15  and  N_16
REMARK    6  A    between atoms: C_17  and  C_19
REMARK                            x       y       z     vdW  Elec       q    Type
REMARK                         _______ _______ _______ _____ _____    ______ ____
ROOT
ATOM      1  S   UNL     1       0.653   9.608  20.734  0.00  0.00    +0.000 S 
ATOM      2  O   UNL     1       1.499  10.064  21.815  0.00  0.00    +0.000 OA
ATOM      3  O   UNL     1      -0.652   9.040  21.015  0.00  0.00    +0.000 OA
ENDROOT
BRANCH   1  11
ATOM      4  C   UNL     1      -2.655   9.980  16.106  0.00  0.00    +0.000 C 
ATOM      5  C   UNL     1      -2.363  10.603  17.437  0.00  0.00    +0.000 A 
ATOM      6  C   UNL     1      -3.319  11.359  18.088  0.00  0.00    +0.000 A 
ATOM      7  C   UNL     1      -2.960  11.905  19.307  0.00  0.00    +0.000 A 
ATOM      8  C   UNL     1      -3.924  12.753  20.079  0.00  0.00    +0.000 C 
ATOM      9  N   UNL     1      -1.733  11.726  19.843  0.00  0.00    +0.000 NA
ATOM     10  C   UNL     1      -0.899  10.958  19.139  0.00  0.00    +0.000 A 
ATOM     11  N   UNL     1       0.391  10.851  19.650  0.00  0.00    +0.000 N 
ATOM     12  N   UNL     1      -1.137  10.389  17.959  0.00  0.00    +0.000 NA
ATOM     13  H   UNL     1       0.767  11.735  19.965  0.00  0.00    +0.000 HD
ENDBRANCH   1  11
BRANCH   1  14
ATOM     14  C   UNL     1       1.560   8.367  19.831  0.00  0.00    +0.000 A 
ATOM     15  C   UNL     1       1.831   7.143  20.435  0.00  0.00    +0.000 A 
ATOM     16  C   UNL     1       2.565   6.177  19.735  0.00  0.00    +0.000 A 
ATOM     17  C   UNL     1       3.012   6.413  18.430  0.00  0.00    +0.000 A 
ATOM     18  C   UNL     1       2.697   7.636  17.822  0.00  0.00    +0.000 A 
ATOM     19  C   UNL     1       1.962   8.612  18.517  0.00  0.00    +0.000 A 
BRANCH  17  20
ATOM     20  N   UNL     1       3.764   5.457  17.712  0.00  0.00    +0.000 N 
ATOM     21  C   UNL     1       4.772   5.699  16.783  0.00  0.00    +0.000 C 
ATOM     22  O   UNL     1       5.184   6.784  16.401  0.00  0.00    +0.000 OA
ATOM     23  H   UNL     1       3.538   4.488  17.891  0.00  0.00    +0.000 HD
BRANCH  21  24
ATOM     24  C   UNL     1       5.341   4.452  16.200  0.00  0.00    +0.000 C 
ATOM     25  C   UNL     1       5.591   4.386  14.707  0.00  0.00    +0.000 C 
ATOM     26  C   UNL     1       6.755   4.396  15.656  0.00  0.00    +0.000 C 
ENDBRANCH  21  24
ENDBRANCH  17  20
ENDBRANCH   1  14
TORSDOF 4
ENDMDL
MODEL 8
REMARK VINA RESULT:      -7.2      4.716      8.684
REMARK  Name = 
REMARK  6 active torsions:
REMARK  status: ('A' for Active; 'I' for Inactive)
REMARK    1  A    between atoms: C_1  and  C_2
REMARK    2  A    between atoms: C_4  and  C_5
REMARK    3  A    between atoms: N_8  and  S_9
REMARK    4  A    between atoms: S_9  and  C_12
REMARK    5  A    between atoms: C_15  and  N_16
REMARK    6  A    between atoms: C_17  and  C_19
REMARK                            x       y       z     vdW  Elec       q    Type
REMARK                         _______ _______ _______ _____ _____    ______ ____
ROOT
ATOM      1  S   UNL     1       0.445  11.083  19.935  0.00  0.00    +0.000 S 
ATOM      2  O   UNL     1       1.282  11.733  20.919  0.00  0.00    +0.000 OA
ATOM      3  O   UNL     1      -0.936  10.763  20.244  0.00  0.00    +0.000 OA
ENDROOT
BRANCH   1  11
ATOM      4  C   UNL     1      -0.408  16.646  19.024  0.00  0.00    +0.000 C 
ATOM      5  C   UNL     1       0.551  15.517  18.799  0.00  0.00    +0.000 A 
ATOM      6  C   UNL     1       1.893  15.763  18.576  0.00  0.00    +0.000 A 
ATOM      7  C   UNL     1       2.703  14.662  18.368  0.00  0.00    +0.000 A 
ATOM      8  C   UNL     1       4.168  14.831  18.101  0.00  0.00    +0.000 C 
ATOM      9  N   UNL     1       2.221  13.401  18.369  0.00  0.00    +0.000 NA
ATOM     10  C   UNL     1       0.915  13.281  18.620  0.00  0.00    +0.000 A 
ATOM     11  N   UNL     1       0.405  11.989  18.531  0.00  0.00    +0.000 N 
ATOM     12  N   UNL     1       0.044  14.267  18.829  0.00  0.00    +0.000 NA
ATOM     13  H   UNL     1       0.747  11.483  17.726  0.00  0.00    +0.000 HD
ENDBRANCH   1  11
BRANCH   1  14
ATOM     14  C   UNL     1       1.233   9.547  19.491  0.00  0.00    +0.000 A 
ATOM     15  C   UNL     1       1.339   8.534  20.440  0.00  0.00    +0.000 A 
ATOM     16  C   UNL     1       1.979   7.336  20.099  0.00  0.00    +0.000 A 
ATOM     17  C   UNL     1       2.495   7.131  18.815  0.00  0.00    +0.000 A 
ATOM     18  C   UNL     1       2.345   8.145  17.859  0.00  0.00    +0.000 A 
ATOM     19  C   UNL     1       1.705   9.351  18.192  0.00  0.00    +0.000 A 
BRANCH  17  20
ATOM     20  N   UNL     1       3.156   5.934  18.455  0.00  0.00    +0.000 N 
ATOM     21  C   UNL     1       2.595   4.800  17.878  0.00  0.00    +0.000 C 
ATOM     22  O   UNL     1       1.422   4.618  17.588  0.00  0.00    +0.000 OA
ATOM     23  H   UNL     1       4.148   5.900  18.647  0.00  0.00    +0.000 HD
BRANCH  21  24
ATOM     24  C   UNL     1       3.583   3.710  17.650  0.00  0.00    +0.000 C 
ATOM     25  C   UNL     1       4.732   3.542  18.623  0.00  0.00    +0.000 C 
ATOM     26  C   UNL     1       3.658   2.495  18.555  0.00  0.00    +0.000 C 
ENDBRANCH  21  24
ENDBRANCH  17  20
ENDBRANCH   1  14
TORSDOF 4
ENDMDL
MODEL 9
REMARK VINA RESULT:      -7.2      4.724      8.712
REMARK  Name = 
REMARK  6 active torsions:
REMARK  status: ('A' for Active; 'I' for Inactive)
REMARK    1  A    between atoms: C_1  and  C_2
REMARK    2  A    between atoms: C_4  and  C_5
REMARK    3  A    between atoms: N_8  and  S_9
REMARK    4  A    between atoms: S_9  and  C_12
REMARK    5  A    between atoms: C_15  and  N_16
REMARK    6  A    between atoms: C_17  and  C_19
REMARK                            x       y       z     vdW  Elec       q    Type
REMARK                         _______ _______ _______ _____ _____    ______ ____
ROOT
ATOM      1  S   UNL     1       0.240  11.051  19.756  0.00  0.00    +0.000 S 
ATOM      2  O   UNL     1       0.946  11.700  20.838  0.00  0.00    +0.000 OA
ATOM      3  O   UNL     1      -1.150  10.669  19.912  0.00  0.00    +0.000 OA
ENDROOT
BRANCH   1  11
ATOM      4  C   UNL     1      -0.194  16.686  19.003  0.00  0.00    +0.000 C 
ATOM      5  C   UNL     1       0.690  15.499  18.769  0.00  0.00    +0.000 A 
ATOM      6  C   UNL     1       2.052  15.656  18.590  0.00  0.00    +0.000 A 
ATOM      7  C   UNL     1       2.789  14.508  18.369  0.00  0.00    +0.000 A 
ATOM      8  C   UNL     1       4.269  14.581  18.148  0.00  0.00    +0.000 C 
ATOM      9  N   UNL     1       2.220  13.285  18.316  0.00  0.00    +0.000 NA
ATOM     10  C   UNL     1       0.902  13.249  18.526  0.00  0.00    +0.000 A 
ATOM     11  N   UNL     1       0.306  12.000  18.382  0.00  0.00    +0.000 N 
ATOM     12  N   UNL     1       0.097  14.288  18.744  0.00  0.00    +0.000 NA
ATOM     13  H   UNL     1       0.635  11.496  17.570  0.00  0.00    +0.000 HD
ENDBRANCH   1  11
BRANCH   1  14
ATOM     14  C   UNL     1       1.132   9.562  19.352  0.00  0.00    +0.000 A 
ATOM     15  C   UNL     1       1.661   9.406  18.073  0.00  0.00    +0.000 A 
ATOM     16  C   UNL     1       2.341   8.226  17.748  0.00  0.00    +0.000 A 
ATOM     17  C   UNL     1       2.516   7.208  18.692  0.00  0.00    +0.000 A 
ATOM     18  C   UNL     1       2.012   7.397  19.987  0.00  0.00    +0.000 A 
ATOM     19  C   UNL     1       1.328   8.577  20.322  0.00  0.00    +0.000 A 
BRANCH  17  20
ATOM     20  N   UNL     1       3.188   6.005  18.380  0.00  0.00    +0.000 N 
ATOM     21  C   UNL     1       2.631   4.831  17.882  0.00  0.00    +0.000 C 
ATOM     22  O   UNL     1       1.453   4.614  17.638  0.00  0.00    +0.000 OA
ATOM     23  H   UNL     1       4.186   5.997  18.543  0.00  0.00    +0.000 HD
BRANCH  21  24
ATOM     24  C   UNL     1       3.631   3.746  17.686  0.00  0.00    +0.000 C 
ATOM     25  C   UNL     1       4.136   2.983  18.894  0.00  0.00    +0.000 C 
ATOM     26  C   UNL     1       3.276   2.285  17.880  0.00  0.00    +0.000 C 
ENDBRANCH  21  24
ENDBRANCH  17  20
ENDBRANCH   1  14
TORSDOF 4
ENDMDL
