MODEL 1
REMARK VINA RESULT:      -7.7      0.000      0.000
REMARK  Name = 
REMARK  5 active torsions:
REMARK  status: ('A' for Active; 'I' for Inactive)
REMARK    1  A    between atoms: C_1  and  C_2
REMARK    2  A    between atoms: C_6  and  O_7
REMARK    3  A    between atoms: O_7  and  C_8
REMARK    4  A    between atoms: C_11  and  C_12
REMARK    5  A    between atoms: N_13  and  O_14
REMARK                            x       y       z     vdW  Elec       q    Type
REMARK                         _______ _______ _______ _____ _____    ______ ____
ROOT
ATOM      1  C   UNL     1       2.336   7.750  19.123  0.00  0.00    +0.000 A 
ATOM      2  C   UNL     1       1.572   8.140  20.212  0.00  0.00    +0.000 A 
ATOM      3  C   UNL     1       0.756   9.264  20.085  0.00  0.00    +0.000 A 
ATOM      4  C   UNL     1       0.724   9.953  18.870  0.00  0.00    +0.000 A 
ATOM      5  C   UNL     1       1.580   9.528  17.861  0.00  0.00    +0.000 A 
ATOM      6  N   UNL     1       2.387   8.446  17.966  0.00  0.00    +0.000 NA
ENDROOT
BRANCH   4   7
ATOM      7  C   UNL     1      -0.175  11.127  18.622  0.00  0.00    +0.000 C 
ATOM      8  N   UNL     1       0.402  12.293  18.755  0.00  0.00    +0.000 NA
ATOM      9  N   UNL     1      -1.535  10.943  18.260  0.00  0.00    +0.000 N 
ATOM     10  C   UNL     1      -2.615  11.781  18.465  0.00  0.00    +0.000 A 
ATOM     11  C   UNL     1      -3.722  11.115  18.002  0.00  0.00    +0.000 A 
ATOM     12  N   UNL     1      -3.377   9.893  17.503  0.00  0.00    +0.000 NA
ATOM     13  C   UNL     1      -2.073   9.825  17.648  0.00  0.00    +0.000 A 
BRANCH   8  14
ATOM     14  O   UNL     1      -0.374  13.383  18.367  0.00  0.00    +0.000 OA
ATOM     15  H   UNL     1       0.249  13.916  17.838  0.00  0.00    +0.000 HD
ENDBRANCH   8  14
ENDBRANCH   4   7
BRANCH   1  16
ATOM     16  O   UNL     1       3.091   6.595  19.269  0.00  0.00    +0.000 OA
BRANCH  16  22
ATOM     17  C   UNL     1       1.348   2.630  21.685  0.00  0.00    +0.000 C 
ATOM     18  C   UNL     1       1.575   3.398  20.417  0.00  0.00    +0.000 A 
ATOM     19  C   UNL     1       1.121   2.918  19.184  0.00  0.00    +0.000 A 
ATOM     20  C   UNL     1       1.339   3.653  18.017  0.00  0.00    +0.000 A 
ATOM     21  C   UNL     1       1.996   4.883  18.076  0.00  0.00    +0.000 A 
ATOM     22  C   UNL     1       2.432   5.385  19.303  0.00  0.00    +0.000 A 
ATOM     23  C   UNL     1       2.251   4.623  20.462  0.00  0.00    +0.000 A 
ENDBRANCH  16  22
ENDBRANCH   1  16
TORSDOF 4
ENDMDL
MODEL 2
REMARK VINA RESULT:      -7.7      0.700      1.085
REMARK  Name = 
REMARK  5 active torsions:
REMARK  status: ('A' for Active; 'I' for Inactive)
REMARK    1  A    between atoms: C_1  and  C_2
REMARK    2  A    between atoms: C_6  and  O_7
REMARK    3  A    between atoms: O_7  and  C_8
REMARK    4  A    between atoms: C_11  and  C_12
REMARK    5  A    between atoms: N_13  and  O_14
REMARK                            x       y       z     vdW  Elec       q    Type
REMARK                         _______ _______ _______ _____ _____    ______ ____
ROOT
ATOM      1  C   UNL     1       2.278   7.627  19.221  0.00  0.00    +0.000 A 
ATOM      2  C   UNL     1       2.226   8.195  17.957  0.00  0.00    +0.000 A 
ATOM      3  C   UNL     1       1.479   9.360  17.781  0.00  0.00    +0.000 A 
ATOM      4  C   UNL     1       0.819   9.922  18.877  0.00  0.00    +0.000 A 
ATOM      5  C   UNL     1       0.873   9.240  20.086  0.00  0.00    +0.000 A 
ATOM      6  N   UNL     1       1.583   8.104  20.277  0.00  0.00    +0.000 NA
ENDROOT
BRANCH   4   7
ATOM      7  C   UNL     1       0.054  11.208  18.794  0.00  0.00    +0.000 C 
ATOM      8  N   UNL     1       0.777  12.286  18.960  0.00  0.00    +0.000 NA
ATOM      9  N   UNL     1      -1.343  11.214  18.540  0.00  0.00    +0.000 N 
ATOM     10  C   UNL     1      -2.293  12.151  18.898  0.00  0.00    +0.000 A 
ATOM     11  C   UNL     1      -3.505  11.658  18.485  0.00  0.00    +0.000 A 
ATOM     12  N   UNL     1      -3.352  10.450  17.871  0.00  0.00    +0.000 NA
ATOM     13  C   UNL     1      -2.059  10.220  17.897  0.00  0.00    +0.000 A 
BRANCH   8  14
ATOM     14  O   UNL     1       0.112  13.486  18.722  0.00  0.00    +0.000 OA
ATOM     15  H   UNL     1      -0.351  13.648  19.565  0.00  0.00    +0.000 HD
ENDBRANCH   8  14
ENDBRANCH   4   7
BRANCH   1  16
ATOM     16  O   UNL     1       3.076   6.502  19.369  0.00  0.00    +0.000 OA
BRANCH  16  22
ATOM     17  C   UNL     1       1.476   2.516  21.849  0.00  0.00    +0.000 C 
ATOM     18  C   UNL     1       1.677   3.271  20.568  0.00  0.00    +0.000 A 
ATOM     19  C   UNL     1       1.244   2.754  19.343  0.00  0.00    +0.000 A 
ATOM     20  C   UNL     1       1.438   3.476  18.164  0.00  0.00    +0.000 A 
ATOM     21  C   UNL     1       2.049   4.731  18.203  0.00  0.00    +0.000 A 
ATOM     22  C   UNL     1       2.463   5.270  19.423  0.00  0.00    +0.000 A 
ATOM     23  C   UNL     1       2.308   4.521  20.594  0.00  0.00    +0.000 A 
ENDBRANCH  16  22
ENDBRANCH   1  16
TORSDOF 4
ENDMDL
MODEL 3
REMARK VINA RESULT:      -7.6      5.082      7.492
REMARK  Name = 
REMARK  5 active torsions:
REMARK  status: ('A' for Active; 'I' for Inactive)
REMARK    1  A    between atoms: C_1  and  C_2
REMARK    2  A    between atoms: C_6  and  O_7
REMARK    3  A    between atoms: O_7  and  C_8
REMARK    4  A    between atoms: C_11  and  C_12
REMARK    5  A    between atoms: N_13  and  O_14
REMARK                            x       y       z     vdW  Elec       q    Type
REMARK                         _______ _______ _______ _____ _____    ______ ____
ROOT
ATOM      1  C   UNL     1       6.267   5.238  16.502  0.00  0.00    +0.000 A 
ATOM      2  C   UNL     1       5.426   6.323  16.305  0.00  0.00    +0.000 A 
ATOM      3  C   UNL     1       4.314   6.463  17.135  0.00  0.00    +0.000 A 
ATOM      4  C   UNL     1       4.087   5.519  18.141  0.00  0.00    +0.000 A 
ATOM      5  C   UNL     1       4.945   4.428  18.211  0.00  0.00    +0.000 A 
ATOM      6  N   UNL     1       6.024   4.267  17.410  0.00  0.00    +0.000 NA
ENDROOT
BRANCH   4   7
ATOM      7  C   UNL     1       2.959   5.629  19.121  0.00  0.00    +0.000 C 
ATOM      8  N   UNL     1       2.901   6.770  19.760  0.00  0.00    +0.000 NA
ATOM      9  N   UNL     1       2.039   4.563  19.303  0.00  0.00    +0.000 N 
ATOM     10  C   UNL     1       1.288   4.236  20.415  0.00  0.00    +0.000 A 
ATOM     11  C   UNL     1       0.619   3.078  20.110  0.00  0.00    +0.000 A 
ATOM     12  N   UNL     1       0.913   2.669  18.843  0.00  0.00    +0.000 NA
ATOM     13  C   UNL     1       1.740   3.578  18.378  0.00  0.00    +0.000 A 
BRANCH   8  14
ATOM     14  O   UNL     1       1.766   6.947  20.548  0.00  0.00    +0.000 OA
ATOM     15  H   UNL     1       2.079   6.698  21.438  0.00  0.00    +0.000 HD
ENDBRANCH   8  14
ENDBRANCH   4   7
BRANCH   1  16
ATOM     16  O   UNL     1       7.392   5.163  15.695  0.00  0.00    +0.000 OA
BRANCH  16  22
ATOM     17  C   UNL     1       5.298   2.608  11.995  0.00  0.00    +0.000 C 
ATOM     18  C   UNL     1       6.253   3.653  12.492  0.00  0.00    +0.000 A 
ATOM     19  C   UNL     1       7.028   4.409  11.607  0.00  0.00    +0.000 A 
ATOM     20  C   UNL     1       7.907   5.380  12.092  0.00  0.00    +0.000 A 
ATOM     21  C   UNL     1       8.004   5.615  13.464  0.00  0.00    +0.000 A 
ATOM     22  C   UNL     1       7.218   4.884  14.357  0.00  0.00    +0.000 A 
ATOM     23  C   UNL     1       6.374   3.881  13.868  0.00  0.00    +0.000 A 
ENDBRANCH  16  22
ENDBRANCH   1  16
TORSDOF 4
ENDMDL
MODEL 4
REMARK VINA RESULT:      -7.5      1.536      2.831
REMARK  Name = 
REMARK  5 active torsions:
REMARK  status: ('A' for Active; 'I' for Inactive)
REMARK    1  A    between atoms: C_1  and  C_2
REMARK    2  A    between atoms: C_6  and  O_7
REMARK    3  A    between atoms: O_7  and  C_8
REMARK    4  A    between atoms: C_11  and  C_12
REMARK    5  A    between atoms: N_13  and  O_14
REMARK                            x       y       z     vdW  Elec       q    Type
REMARK                         _______ _______ _______ _____ _____    ______ ____
ROOT
ATOM      1  C   UNL     1       2.245   7.776  19.218  0.00  0.00    +0.000 A 
ATOM      2  C   UNL     1       2.242   8.386  17.973  0.00  0.00    +0.000 A 
ATOM      3  C   UNL     1       1.508   9.561  17.809  0.00  0.00    +0.000 A 
ATOM      4  C   UNL     1       0.813  10.091  18.899  0.00  0.00    +0.000 A 
ATOM      5  C   UNL     1       0.819   9.368  20.086  0.00  0.00    +0.000 A 
ATOM      6  N   UNL     1       1.514   8.222  20.264  0.00  0.00    +0.000 NA
ENDROOT
BRANCH   4   7
ATOM      7  C   UNL     1       0.058  11.385  18.833  0.00  0.00    +0.000 C 
ATOM      8  N   UNL     1      -1.208  11.263  18.525  0.00  0.00    +0.000 NA
ATOM      9  N   UNL     1       0.701  12.622  19.104  0.00  0.00    +0.000 N 
ATOM     10  C   UNL     1       0.389  13.887  18.646  0.00  0.00    +0.000 A 
ATOM     11  C   UNL     1       1.356  14.730  19.133  0.00  0.00    +0.000 A 
ATOM     12  N   UNL     1       2.259  14.043  19.889  0.00  0.00    +0.000 NA
ATOM     13  C   UNL     1       1.836  12.799  19.874  0.00  0.00    +0.000 A 
BRANCH   8  14
ATOM     14  O   UNL     1      -1.954  12.435  18.623  0.00  0.00    +0.000 OA
ATOM     15  H   UNL     1      -2.678  12.284  17.987  0.00  0.00    +0.000 HD
ENDBRANCH   8  14
ENDBRANCH   4   7
BRANCH   1  16
ATOM     16  O   UNL     1       3.031   6.641  19.356  0.00  0.00    +0.000 OA
BRANCH  16  22
ATOM     17  C   UNL     1       1.339   2.631  21.734  0.00  0.00    +0.000 C 
ATOM     18  C   UNL     1       1.577   3.404  20.471  0.00  0.00    +0.000 A 
ATOM     19  C   UNL     1       1.169   2.910  19.228  0.00  0.00    +0.000 A 
ATOM     20  C   UNL     1       1.396   3.649  18.066  0.00  0.00    +0.000 A 
ATOM     21  C   UNL     1       2.017   4.898  18.139  0.00  0.00    +0.000 A 
ATOM     22  C   UNL     1       2.406   5.414  19.376  0.00  0.00    +0.000 A 
ATOM     23  C   UNL     1       2.217   4.648  20.531  0.00  0.00    +0.000 A 
ENDBRANCH  16  22
ENDBRANCH   1  16
TORSDOF 4
ENDMDL
MODEL 5
REMARK VINA RESULT:      -7.4      5.130      7.612
REMARK  Name = 
REMARK  5 active torsions:
REMARK  status: ('A' for Active; 'I' for Inactive)
REMARK    1  A    between atoms: C_1  and  C_2
REMARK    2  A    between atoms: C_6  and  O_7
REMARK    3  A    between atoms: O_7  and  C_8
REMARK    4  A    between atoms: C_11  and  C_12
REMARK    5  A    between atoms: N_13  and  O_14
REMARK                            x       y       z     vdW  Elec       q    Type
REMARK                         _______ _______ _______ _____ _____    ______ ____
ROOT
ATOM      1  C   UNL     1       6.551   5.484  16.345  0.00  0.00    +0.000 A 
ATOM      2  C   UNL     1       6.549   4.552  17.371  0.00  0.00    +0.000 A 
ATOM      3  C   UNL     1       5.478   4.545  18.264  0.00  0.00    +0.000 A 
ATOM      4  C   UNL     1       4.438   5.464  18.092  0.00  0.00    +0.000 A 
ATOM      5  C   UNL     1       4.566   6.405  17.077  0.00  0.00    +0.000 A 
ATOM      6  N   UNL     1       5.602   6.436  16.207  0.00  0.00    +0.000 NA
ENDROOT
BRANCH   4   7
ATOM      7  C   UNL     1       3.216   5.483  18.959  0.00  0.00    +0.000 C 
ATOM      8  N   UNL     1       3.097   6.545  19.712  0.00  0.00    +0.000 NA
ATOM      9  N   UNL     1       2.278   4.417  18.924  0.00  0.00    +0.000 N 
ATOM     10  C   UNL     1       1.415   3.980  19.911  0.00  0.00    +0.000 A 
ATOM     11  C   UNL     1       0.776   2.873  19.411  0.00  0.00    +0.000 A 
ATOM     12  N   UNL     1       1.198   2.604  18.142  0.00  0.00    +0.000 NA
ATOM     13  C   UNL     1       2.072   3.546  17.869  0.00  0.00    +0.000 A 
BRANCH   8  14
ATOM     14  O   UNL     1       1.887   6.652  20.395  0.00  0.00    +0.000 OA
ATOM     15  H   UNL     1       2.023   6.069  21.166  0.00  0.00    +0.000 HD
ENDBRANCH   8  14
ENDBRANCH   4   7
BRANCH   1  16
ATOM     16  O   UNL     1       7.605   5.423  15.445  0.00  0.00    +0.000 OA
BRANCH  16  22
ATOM     17  C   UNL     1       5.179   2.659  12.117  0.00  0.00    +0.000 C 
ATOM     18  C   UNL     1       6.205   3.697  12.462  0.00  0.00    +0.000 A 
ATOM     19  C   UNL     1       6.952   4.339  11.469  0.00  0.00    +0.000 A 
ATOM     20  C   UNL     1       7.899   5.306  11.813  0.00  0.00    +0.000 A 
ATOM     21  C   UNL     1       8.092   5.653  13.151  0.00  0.00    +0.000 A 
ATOM     22  C   UNL     1       7.335   5.038  14.150  0.00  0.00    +0.000 A 
ATOM     23  C   UNL     1       6.422   4.037  13.802  0.00  0.00    +0.000 A 
ENDBRANCH  16  22
ENDBRANCH   1  16
TORSDOF 4
ENDMDL
MODEL 6
REMARK VINA RESULT:      -7.4      1.067      1.575
REMARK  Name = 
REMARK  5 active torsions:
REMARK  status: ('A' for Active; 'I' for Inactive)
REMARK    1  A    between atoms: C_1  and  C_2
REMARK    2  A    between atoms: C_6  and  O_7
REMARK    3  A    between atoms: O_7  and  C_8
REMARK    4  A    between atoms: C_11  and  C_12
REMARK    5  A    between atoms: N_13  and  O_14
REMARK                            x       y       z     vdW  Elec       q    Type
REMARK                         _______ _______ _______ _____ _____    ______ ____
ROOT
ATOM      1  C   UNL     1       2.451   7.562  19.253  0.00  0.00    +0.000 A 
ATOM      2  C   UNL     1       2.408   8.099  17.976  0.00  0.00    +0.000 A 
ATOM      3  C   UNL     1       1.608   9.219  17.751  0.00  0.00    +0.000 A 
ATOM      4  C   UNL     1       0.886   9.769  18.814  0.00  0.00    +0.000 A 
ATOM      5  C   UNL     1       0.938   9.116  20.039  0.00  0.00    +0.000 A 
ATOM      6  N   UNL     1       1.699   8.023  20.277  0.00  0.00    +0.000 NA
ENDROOT
BRANCH   4   7
ATOM      7  C   UNL     1       0.059  11.012  18.679  0.00  0.00    +0.000 C 
ATOM      8  N   UNL     1       0.710  12.127  18.888  0.00  0.00    +0.000 NA
ATOM      9  N   UNL     1      -1.317  10.941  18.335  0.00  0.00    +0.000 N 
ATOM     10  C   UNL     1      -2.338  11.824  18.630  0.00  0.00    +0.000 A 
ATOM     11  C   UNL     1      -3.492  11.266  18.141  0.00  0.00    +0.000 A 
ATOM     12  N   UNL     1      -3.234  10.069  17.542  0.00  0.00    +0.000 NA
ATOM     13  C   UNL     1      -1.935   9.910  17.651  0.00  0.00    +0.000 A 
BRANCH   8  14
ATOM     14  O   UNL     1      -0.003  13.289  18.604  0.00  0.00    +0.000 OA
ATOM     15  H   UNL     1      -0.042  13.286  17.629  0.00  0.00    +0.000 HD
ENDBRANCH   8  14
ENDBRANCH   4   7
BRANCH   1  16
ATOM     16  O   UNL     1       3.301   6.483  19.451  0.00  0.00    +0.000 OA
BRANCH  16  22
ATOM     17  C   UNL     1       0.607   2.364  18.841  0.00  0.00    +0.000 C 
ATOM     18  C   UNL     1       1.759   3.246  18.461  0.00  0.00    +0.000 A 
ATOM     19  C   UNL     1       2.618   2.909  17.410  0.00  0.00    +0.000 A 
ATOM     20  C   UNL     1       3.681   3.748  17.071  0.00  0.00    +0.000 A 
ATOM     21  C   UNL     1       3.882   4.941  17.767  0.00  0.00    +0.000 A 
ATOM     22  C   UNL     1       3.017   5.302  18.802  0.00  0.00    +0.000 A 
ATOM     23  C   UNL     1       1.982   4.434  19.167  0.00  0.00    +0.000 A 
ENDBRANCH  16  22
ENDBRANCH   1  16
TORSDOF 4
ENDMDL
MODEL 7
REMARK VINA RESULT:      -7.4      0.883      1.716
REMARK  Name = 
REMARK  5 active torsions:
REMARK  status: ('A' for Active; 'I' for Inactive)
REMARK    1  A    between atoms: C_1  and  C_2
REMARK    2  A    between atoms: C_6  and  O_7
REMARK    3  A    between atoms: O_7  and  C_8
REMARK    4  A    between atoms: C_11  and  C_12
REMARK    5  A    between atoms: N_13  and  O_14
REMARK                            x       y       z     vdW  Elec       q    Type
REMARK                         _______ _______ _______ _____ _____    ______ ____
ROOT
ATOM      1  C   UNL     1       2.240   7.632  19.447  0.00  0.00    +0.000 A 
ATOM      2  C   UNL     1       2.176   8.062  18.131  0.00  0.00    +0.000 A 
ATOM      3  C   UNL     1       1.402   9.183  17.834  0.00  0.00    +0.000 A 
ATOM      4  C   UNL     1       0.726   9.842  18.865  0.00  0.00    +0.000 A 
ATOM      5  C   UNL     1       0.795   9.291  20.139  0.00  0.00    +0.000 A 
ATOM      6  N   UNL     1       1.531   8.199  20.448  0.00  0.00    +0.000 NA
ENDROOT
BRANCH   4   7
ATOM      7  C   UNL     1      -0.069  11.093  18.649  0.00  0.00    +0.000 C 
ATOM      8  N   UNL     1       0.619  12.201  18.744  0.00  0.00    +0.000 NA
ATOM      9  N   UNL     1      -1.457  11.036  18.351  0.00  0.00    +0.000 N 
ATOM     10  C   UNL     1      -2.443  11.972  18.597  0.00  0.00    +0.000 A 
ATOM     11  C   UNL     1      -3.627  11.410  18.190  0.00  0.00    +0.000 A 
ATOM     12  N   UNL     1      -3.421  10.159  17.688  0.00  0.00    +0.000 NA
ATOM     13  C   UNL     1      -2.123   9.970  17.773  0.00  0.00    +0.000 A 
BRANCH   8  14
ATOM     14  O   UNL     1      -0.070  13.357  18.382  0.00  0.00    +0.000 OA
ATOM     15  H   UNL     1      -0.639  13.521  19.158  0.00  0.00    +0.000 HD
ENDBRANCH   8  14
ENDBRANCH   4   7
BRANCH   1  16
ATOM     16  O   UNL     1       3.065   6.548  19.712  0.00  0.00    +0.000 OA
BRANCH  16  22
ATOM     17  C   UNL     1       2.610   2.154  17.458  0.00  0.00    +0.000 C 
ATOM     18  C   UNL     1       2.235   3.115  18.546  0.00  0.00    +0.000 A 
ATOM     19  C   UNL     1       1.307   2.769  19.534  0.00  0.00    +0.000 A 
ATOM     20  C   UNL     1       0.976   3.677  20.541  0.00  0.00    +0.000 A 
ATOM     21  C   UNL     1       1.585   4.933  20.580  0.00  0.00    +0.000 A 
ATOM     22  C   UNL     1       2.531   5.282  19.614  0.00  0.00    +0.000 A 
ATOM     23  C   UNL     1       2.823   4.385  18.582  0.00  0.00    +0.000 A 
ENDBRANCH  16  22
ENDBRANCH   1  16
TORSDOF 4
ENDMDL
MODEL 8
REMARK VINA RESULT:      -7.3      1.317      2.417
REMARK  Name = 
REMARK  5 active torsions:
REMARK  status: ('A' for Active; 'I' for Inactive)
REMARK    1  A    between atoms: C_1  and  C_2
REMARK    2  A    between atoms: C_6  and  O_7
REMARK    3  A    between atoms: O_7  and  C_8
REMARK    4  A    between atoms: C_11  and  C_12
REMARK    5  A    between atoms: N_13  and  O_14
REMARK                            x       y       z     vdW  Elec       q    Type
REMARK                         _______ _______ _______ _____ _____    ______ ____
ROOT
ATOM      1  C   UNL     1       2.283   7.696  19.226  0.00  0.00    +0.000 A 
ATOM      2  C   UNL     1       1.622   8.091  20.379  0.00  0.00    +0.000 A 
ATOM      3  C   UNL     1       0.785   9.205  20.319  0.00  0.00    +0.000 A 
ATOM      4  C   UNL     1       0.629   9.879  19.104  0.00  0.00    +0.000 A 
ATOM      5  C   UNL     1       1.389   9.450  18.023  0.00  0.00    +0.000 A 
ATOM      6  N   UNL     1       2.214   8.379  18.061  0.00  0.00    +0.000 NA
ENDROOT
BRANCH   4   7
ATOM      7  C   UNL     1      -0.303  11.040  18.931  0.00  0.00    +0.000 C 
ATOM      8  N   UNL     1      -1.543  10.711  18.673  0.00  0.00    +0.000 NA
ATOM      9  N   UNL     1       0.160  12.376  19.061  0.00  0.00    +0.000 N 
ATOM     10  C   UNL     1      -0.335  13.531  18.488  0.00  0.00    +0.000 A 
ATOM     11  C   UNL     1       0.508  14.547  18.862  0.00  0.00    +0.000 A 
ATOM     12  N   UNL     1       1.511  14.075  19.657  0.00  0.00    +0.000 NA
ATOM     13  C   UNL     1       1.269  12.789  19.777  0.00  0.00    +0.000 A 
BRANCH   8  14
ATOM     14  O   UNL     1      -2.447  11.770  18.676  0.00  0.00    +0.000 OA
ATOM     15  H   UNL     1      -2.619  11.905  19.627  0.00  0.00    +0.000 HD
ENDBRANCH   8  14
ENDBRANCH   4   7
BRANCH   1  16
ATOM     16  O   UNL     1       3.062   6.551  19.311  0.00  0.00    +0.000 OA
BRANCH  16  22
ATOM     17  C   UNL     1       1.365   2.571  21.736  0.00  0.00    +0.000 C 
ATOM     18  C   UNL     1       1.591   3.335  20.466  0.00  0.00    +0.000 A 
ATOM     19  C   UNL     1       1.159   2.838  19.232  0.00  0.00    +0.000 A 
ATOM     20  C   UNL     1       1.377   3.569  18.062  0.00  0.00    +0.000 A 
ATOM     21  C   UNL     1       2.011   4.811  18.119  0.00  0.00    +0.000 A 
ATOM     22  C   UNL     1       2.424   5.330  19.347  0.00  0.00    +0.000 A 
ATOM     23  C   UNL     1       2.245   4.572  20.509  0.00  0.00    +0.000 A 
ENDBRANCH  16  22
ENDBRANCH   1  16
TORSDOF 4
ENDMDL
MODEL 9
REMARK VINA RESULT:      -7.3      5.320      7.925
REMARK  Name = 
REMARK  5 active torsions:
REMARK  status: ('A' for Active; 'I' for Inactive)
REMARK    1  A    between atoms: C_1  and  C_2
REMARK    2  A    between atoms: C_6  and  O_7
REMARK    3  A    between atoms: O_7  and  C_8
REMARK    4  A    between atoms: C_11  and  C_12
REMARK    5  A    between atoms: N_13  and  O_14
REMARK                            x       y       z     vdW  Elec       q    Type
REMARK                         _______ _______ _______ _____ _____    ______ ____
ROOT
ATOM      1  C   UNL     1       6.017   4.882  14.961  0.00  0.00    +0.000 A 
ATOM      2  C   UNL     1       5.828   3.736  15.720  0.00  0.00    +0.000 A 
ATOM      3  C   UNL     1       5.046   3.822  16.871  0.00  0.00    +0.000 A 
ATOM      4  C   UNL     1       4.470   5.048  17.218  0.00  0.00    +0.000 A 
ATOM      5  C   UNL     1       4.777   6.153  16.433  0.00  0.00    +0.000 A 
ATOM      6  N   UNL     1       5.542   6.095  15.319  0.00  0.00    +0.000 NA
ENDROOT
BRANCH   4   7
ATOM      7  C   UNL     1       3.559   5.215  18.396  0.00  0.00    +0.000 C 
ATOM      8  N   UNL     1       3.818   6.258  19.142  0.00  0.00    +0.000 NA
ATOM      9  N   UNL     1       2.502   4.299  18.640  0.00  0.00    +0.000 N 
ATOM     10  C   UNL     1       1.897   3.961  19.834  0.00  0.00    +0.000 A 
ATOM     11  C   UNL     1       0.985   2.976  19.547  0.00  0.00    +0.000 A 
ATOM     12  N   UNL     1       0.986   2.691  18.214  0.00  0.00    +0.000 NA
ATOM     13  C   UNL     1       1.878   3.504  17.695  0.00  0.00    +0.000 A 
BRANCH   8  14
ATOM     14  O   UNL     1       2.880   6.517  20.139  0.00  0.00    +0.000 OA
ATOM     15  H   UNL     1       2.485   5.639  20.298  0.00  0.00    +0.000 HD
ENDBRANCH   8  14
ENDBRANCH   4   7
BRANCH   1  16
ATOM     16  O   UNL     1       6.754   4.744  13.793  0.00  0.00    +0.000 OA
BRANCH  16  22
ATOM     17  C   UNL     1       3.157   3.006  10.854  0.00  0.00    +0.000 C 
ATOM     18  C   UNL     1       4.563   2.961  11.373  0.00  0.00    +0.000 A 
ATOM     19  C   UNL     1       5.487   2.028  10.891  0.00  0.00    +0.000 A 
ATOM     20  C   UNL     1       6.792   2.007  11.386  0.00  0.00    +0.000 A 
ATOM     21  C   UNL     1       7.191   2.932  12.352  0.00  0.00    +0.000 A 
ATOM     22  C   UNL     1       6.286   3.885  12.824  0.00  0.00    +0.000 A 
ATOM     23  C   UNL     1       4.967   3.870  12.358  0.00  0.00    +0.000 A 
ENDBRANCH  16  22
ENDBRANCH   1  16
TORSDOF 4
ENDMDL
