MODEL 1
REMARK VINA RESULT:      -6.9      0.000      0.000
REMARK  Name = 
REMARK  11 active torsions:
REMARK  status: ('A' for Active; 'I' for Inactive)
REMARK    1  A    between atoms: C_1  and  C_2
REMARK    2  A    between atoms: C_2  and  C_3
REMARK    3  A    between atoms: C_3  and  C_4
REMARK    4  A    between atoms: C_4  and  C_5
REMARK    5  A    between atoms: C_8  and  C_9
REMARK    6  A    between atoms: N_16  and  C_17
REMARK    7  A    between atoms: C_17  and  C_18
REMARK    8  A    between atoms: N_23  and  C_24
REMARK    9  A    between atoms: C_24  and  C_25
REMARK   10  A    between atoms: C_28  and  C_29
REMARK   11  A    between atoms: C_29  and  O_31
REMARK                            x       y       z     vdW  Elec       q    Type
REMARK                         _______ _______ _______ _____ _____    ______ ____
ROOT
ATOM      1  C   UNL     1       6.232   4.895  15.662  0.00  0.00    +0.000 A 
ATOM      2  N   UNL     1       7.045   5.844  16.065  0.00  0.00    +0.000 NA
ATOM      3  C   UNL     1       6.272   6.785  16.658  0.00  0.00    +0.000 A 
ATOM      4  C   UNL     1       4.941   6.415  16.687  0.00  0.00    +0.000 A 
ATOM      5  N   UNL     1       4.931   5.171  16.063  0.00  0.00    +0.000 N 
ENDROOT
BRANCH   4   6
ATOM      6  C   UNL     1       3.753   7.044  17.143  0.00  0.00    +0.000 C 
ATOM      7  C   UNL     1       3.255   6.959  18.390  0.00  0.00    +0.000 C 
ATOM      8  C   UNL     1       3.783   6.220  19.605  0.00  0.00    +0.000 C 
ATOM      9  O   UNL     1       4.846   5.664  19.784  0.00  0.00    +0.000 OA
ATOM     10  N   UNL     1       2.826   6.361  20.553  0.00  0.00    +0.000 N 
ATOM     11  C   UNL     1       1.808   7.162  20.133  0.00  0.00    +0.000 C 
ATOM     12  O   UNL     1       0.845   7.483  20.811  0.00  0.00    +0.000 OA
ATOM     13  N   UNL     1       2.067   7.539  18.819  0.00  0.00    +0.000 N 
ATOM     14  H   UNL     1       2.912   5.997  21.488  0.00  0.00    +0.000 HD
BRANCH  13  15
ATOM     15  C   UNL     1       1.159   8.392  18.082  0.00  0.00    +0.000 C 
BRANCH  15  16
ATOM     16  C   UNL     1       1.422   9.835  18.397  0.00  0.00    +0.000 A 
ATOM     17  C   UNL     1       2.407  10.661  17.887  0.00  0.00    +0.000 A 
ATOM     18  C   UNL     1       2.358  11.973  18.440  0.00  0.00    +0.000 A 
ATOM     19  C   UNL     1       1.315  12.118  19.326  0.00  0.00    +0.000 A 
ATOM     20  S   UNL     1       0.402  10.683  19.485  0.00  0.00    +0.000 S 
ENDBRANCH  15  16
ENDBRANCH  13  15
ENDBRANCH   4   6
BRANCH   1  21
ATOM     21  C   UNL     1       6.702   3.776  14.781  0.00  0.00    +0.000 C 
BRANCH  21  22
ATOM     22  C   UNL     1       6.900   4.277  13.337  0.00  0.00    +0.000 C 
BRANCH  22  24
ATOM     23  C   UNL     1       4.857   3.479  12.095  0.00  0.00    +0.000 C 
ATOM     24  C   UNL     1       6.356   3.300  12.299  0.00  0.00    +0.000 C 
ENDBRANCH  22  24
ENDBRANCH  21  22
ENDBRANCH   1  21
BRANCH   5  25
ATOM     25  C   UNL     1       3.771   4.285  15.893  0.00  0.00    +0.000 C 
BRANCH  25  26
ATOM     26  C   UNL     1       3.275   3.625  17.168  0.00  0.00    +0.000 A 
ATOM     27  C   UNL     1       4.122   2.923  18.035  0.00  0.00    +0.000 A 
ATOM     28  C   UNL     1       3.680   2.528  19.299  0.00  0.00    +0.000 A 
ATOM     29  C   UNL     1       2.378   2.812  19.721  0.00  0.00    +0.000 A 
ATOM     30  C   UNL     1       1.483   3.405  18.823  0.00  0.00    +0.000 A 
ATOM     31  C   UNL     1       1.930   3.797  17.552  0.00  0.00    +0.000 A 
BRANCH  29  32
ATOM     32  C   UNL     1       2.080   2.600  21.161  0.00  0.00    +0.000 C 
ATOM     33  O   UNL     1       0.954   2.736  21.615  0.00  0.00    +0.000 OA
BRANCH  32  34
ATOM     34  O   UNL     1       3.126   2.236  21.925  0.00  0.00    +0.000 OA
ATOM     35  H   UNL     1       3.468   1.340  21.762  0.00  0.00    +0.000 HD
ENDBRANCH  32  34
ENDBRANCH  29  32
ENDBRANCH  25  26
ENDBRANCH   5  25
TORSDOF 10
ENDMDL
MODEL 2
REMARK VINA RESULT:      -6.4      3.806      8.773
REMARK  Name = 
REMARK  11 active torsions:
REMARK  status: ('A' for Active; 'I' for Inactive)
REMARK    1  A    between atoms: C_1  and  C_2
REMARK    2  A    between atoms: C_2  and  C_3
REMARK    3  A    between atoms: C_3  and  C_4
REMARK    4  A    between atoms: C_4  and  C_5
REMARK    5  A    between atoms: C_8  and  C_9
REMARK    6  A    between atoms: N_16  and  C_17
REMARK    7  A    between atoms: C_17  and  C_18
REMARK    8  A    between atoms: N_23  and  C_24
REMARK    9  A    between atoms: C_24  and  C_25
REMARK   10  A    between atoms: C_28  and  C_29
REMARK   11  A    between atoms: C_29  and  O_31
REMARK                            x       y       z     vdW  Elec       q    Type
REMARK                         _______ _______ _______ _____ _____    ______ ____
ROOT
ATOM      1  C   UNL     1       0.597   9.549  21.067  0.00  0.00    +0.000 A 
ATOM      2  N   UNL     1       0.855   8.709  22.042  0.00  0.00    +0.000 NA
ATOM      3  C   UNL     1       1.588   7.706  21.501  0.00  0.00    +0.000 A 
ATOM      4  C   UNL     1       1.854   7.927  20.162  0.00  0.00    +0.000 A 
ATOM      5  N   UNL     1       1.230   9.142  19.899  0.00  0.00    +0.000 N 
ENDROOT
BRANCH   4   6
ATOM      6  C   UNL     1       2.523   7.184  19.156  0.00  0.00    +0.000 C 
ATOM      7  C   UNL     1       2.443   5.851  18.987  0.00  0.00    +0.000 C 
ATOM      8  C   UNL     1       1.659   4.812  19.765  0.00  0.00    +0.000 C 
ATOM      9  O   UNL     1       0.806   4.949  20.618  0.00  0.00    +0.000 OA
ATOM     10  N   UNL     1       2.045   3.618  19.258  0.00  0.00    +0.000 N 
ATOM     11  C   UNL     1       2.898   3.764  18.206  0.00  0.00    +0.000 C 
ATOM     12  O   UNL     1       3.358   2.846  17.546  0.00  0.00    +0.000 OA
ATOM     13  N   UNL     1       3.137   5.122  18.027  0.00  0.00    +0.000 N 
ATOM     14  H   UNL     1       1.666   2.736  19.561  0.00  0.00    +0.000 HD
BRANCH  13  15
ATOM     15  C   UNL     1       4.017   5.607  16.986  0.00  0.00    +0.000 C 
BRANCH  15  16
ATOM     16  C   UNL     1       5.449   5.340  17.343  0.00  0.00    +0.000 A 
ATOM     17  C   UNL     1       6.147   5.750  18.464  0.00  0.00    +0.000 A 
ATOM     18  C   UNL     1       7.505   5.320  18.448  0.00  0.00    +0.000 A 
ATOM     19  C   UNL     1       7.791   4.564  17.334  0.00  0.00    +0.000 A 
ATOM     20  S   UNL     1       6.430   4.373  16.320  0.00  0.00    +0.000 S 
ENDBRANCH  15  16
ENDBRANCH  13  15
ENDBRANCH   4   6
BRANCH   1  21
ATOM     21  C   UNL     1      -0.365  10.686  21.239  0.00  0.00    +0.000 C 
BRANCH  21  22
ATOM     22  C   UNL     1      -0.920  10.707  22.677  0.00  0.00    +0.000 C 
BRANCH  22  24
ATOM     23  C   UNL     1      -2.901  12.045  23.476  0.00  0.00    +0.000 C 
ATOM     24  C   UNL     1      -1.428  12.085  23.089  0.00  0.00    +0.000 C 
ENDBRANCH  22  24
ENDBRANCH  21  22
ENDBRANCH   1  21
BRANCH   5  25
ATOM     25  C   UNL     1       1.264   9.888  18.633  0.00  0.00    +0.000 C 
BRANCH  25  26
ATOM     26  C   UNL     1      -0.091  10.343  18.119  0.00  0.00    +0.000 A 
ATOM     27  C   UNL     1      -1.035   9.456  17.586  0.00  0.00    +0.000 A 
ATOM     28  C   UNL     1      -2.344   9.871  17.337  0.00  0.00    +0.000 A 
ATOM     29  C   UNL     1      -2.737  11.186  17.600  0.00  0.00    +0.000 A 
ATOM     30  C   UNL     1      -1.778  12.116  18.017  0.00  0.00    +0.000 A 
ATOM     31  C   UNL     1      -0.462  11.695  18.264  0.00  0.00    +0.000 A 
BRANCH  29  32
ATOM     32  C   UNL     1      -4.196  11.469  17.562  0.00  0.00    +0.000 C 
ATOM     33  O   UNL     1      -4.965  11.011  18.393  0.00  0.00    +0.000 OA
BRANCH  32  34
ATOM     34  O   UNL     1      -4.607  12.271  16.563  0.00  0.00    +0.000 OA
ATOM     35  H   UNL     1      -4.818  13.184  16.823  0.00  0.00    +0.000 HD
ENDBRANCH  32  34
ENDBRANCH  29  32
ENDBRANCH  25  26
ENDBRANCH   5  25
TORSDOF 10
ENDMDL
MODEL 3
REMARK VINA RESULT:      -6.2      2.616      5.459
REMARK  Name = 
REMARK  11 active torsions:
REMARK  status: ('A' for Active; 'I' for Inactive)
REMARK    1  A    between atoms: C_1  and  C_2
REMARK    2  A    between atoms: C_2  and  C_3
REMARK    3  A    between atoms: C_3  and  C_4
REMARK    4  A    between atoms: C_4  and  C_5
REMARK    5  A    between atoms: C_8  and  C_9
REMARK    6  A    between atoms: N_16  and  C_17
REMARK    7  A    between atoms: C_17  and  C_18
REMARK    8  A    between atoms: N_23  and  C_24
REMARK    9  A    between atoms: C_24  and  C_25
REMARK   10  A    between atoms: C_28  and  C_29
REMARK   11  A    between atoms: C_29  and  O_31
REMARK                            x       y       z     vdW  Elec       q    Type
REMARK                         _______ _______ _______ _____ _____    ______ ____
ROOT
ATOM      1  C   UNL     1       2.930   2.984  18.096  0.00  0.00    +0.000 A 
ATOM      2  N   UNL     1       1.642   2.808  17.912  0.00  0.00    +0.000 NA
ATOM      3  C   UNL     1       1.083   4.042  17.909  0.00  0.00    +0.000 A 
ATOM      4  C   UNL     1       2.032   5.038  18.041  0.00  0.00    +0.000 A 
ATOM      5  N   UNL     1       3.232   4.339  18.132  0.00  0.00    +0.000 N 
ENDROOT
BRANCH   4   6
ATOM      6  C   UNL     1       1.969   6.453  18.136  0.00  0.00    +0.000 C 
ATOM      7  C   UNL     1       1.832   7.152  19.277  0.00  0.00    +0.000 C 
ATOM      8  C   UNL     1       1.719   6.671  20.712  0.00  0.00    +0.000 C 
ATOM      9  O   UNL     1       1.878   5.564  21.183  0.00  0.00    +0.000 OA
ATOM     10  N   UNL     1       1.465   7.781  21.442  0.00  0.00    +0.000 N 
ATOM     11  C   UNL     1       1.490   8.910  20.680  0.00  0.00    +0.000 C 
ATOM     12  O   UNL     1       1.335  10.044  21.103  0.00  0.00    +0.000 OA
ATOM     13  N   UNL     1       1.725   8.536  19.361  0.00  0.00    +0.000 N 
ATOM     14  H   UNL     1       1.369   7.778  22.445  0.00  0.00    +0.000 HD
BRANCH  13  15
ATOM     15  C   UNL     1       1.801   9.514  18.297  0.00  0.00    +0.000 C 
BRANCH  15  16
ATOM     16  C   UNL     1       0.504  10.259  18.176  0.00  0.00    +0.000 A 
ATOM     17  C   UNL     1      -0.732   9.776  17.786  0.00  0.00    +0.000 A 
ATOM     18  C   UNL     1      -1.733  10.790  17.771  0.00  0.00    +0.000 A 
ATOM     19  C   UNL     1      -1.238  12.005  18.185  0.00  0.00    +0.000 A 
ATOM     20  S   UNL     1       0.418  11.921  18.592  0.00  0.00    +0.000 S 
ENDBRANCH  15  16
ENDBRANCH  13  15
ENDBRANCH   4   6
BRANCH   1  21
ATOM     21  C   UNL     1       3.853   1.831  18.358  0.00  0.00    +0.000 C 
BRANCH  21  22
ATOM     22  C   UNL     1       4.280   1.812  19.839  0.00  0.00    +0.000 C 
BRANCH  22  24
ATOM     23  C   UNL     1       2.301   1.965  21.393  0.00  0.00    +0.000 C 
ATOM     24  C   UNL     1       3.426   2.731  20.707  0.00  0.00    +0.000 C 
ENDBRANCH  22  24
ENDBRANCH  21  22
ENDBRANCH   1  21
BRANCH   5  25
ATOM     25  C   UNL     1       4.580   4.919  18.210  0.00  0.00    +0.000 C 
BRANCH  25  26
ATOM     26  C   UNL     1       5.436   4.722  16.970  0.00  0.00    +0.000 A 
ATOM     27  C   UNL     1       4.902   4.332  15.736  0.00  0.00    +0.000 A 
ATOM     28  C   UNL     1       5.675   4.382  14.575  0.00  0.00    +0.000 A 
ATOM     29  C   UNL     1       7.006   4.809  14.623  0.00  0.00    +0.000 A 
ATOM     30  C   UNL     1       7.591   5.086  15.864  0.00  0.00    +0.000 A 
ATOM     31  C   UNL     1       6.810   5.031  17.029  0.00  0.00    +0.000 A 
BRANCH  29  32
ATOM     32  C   UNL     1       7.667   5.086  13.321  0.00  0.00    +0.000 C 
ATOM     33  O   UNL     1       8.585   5.885  13.219  0.00  0.00    +0.000 OA
BRANCH  32  34
ATOM     34  O   UNL     1       7.195   4.392  12.269  0.00  0.00    +0.000 OA
ATOM     35  H   UNL     1       6.759   3.551  12.488  0.00  0.00    +0.000 HD
ENDBRANCH  32  34
ENDBRANCH  29  32
ENDBRANCH  25  26
ENDBRANCH   5  25
TORSDOF 10
ENDMDL
MODEL 4
REMARK VINA RESULT:      -6.2      3.419      8.931
REMARK  Name = 
REMARK  11 active torsions:
REMARK  status: ('A' for Active; 'I' for Inactive)
REMARK    1  A    between atoms: C_1  and  C_2
REMARK    2  A    between atoms: C_2  and  C_3
REMARK    3  A    between atoms: C_3  and  C_4
REMARK    4  A    between atoms: C_4  and  C_5
REMARK    5  A    between atoms: C_8  and  C_9
REMARK    6  A    between atoms: N_16  and  C_17
REMARK    7  A    between atoms: C_17  and  C_18
REMARK    8  A    between atoms: N_23  and  C_24
REMARK    9  A    between atoms: C_24  and  C_25
REMARK   10  A    between atoms: C_28  and  C_29
REMARK   11  A    between atoms: C_29  and  O_31
REMARK                            x       y       z     vdW  Elec       q    Type
REMARK                         _______ _______ _______ _____ _____    ______ ____
ROOT
ATOM      1  C   UNL     1       0.392   9.376  21.001  0.00  0.00    +0.000 A 
ATOM      2  N   UNL     1       0.904   8.769  22.046  0.00  0.00    +0.000 NA
ATOM      3  C   UNL     1       1.801   7.873  21.570  0.00  0.00    +0.000 A 
ATOM      4  C   UNL     1       1.911   7.937  20.194  0.00  0.00    +0.000 A 
ATOM      5  N   UNL     1       1.013   8.938  19.837  0.00  0.00    +0.000 N 
ENDROOT
BRANCH   4   6
ATOM      6  C   UNL     1       2.655   7.207  19.230  0.00  0.00    +0.000 C 
ATOM      7  C   UNL     1       2.601   5.875  19.049  0.00  0.00    +0.000 C 
ATOM      8  C   UNL     1       1.777   4.823  19.767  0.00  0.00    +0.000 C 
ATOM      9  O   UNL     1       0.868   4.946  20.562  0.00  0.00    +0.000 OA
ATOM     10  N   UNL     1       2.209   3.636  19.281  0.00  0.00    +0.000 N 
ATOM     11  C   UNL     1       3.130   3.797  18.290  0.00  0.00    +0.000 C 
ATOM     12  O   UNL     1       3.642   2.888  17.657  0.00  0.00    +0.000 OA
ATOM     13  N   UNL     1       3.365   5.159  18.134  0.00  0.00    +0.000 N 
ATOM     14  H   UNL     1       1.820   2.748  19.553  0.00  0.00    +0.000 HD
BRANCH  13  15
ATOM     15  C   UNL     1       4.307   5.659  17.157  0.00  0.00    +0.000 C 
BRANCH  15  16
ATOM     16  C   UNL     1       5.646   5.896  17.791  0.00  0.00    +0.000 A 
ATOM     17  C   UNL     1       6.235   5.210  18.838  0.00  0.00    +0.000 A 
ATOM     18  C   UNL     1       7.513   5.737  19.184  0.00  0.00    +0.000 A 
ATOM     19  C   UNL     1       7.875   6.783  18.367  0.00  0.00    +0.000 A 
ATOM     20  S   UNL     1       6.684   7.123  17.191  0.00  0.00    +0.000 S 
ENDBRANCH  15  16
ENDBRANCH  13  15
ENDBRANCH   4   6
BRANCH   1  21
ATOM     21  C   UNL     1      -0.786  10.296  21.120  0.00  0.00    +0.000 C 
BRANCH  21  22
ATOM     22  C   UNL     1      -0.616  11.231  22.334  0.00  0.00    +0.000 C 
BRANCH  22  24
ATOM     23  C   UNL     1      -2.478  12.737  21.548  0.00  0.00    +0.000 C 
ATOM     24  C   UNL     1      -1.035  12.666  22.031  0.00  0.00    +0.000 C 
ENDBRANCH  22  24
ENDBRANCH  21  22
ENDBRANCH   1  21
BRANCH   5  25
ATOM     25  C   UNL     1       0.785   9.471  18.487  0.00  0.00    +0.000 C 
BRANCH  25  26
ATOM     26  C   UNL     1       0.623  10.979  18.411  0.00  0.00    +0.000 A 
ATOM     27  C   UNL     1      -0.599  11.594  18.110  0.00  0.00    +0.000 A 
ATOM     28  C   UNL     1      -0.765  12.971  18.272  0.00  0.00    +0.000 A 
ATOM     29  C   UNL     1       0.291  13.768  18.724  0.00  0.00    +0.000 A 
ATOM     30  C   UNL     1       1.552  13.190  18.913  0.00  0.00    +0.000 A 
ATOM     31  C   UNL     1       1.715  11.805  18.746  0.00  0.00    +0.000 A 
BRANCH  29  32
ATOM     32  C   UNL     1      -0.043  15.160  19.121  0.00  0.00    +0.000 C 
ATOM     33  O   UNL     1       0.793  16.050  19.125  0.00  0.00    +0.000 OA
BRANCH  32  34
ATOM     34  O   UNL     1      -1.327  15.375  19.461  0.00  0.00    +0.000 OA
ATOM     35  H   UNL     1      -1.487  15.527  20.408  0.00  0.00    +0.000 HD
ENDBRANCH  32  34
ENDBRANCH  29  32
ENDBRANCH  25  26
ENDBRANCH   5  25
TORSDOF 10
ENDMDL
MODEL 5
REMARK VINA RESULT:      -6.2      3.418      8.966
REMARK  Name = 
REMARK  11 active torsions:
REMARK  status: ('A' for Active; 'I' for Inactive)
REMARK    1  A    between atoms: C_1  and  C_2
REMARK    2  A    between atoms: C_2  and  C_3
REMARK    3  A    between atoms: C_3  and  C_4
REMARK    4  A    between atoms: C_4  and  C_5
REMARK    5  A    between atoms: C_8  and  C_9
REMARK    6  A    between atoms: N_16  and  C_17
REMARK    7  A    between atoms: C_17  and  C_18
REMARK    8  A    between atoms: N_23  and  C_24
REMARK    9  A    between atoms: C_24  and  C_25
REMARK   10  A    between atoms: C_28  and  C_29
REMARK   11  A    between atoms: C_29  and  O_31
REMARK                            x       y       z     vdW  Elec       q    Type
REMARK                         _______ _______ _______ _____ _____    ______ ____
ROOT
ATOM      1  C   UNL     1       0.272   9.506  21.062  0.00  0.00    +0.000 A 
ATOM      2  N   UNL     1       0.812   8.891  22.089  0.00  0.00    +0.000 NA
ATOM      3  C   UNL     1       1.719   8.022  21.582  0.00  0.00    +0.000 A 
ATOM      4  C   UNL     1       1.806   8.113  20.206  0.00  0.00    +0.000 A 
ATOM      5  N   UNL     1       0.883   9.102  19.882  0.00  0.00    +0.000 N 
ENDROOT
BRANCH   4   6
ATOM      6  C   UNL     1       2.548   7.415  19.218  0.00  0.00    +0.000 C 
ATOM      7  C   UNL     1       2.569   6.080  19.056  0.00  0.00    +0.000 C 
ATOM      8  C   UNL     1       1.846   4.990  19.826  0.00  0.00    +0.000 C 
ATOM      9  O   UNL     1       0.969   5.070  20.661  0.00  0.00    +0.000 OA
ATOM     10  N   UNL     1       2.328   3.825  19.335  0.00  0.00    +0.000 N 
ATOM     11  C   UNL     1       3.190   4.026  18.300  0.00  0.00    +0.000 C 
ATOM     12  O   UNL     1       3.729   3.140  17.656  0.00  0.00    +0.000 OA
ATOM     13  N   UNL     1       3.333   5.398  18.116  0.00  0.00    +0.000 N 
ATOM     14  H   UNL     1       2.008   2.919  19.637  0.00  0.00    +0.000 HD
BRANCH  13  15
ATOM     15  C   UNL     1       4.196   5.939  17.089  0.00  0.00    +0.000 C 
BRANCH  15  16
ATOM     16  C   UNL     1       5.573   6.180  17.634  0.00  0.00    +0.000 A 
ATOM     17  C   UNL     1       6.512   7.109  17.221  0.00  0.00    +0.000 A 
ATOM     18  C   UNL     1       7.722   7.029  17.968  0.00  0.00    +0.000 A 
ATOM     19  C   UNL     1       7.656   6.069  18.951  0.00  0.00    +0.000 A 
ATOM     20  S   UNL     1       6.144   5.274  18.974  0.00  0.00    +0.000 S 
ENDBRANCH  15  16
ENDBRANCH  13  15
ENDBRANCH   4   6
BRANCH   1  21
ATOM     21  C   UNL     1      -0.922  10.401  21.217  0.00  0.00    +0.000 C 
BRANCH  21  22
ATOM     22  C   UNL     1      -0.746  11.325  22.439  0.00  0.00    +0.000 C 
BRANCH  22  24
ATOM     23  C   UNL     1      -1.660  13.612  21.904  0.00  0.00    +0.000 C 
ATOM     24  C   UNL     1      -0.405  12.758  22.045  0.00  0.00    +0.000 C 
ENDBRANCH  22  24
ENDBRANCH  21  22
ENDBRANCH   1  21
BRANCH   5  25
ATOM     25  C   UNL     1       0.623   9.654  18.545  0.00  0.00    +0.000 C 
BRANCH  25  26
ATOM     26  C   UNL     1       0.653  11.170  18.460  0.00  0.00    +0.000 A 
ATOM     27  C   UNL     1      -0.493  11.937  18.214  0.00  0.00    +0.000 A 
ATOM     28  C   UNL     1      -0.471  13.324  18.367  0.00  0.00    +0.000 A 
ATOM     29  C   UNL     1       0.701  13.980  18.757  0.00  0.00    +0.000 A 
ATOM     30  C   UNL     1       1.885  13.244  18.888  0.00  0.00    +0.000 A 
ATOM     31  C   UNL     1       1.858  11.850  18.730  0.00  0.00    +0.000 A 
BRANCH  29  32
ATOM     32  C   UNL     1       0.570  15.406  19.154  0.00  0.00    +0.000 C 
ATOM     33  O   UNL     1      -0.514  15.909  19.406  0.00  0.00    +0.000 OA
BRANCH  32  34
ATOM     34  O   UNL     1       1.721  16.097  19.230  0.00  0.00    +0.000 OA
ATOM     35  H   UNL     1       1.690  16.899  19.779  0.00  0.00    +0.000 HD
ENDBRANCH  32  34
ENDBRANCH  29  32
ENDBRANCH  25  26
ENDBRANCH   5  25
TORSDOF 10
ENDMDL
MODEL 6
REMARK VINA RESULT:      -6.1      3.775      8.660
REMARK  Name = 
REMARK  11 active torsions:
REMARK  status: ('A' for Active; 'I' for Inactive)
REMARK    1  A    between atoms: C_1  and  C_2
REMARK    2  A    between atoms: C_2  and  C_3
REMARK    3  A    between atoms: C_3  and  C_4
REMARK    4  A    between atoms: C_4  and  C_5
REMARK    5  A    between atoms: C_8  and  C_9
REMARK    6  A    between atoms: N_16  and  C_17
REMARK    7  A    between atoms: C_17  and  C_18
REMARK    8  A    between atoms: N_23  and  C_24
REMARK    9  A    between atoms: C_24  and  C_25
REMARK   10  A    between atoms: C_28  and  C_29
REMARK   11  A    between atoms: C_29  and  O_31
REMARK                            x       y       z     vdW  Elec       q    Type
REMARK                         _______ _______ _______ _____ _____    ______ ____
ROOT
ATOM      1  C   UNL     1       0.548   9.598  21.236  0.00  0.00    +0.000 A 
ATOM      2  N   UNL     1       0.954   8.819  22.212  0.00  0.00    +0.000 NA
ATOM      3  C   UNL     1       1.754   7.883  21.650  0.00  0.00    +0.000 A 
ATOM      4  C   UNL     1       1.913   8.089  20.293  0.00  0.00    +0.000 A 
ATOM      5  N   UNL     1       1.149   9.224  20.040  0.00  0.00    +0.000 N 
ENDROOT
BRANCH   4   6
ATOM      6  C   UNL     1       2.596   7.390  19.263  0.00  0.00    +0.000 C 
ATOM      7  C   UNL     1       2.542   6.062  19.054  0.00  0.00    +0.000 C 
ATOM      8  C   UNL     1       1.779   4.985  19.802  0.00  0.00    +0.000 C 
ATOM      9  O   UNL     1       0.925   5.079  20.659  0.00  0.00    +0.000 OA
ATOM     10  N   UNL     1       2.187   3.814  19.259  0.00  0.00    +0.000 N 
ATOM     11  C   UNL     1       3.036   4.008  18.212  0.00  0.00    +0.000 C 
ATOM     12  O   UNL     1       3.513   3.119  17.524  0.00  0.00    +0.000 OA
ATOM     13  N   UNL     1       3.248   5.376  18.073  0.00  0.00    +0.000 N 
ATOM     14  H   UNL     1       1.826   2.916  19.536  0.00  0.00    +0.000 HD
BRANCH  13  15
ATOM     15  C   UNL     1       4.116   5.908  17.045  0.00  0.00    +0.000 C 
BRANCH  15  16
ATOM     16  C   UNL     1       5.494   6.141  17.592  0.00  0.00    +0.000 A 
ATOM     17  C   UNL     1       6.419   7.097  17.215  0.00  0.00    +0.000 A 
ATOM     18  C   UNL     1       7.636   6.998  17.949  0.00  0.00    +0.000 A 
ATOM     19  C   UNL     1       7.588   5.994  18.889  0.00  0.00    +0.000 A 
ATOM     20  S   UNL     1       6.085   5.182  18.886  0.00  0.00    +0.000 S 
ENDBRANCH  15  16
ENDBRANCH  13  15
ENDBRANCH   4   6
BRANCH   1  21
ATOM     21  C   UNL     1      -0.517  10.633  21.442  0.00  0.00    +0.000 C 
BRANCH  21  22
ATOM     22  C   UNL     1      -0.985  10.637  22.911  0.00  0.00    +0.000 C 
BRANCH  22  24
ATOM     23  C   UNL     1      -2.505  12.396  21.938  0.00  0.00    +0.000 C 
ATOM     24  C   UNL     1      -1.950  11.779  23.215  0.00  0.00    +0.000 C 
ENDBRANCH  22  24
ENDBRANCH  21  22
ENDBRANCH   1  21
BRANCH   5  25
ATOM     25  C   UNL     1       1.026   9.930  18.757  0.00  0.00    +0.000 C 
BRANCH  25  26
ATOM     26  C   UNL     1      -0.384  10.362  18.394  0.00  0.00    +0.000 A 
ATOM     27  C   UNL     1      -0.725  11.697  18.142  0.00  0.00    +0.000 A 
ATOM     28  C   UNL     1      -1.966  12.026  17.594  0.00  0.00    +0.000 A 
ATOM     29  C   UNL     1      -2.901  11.029  17.297  0.00  0.00    +0.000 A 
ATOM     30  C   UNL     1      -2.625   9.704  17.654  0.00  0.00    +0.000 A 
ATOM     31  C   UNL     1      -1.377   9.379  18.209  0.00  0.00    +0.000 A 
BRANCH  29  32
ATOM     32  C   UNL     1      -4.072  11.434  16.477  0.00  0.00    +0.000 C 
ATOM     33  O   UNL     1      -5.210  11.419  16.922  0.00  0.00    +0.000 OA
BRANCH  32  34
ATOM     34  O   UNL     1      -3.794  11.829  15.221  0.00  0.00    +0.000 OA
ATOM     35  H   UNL     1      -2.946  11.514  14.864  0.00  0.00    +0.000 HD
ENDBRANCH  32  34
ENDBRANCH  29  32
ENDBRANCH  25  26
ENDBRANCH   5  25
TORSDOF 10
ENDMDL
MODEL 7
REMARK VINA RESULT:      -6.1      6.727     10.861
REMARK  Name = 
REMARK  11 active torsions:
REMARK  status: ('A' for Active; 'I' for Inactive)
REMARK    1  A    between atoms: C_1  and  C_2
REMARK    2  A    between atoms: C_2  and  C_3
REMARK    3  A    between atoms: C_3  and  C_4
REMARK    4  A    between atoms: C_4  and  C_5
REMARK    5  A    between atoms: C_8  and  C_9
REMARK    6  A    between atoms: N_16  and  C_17
REMARK    7  A    between atoms: C_17  and  C_18
REMARK    8  A    between atoms: N_23  and  C_24
REMARK    9  A    between atoms: C_24  and  C_25
REMARK   10  A    between atoms: C_28  and  C_29
REMARK   11  A    between atoms: C_29  and  O_31
REMARK                            x       y       z     vdW  Elec       q    Type
REMARK                         _______ _______ _______ _____ _____    ______ ____
ROOT
ATOM      1  C   UNL     1      -0.784  14.228  21.493  0.00  0.00    +0.000 A 
ATOM      2  N   UNL     1      -1.029  15.517  21.440  0.00  0.00    +0.000 NA
ATOM      3  C   UNL     1      -2.376  15.650  21.394  0.00  0.00    +0.000 A 
ATOM      4  C   UNL     1      -3.017  14.428  21.472  0.00  0.00    +0.000 A 
ATOM      5  N   UNL     1      -1.973  13.513  21.566  0.00  0.00    +0.000 N 
ENDROOT
BRANCH   4   6
ATOM      6  C   UNL     1      -4.377  14.024  21.424  0.00  0.00    +0.000 C 
ATOM      7  C   UNL     1      -5.105  13.611  22.478  0.00  0.00    +0.000 C 
ATOM      8  C   UNL     1      -4.719  13.470  23.938  0.00  0.00    +0.000 C 
ATOM      9  O   UNL     1      -3.721  13.836  24.525  0.00  0.00    +0.000 OA
ATOM     10  N   UNL     1      -5.785  12.889  24.536  0.00  0.00    +0.000 N 
ATOM     11  C   UNL     1      -6.826  12.725  23.672  0.00  0.00    +0.000 C 
ATOM     12  O   UNL     1      -7.917  12.266  23.971  0.00  0.00    +0.000 OA
ATOM     13  N   UNL     1      -6.423  13.174  22.419  0.00  0.00    +0.000 N 
ATOM     14  H   UNL     1      -5.833  12.695  25.523  0.00  0.00    +0.000 HD
BRANCH  13  15
ATOM     15  C   UNL     1      -7.309  13.126  21.276  0.00  0.00    +0.000 C 
BRANCH  15  16
ATOM     16  C   UNL     1      -7.166  11.817  20.556  0.00  0.00    +0.000 A 
ATOM     17  C   UNL     1      -7.616  10.568  20.944  0.00  0.00    +0.000 A 
ATOM     18  C   UNL     1      -7.275   9.550  20.008  0.00  0.00    +0.000 A 
ATOM     19  C   UNL     1      -6.608  10.059  18.917  0.00  0.00    +0.000 A 
ATOM     20  S   UNL     1      -6.400  11.751  19.023  0.00  0.00    +0.000 S 
ENDBRANCH  15  16
ENDBRANCH  13  15
ENDBRANCH   4   6
BRANCH   1  21
ATOM     21  C   UNL     1       0.606  13.682  21.352  0.00  0.00    +0.000 C 
BRANCH  21  22
ATOM     22  C   UNL     1       1.116  13.877  19.910  0.00  0.00    +0.000 C 
BRANCH  22  24
ATOM     23  C   UNL     1       3.388  14.566  19.063  0.00  0.00    +0.000 C 
ATOM     24  C   UNL     1       2.128  15.013  19.795  0.00  0.00    +0.000 C 
ENDBRANCH  22  24
ENDBRANCH  21  22
ENDBRANCH   1  21
BRANCH   5  25
ATOM     25  C   UNL     1      -2.095  12.061  21.752  0.00  0.00    +0.000 C 
BRANCH  25  26
ATOM     26  C   UNL     1      -1.327  11.218  20.747  0.00  0.00    +0.000 A 
ATOM     27  C   UNL     1      -1.503  11.343  19.364  0.00  0.00    +0.000 A 
ATOM     28  C   UNL     1      -0.626  10.722  18.473  0.00  0.00    +0.000 A 
ATOM     29  C   UNL     1       0.439   9.948  18.944  0.00  0.00    +0.000 A 
ATOM     30  C   UNL     1       0.558   9.713  20.319  0.00  0.00    +0.000 A 
ATOM     31  C   UNL     1      -0.328  10.338  21.211  0.00  0.00    +0.000 A 
BRANCH  29  32
ATOM     32  C   UNL     1       1.469   9.551  17.949  0.00  0.00    +0.000 C 
ATOM     33  O   UNL     1       1.692   8.380  17.682  0.00  0.00    +0.000 OA
BRANCH  32  34
ATOM     34  O   UNL     1       2.125  10.564  17.354  0.00  0.00    +0.000 OA
ATOM     35  H   UNL     1       1.571  11.316  17.083  0.00  0.00    +0.000 HD
ENDBRANCH  32  34
ENDBRANCH  29  32
ENDBRANCH  25  26
ENDBRANCH   5  25
TORSDOF 10
ENDMDL
MODEL 8
REMARK VINA RESULT:      -5.9      8.943     11.093
REMARK  Name = 
REMARK  11 active torsions:
REMARK  status: ('A' for Active; 'I' for Inactive)
REMARK    1  A    between atoms: C_1  and  C_2
REMARK    2  A    between atoms: C_2  and  C_3
REMARK    3  A    between atoms: C_3  and  C_4
REMARK    4  A    between atoms: C_4  and  C_5
REMARK    5  A    between atoms: C_8  and  C_9
REMARK    6  A    between atoms: N_16  and  C_17
REMARK    7  A    between atoms: C_17  and  C_18
REMARK    8  A    between atoms: N_23  and  C_24
REMARK    9  A    between atoms: C_24  and  C_25
REMARK   10  A    between atoms: C_28  and  C_29
REMARK   11  A    between atoms: C_29  and  O_31
REMARK                            x       y       z     vdW  Elec       q    Type
REMARK                         _______ _______ _______ _____ _____    ______ ____
ROOT
ATOM      1  C   UNL     1      -3.803  11.194  17.066  0.00  0.00    +0.000 A 
ATOM      2  N   UNL     1      -4.914  11.600  16.495  0.00  0.00    +0.000 NA
ATOM      3  C   UNL     1      -5.616  12.260  17.447  0.00  0.00    +0.000 A 
ATOM      4  C   UNL     1      -4.925  12.328  18.642  0.00  0.00    +0.000 A 
ATOM      5  N   UNL     1      -3.736  11.657  18.374  0.00  0.00    +0.000 N 
ENDROOT
BRANCH   4   6
ATOM      6  C   UNL     1      -5.226  12.855  19.925  0.00  0.00    +0.000 C 
ATOM      7  C   UNL     1      -6.080  12.312  20.811  0.00  0.00    +0.000 C 
ATOM      8  C   UNL     1      -6.917  11.050  20.715  0.00  0.00    +0.000 C 
ATOM      9  O   UNL     1      -6.901  10.159  19.891  0.00  0.00    +0.000 OA
ATOM     10  N   UNL     1      -7.691  11.048  21.825  0.00  0.00    +0.000 N 
ATOM     11  C   UNL     1      -7.394  12.088  22.654  0.00  0.00    +0.000 C 
ATOM     12  O   UNL     1      -7.917  12.289  23.738  0.00  0.00    +0.000 OA
ATOM     13  N   UNL     1      -6.405  12.856  22.048  0.00  0.00    +0.000 N 
ATOM     14  H   UNL     1      -8.335  10.309  22.053  0.00  0.00    +0.000 HD
BRANCH  13  15
ATOM     15  C   UNL     1      -5.877  14.047  22.678  0.00  0.00    +0.000 C 
BRANCH  15  16
ATOM     16  C   UNL     1      -4.457  13.825  23.111  0.00  0.00    +0.000 A 
ATOM     17  C   UNL     1      -3.815  12.629  23.374  0.00  0.00    +0.000 A 
ATOM     18  C   UNL     1      -2.463  12.815  23.783  0.00  0.00    +0.000 A 
ATOM     19  C   UNL     1      -2.105  14.143  23.783  0.00  0.00    +0.000 A 
ATOM     20  S   UNL     1      -3.389  15.155  23.289  0.00  0.00    +0.000 S 
ENDBRANCH  15  16
ENDBRANCH  13  15
ENDBRANCH   4   6
BRANCH   1  21
ATOM     21  C   UNL     1      -2.861  10.252  16.377  0.00  0.00    +0.000 C 
BRANCH  21  22
ATOM     22  C   UNL     1      -3.555   9.580  15.176  0.00  0.00    +0.000 C 
BRANCH  22  24
ATOM     23  C   UNL     1      -3.999   9.829  12.708  0.00  0.00    +0.000 C 
ATOM     24  C   UNL     1      -3.003  10.059  13.838  0.00  0.00    +0.000 C 
ENDBRANCH  22  24
ENDBRANCH  21  22
ENDBRANCH   1  21
BRANCH   5  25
ATOM     25  C   UNL     1      -2.594  11.500  19.285  0.00  0.00    +0.000 C 
BRANCH  25  26
ATOM     26  C   UNL     1      -1.599  12.648  19.272  0.00  0.00    +0.000 A 
ATOM     27  C   UNL     1      -1.544  13.613  20.286  0.00  0.00    +0.000 A 
ATOM     28  C   UNL     1      -0.479  14.513  20.358  0.00  0.00    +0.000 A 
ATOM     29  C   UNL     1       0.548  14.479  19.411  0.00  0.00    +0.000 A 
ATOM     30  C   UNL     1       0.448  13.603  18.324  0.00  0.00    +0.000 A 
ATOM     31  C   UNL     1      -0.626  12.702  18.253  0.00  0.00    +0.000 A 
BRANCH  29  32
ATOM     32  C   UNL     1       1.763  15.281  19.713  0.00  0.00    +0.000 C 
ATOM     33  O   UNL     1       2.888  14.854  19.503  0.00  0.00    +0.000 OA
BRANCH  32  34
ATOM     34  O   UNL     1       1.539  16.508  20.217  0.00  0.00    +0.000 OA
ATOM     35  H   UNL     1       0.832  17.014  19.782  0.00  0.00    +0.000 HD
ENDBRANCH  32  34
ENDBRANCH  29  32
ENDBRANCH  25  26
ENDBRANCH   5  25
TORSDOF 10
ENDMDL
MODEL 9
REMARK VINA RESULT:      -5.9      3.231      6.216
REMARK  Name = 
REMARK  11 active torsions:
REMARK  status: ('A' for Active; 'I' for Inactive)
REMARK    1  A    between atoms: C_1  and  C_2
REMARK    2  A    between atoms: C_2  and  C_3
REMARK    3  A    between atoms: C_3  and  C_4
REMARK    4  A    between atoms: C_4  and  C_5
REMARK    5  A    between atoms: C_8  and  C_9
REMARK    6  A    between atoms: N_16  and  C_17
REMARK    7  A    between atoms: C_17  and  C_18
REMARK    8  A    between atoms: N_23  and  C_24
REMARK    9  A    between atoms: C_24  and  C_25
REMARK   10  A    between atoms: C_28  and  C_29
REMARK   11  A    between atoms: C_29  and  O_31
REMARK                            x       y       z     vdW  Elec       q    Type
REMARK                         _______ _______ _______ _____ _____    ______ ____
ROOT
ATOM      1  C   UNL     1       1.777   6.467  20.238  0.00  0.00    +0.000 A 
ATOM      2  N   UNL     1       1.291   6.917  21.372  0.00  0.00    +0.000 NA
ATOM      3  C   UNL     1       1.238   8.265  21.259  0.00  0.00    +0.000 A 
ATOM      4  C   UNL     1       1.647   8.694  20.010  0.00  0.00    +0.000 A 
ATOM      5  N   UNL     1       1.967   7.514  19.346  0.00  0.00    +0.000 N 
ENDROOT
BRANCH   4   6
ATOM      6  C   UNL     1       1.815   9.970  19.413  0.00  0.00    +0.000 C 
ATOM      7  C   UNL     1       0.847  10.891  19.257  0.00  0.00    +0.000 C 
ATOM      8  C   UNL     1      -0.617  10.849  19.655  0.00  0.00    +0.000 C 
ATOM      9  O   UNL     1      -1.221  10.048  20.337  0.00  0.00    +0.000 OA
ATOM     10  N   UNL     1      -1.160  11.978  19.145  0.00  0.00    +0.000 N 
ATOM     11  C   UNL     1      -0.223  12.772  18.556  0.00  0.00    +0.000 C 
ATOM     12  O   UNL     1      -0.444  13.865  18.059  0.00  0.00    +0.000 OA
ATOM     13  N   UNL     1       1.005  12.122  18.631  0.00  0.00    +0.000 N 
ATOM     14  H   UNL     1      -2.123  12.242  19.276  0.00  0.00    +0.000 HD
BRANCH  13  15
ATOM     15  C   UNL     1       2.208  12.709  18.082  0.00  0.00    +0.000 C 
BRANCH  15  16
ATOM     16  C   UNL     1       2.821  13.664  19.065  0.00  0.00    +0.000 A 
ATOM     17  C   UNL     1       2.814  13.600  20.446  0.00  0.00    +0.000 A 
ATOM     18  C   UNL     1       3.485  14.703  21.046  0.00  0.00    +0.000 A 
ATOM     19  C   UNL     1       4.016  15.555  20.105  0.00  0.00    +0.000 A 
ATOM     20  S   UNL     1       3.709  15.023  18.511  0.00  0.00    +0.000 S 
ENDBRANCH  15  16
ENDBRANCH  13  15
ENDBRANCH   4   6
BRANCH   1  21
ATOM     21  C   UNL     1       2.171   5.030  20.064  0.00  0.00    +0.000 C 
BRANCH  21  22
ATOM     22  C   UNL     1       0.922   4.127  20.062  0.00  0.00    +0.000 C 
BRANCH  22  24
ATOM     23  C   UNL     1       1.974   2.670  21.829  0.00  0.00    +0.000 C 
ATOM     24  C   UNL     1       1.231   2.699  20.499  0.00  0.00    +0.000 C 
ENDBRANCH  22  24
ENDBRANCH  21  22
ENDBRANCH   1  21
BRANCH   5  25
ATOM     25  C   UNL     1       2.389   7.385  17.944  0.00  0.00    +0.000 C 
BRANCH  25  26
ATOM     26  C   UNL     1       3.689   6.629  17.731  0.00  0.00    +0.000 A 
ATOM     27  C   UNL     1       3.729   5.272  17.389  0.00  0.00    +0.000 A 
ATOM     28  C   UNL     1       4.922   4.672  16.982  0.00  0.00    +0.000 A 
ATOM     29  C   UNL     1       6.107   5.411  16.921  0.00  0.00    +0.000 A 
ATOM     30  C   UNL     1       6.111   6.736  17.375  0.00  0.00    +0.000 A 
ATOM     31  C   UNL     1       4.909   7.334  17.786  0.00  0.00    +0.000 A 
BRANCH  29  32
ATOM     32  C   UNL     1       7.258   4.775  16.229  0.00  0.00    +0.000 C 
ATOM     33  O   UNL     1       7.433   4.891  15.025  0.00  0.00    +0.000 OA
BRANCH  32  34
ATOM     34  O   UNL     1       8.097   4.077  17.015  0.00  0.00    +0.000 OA
ATOM     35  H   UNL     1       9.039   4.294  16.914  0.00  0.00    +0.000 HD
ENDBRANCH  32  34
ENDBRANCH  29  32
ENDBRANCH  25  26
ENDBRANCH   5  25
TORSDOF 10
ENDMDL
