MODEL 1
REMARK VINA RESULT:      -6.7      0.000      0.000
REMARK  Name = 
REMARK  5 active torsions:
REMARK  status: ('A' for Active; 'I' for Inactive)
REMARK    1  A    between atoms: C_1  and  O_2
REMARK    2  A    between atoms: O_2  and  C_3
REMARK    3  A    between atoms: C_3  and  C_11
REMARK    4  A    between atoms: C_4  and  C_5
REMARK    5  A    between atoms: N_13  and  C_14
REMARK                            x       y       z     vdW  Elec       q    Type
REMARK                         _______ _______ _______ _____ _____    ______ ____
ROOT
ATOM      1  C   UNL     1       2.117   6.212  20.176  0.00  0.00    +0.000 C 
ATOM      2  O   UNL     1       1.253   5.578  20.777  0.00  0.00    +0.000 OA
ATOM      3  N   UNL     1       2.163   7.584  20.071  0.00  0.00    +0.000 N 
ATOM      4  H   UNL     1       2.793   7.964  19.382  0.00  0.00    +0.000 HD
ENDROOT
BRANCH   3   5
ATOM      5  C   UNL     1       1.338   8.509  20.746  0.00  0.00    +0.000 A 
ATOM      6  C   UNL     1       1.221   8.576  22.136  0.00  0.00    +0.000 A 
ATOM      7  C   UNL     1       0.342   9.478  22.742  0.00  0.00    +0.000 A 
ATOM      8  C   UNL     1      -0.406  10.343  21.955  0.00  0.00    +0.000 A 
ATOM      9 CL   UNL     1      -1.517  11.432  22.695  0.00  0.00    +0.000 Cl
ATOM     10  C   UNL     1      -0.265  10.331  20.570  0.00  0.00    +0.000 A 
ATOM     11  C   UNL     1       0.612   9.420  19.966  0.00  0.00    +0.000 A 
ENDBRANCH   3   5
BRANCH   1  12
ATOM     12  C   UNL     1       3.229   5.467  19.443  0.00  0.00    +0.000 C 
ATOM     13  C   UNL     1       3.686   6.088  18.333  0.00  0.00    +0.000 C 
BRANCH  13  14
ATOM     14  C   UNL     1       4.764   5.704  17.405  0.00  0.00    +0.000 A 
ATOM     15  C   UNL     1       5.996   6.378  17.471  0.00  0.00    +0.000 A 
ATOM     16  C   UNL     1       7.078   5.986  16.678  0.00  0.00    +0.000 A 
ATOM     17  C   UNL     1       6.952   4.911  15.805  0.00  0.00    +0.000 A 
ATOM     18  C   UNL     1       5.733   4.228  15.725  0.00  0.00    +0.000 A 
ATOM     19  C   UNL     1       4.659   4.618  16.521  0.00  0.00    +0.000 A 
ENDBRANCH  13  14
BRANCH  12  21
ATOM     20  C   UNL     1       3.195   3.056  19.532  0.00  0.00    +0.000 C 
ATOM     21  O   UNL     1       3.798   4.291  19.911  0.00  0.00    +0.000 OA
ENDBRANCH  12  21
ENDBRANCH   1  12
TORSDOF 4
ENDMDL
MODEL 2
REMARK VINA RESULT:      -6.7      0.121      1.082
REMARK  Name = 
REMARK  5 active torsions:
REMARK  status: ('A' for Active; 'I' for Inactive)
REMARK    1  A    between atoms: C_1  and  O_2
REMARK    2  A    between atoms: O_2  and  C_3
REMARK    3  A    between atoms: C_3  and  C_11
REMARK    4  A    between atoms: C_4  and  C_5
REMARK    5  A    between atoms: N_13  and  C_14
REMARK                            x       y       z     vdW  Elec       q    Type
REMARK                         _______ _______ _______ _____ _____    ______ ____
ROOT
ATOM      1  C   UNL     1       2.064   6.213  20.195  0.00  0.00    +0.000 C 
ATOM      2  O   UNL     1       1.162   5.608  20.770  0.00  0.00    +0.000 OA
ATOM      3  N   UNL     1       2.150   7.583  20.084  0.00  0.00    +0.000 N 
ATOM      4  H   UNL     1       2.814   7.941  19.414  0.00  0.00    +0.000 HD
ENDROOT
BRANCH   3   5
ATOM      5  C   UNL     1       1.328   8.534  20.723  0.00  0.00    +0.000 A 
ATOM      6  C   UNL     1       1.188   8.633  22.110  0.00  0.00    +0.000 A 
ATOM      7  C   UNL     1       0.312   9.562  22.679  0.00  0.00    +0.000 A 
ATOM      8  C   UNL     1      -0.408  10.420  21.861  0.00  0.00    +0.000 A 
ATOM      9 CL   UNL     1      -1.515  11.542  22.558  0.00  0.00    +0.000 Cl
ATOM     10  C   UNL     1      -0.243  10.377  20.479  0.00  0.00    +0.000 A 
ATOM     11  C   UNL     1       0.630   9.440  19.911  0.00  0.00    +0.000 A 
ENDBRANCH   3   5
BRANCH   1  12
ATOM     12  C   UNL     1       3.180   5.433  19.506  0.00  0.00    +0.000 C 
ATOM     13  C   UNL     1       3.727   6.057  18.439  0.00  0.00    +0.000 C 
BRANCH  13  14
ATOM     14  C   UNL     1       4.837   5.644  17.563  0.00  0.00    +0.000 A 
ATOM     15  C   UNL     1       4.611   4.647  16.597  0.00  0.00    +0.000 A 
ATOM     16  C   UNL     1       5.604   4.290  15.681  0.00  0.00    +0.000 A 
ATOM     17  C   UNL     1       6.842   4.923  15.710  0.00  0.00    +0.000 A 
ATOM     18  C   UNL     1       7.086   5.917  16.664  0.00  0.00    +0.000 A 
ATOM     19  C   UNL     1       6.091   6.274  17.572  0.00  0.00    +0.000 A 
ENDBRANCH  13  14
BRANCH  12  21
ATOM     20  C   UNL     1       3.023   3.026  19.537  0.00  0.00    +0.000 C 
ATOM     21  O   UNL     1       3.666   4.221  19.974  0.00  0.00    +0.000 OA
ENDBRANCH  12  21
ENDBRANCH   1  12
TORSDOF 4
ENDMDL
MODEL 3
REMARK VINA RESULT:      -6.7      2.178      3.324
REMARK  Name = 
REMARK  5 active torsions:
REMARK  status: ('A' for Active; 'I' for Inactive)
REMARK    1  A    between atoms: C_1  and  O_2
REMARK    2  A    between atoms: O_2  and  C_3
REMARK    3  A    between atoms: C_3  and  C_11
REMARK    4  A    between atoms: C_4  and  C_5
REMARK    5  A    between atoms: N_13  and  C_14
REMARK                            x       y       z     vdW  Elec       q    Type
REMARK                         _______ _______ _______ _____ _____    ______ ____
ROOT
ATOM      1  C   UNL     1       4.317   5.612  17.957  0.00  0.00    +0.000 C 
ATOM      2  O   UNL     1       4.991   5.752  18.975  0.00  0.00    +0.000 OA
ATOM      3  N   UNL     1       3.093   6.202  17.731  0.00  0.00    +0.000 N 
ATOM      4  H   UNL     1       2.553   5.841  16.960  0.00  0.00    +0.000 HD
ENDROOT
BRANCH   3   5
ATOM      5  C   UNL     1       2.466   7.177  18.535  0.00  0.00    +0.000 A 
ATOM      6  C   UNL     1       2.197   7.006  19.895  0.00  0.00    +0.000 A 
ATOM      7  C   UNL     1       1.521   7.990  20.623  0.00  0.00    +0.000 A 
ATOM      8  C   UNL     1       1.137   9.167  19.997  0.00  0.00    +0.000 A 
ATOM      9 CL   UNL     1       0.272  10.366  20.882  0.00  0.00    +0.000 Cl
ATOM     10  C   UNL     1       1.443   9.382  18.657  0.00  0.00    +0.000 A 
ATOM     11  C   UNL     1       2.114   8.391  17.928  0.00  0.00    +0.000 A 
ENDBRANCH   3   5
BRANCH   1  12
ATOM     12  C   UNL     1       4.813   4.697  16.841  0.00  0.00    +0.000 C 
ATOM     13  C   UNL     1       5.356   5.341  15.784  0.00  0.00    +0.000 C 
BRANCH  13  14
ATOM     14  C   UNL     1       5.972   4.805  14.558  0.00  0.00    +0.000 A 
ATOM     15  C   UNL     1       5.243   3.900  13.766  0.00  0.00    +0.000 A 
ATOM     16  C   UNL     1       5.746   3.439  12.547  0.00  0.00    +0.000 A 
ATOM     17  C   UNL     1       6.987   3.874  12.093  0.00  0.00    +0.000 A 
ATOM     18  C   UNL     1       7.727   4.773  12.868  0.00  0.00    +0.000 A 
ATOM     19  C   UNL     1       7.219   5.235  14.080  0.00  0.00    +0.000 A 
ENDBRANCH  13  14
BRANCH  12  21
ATOM     20  C   UNL     1       3.773   2.699  17.705  0.00  0.00    +0.000 C 
ATOM     21  O   UNL     1       4.797   3.312  16.925  0.00  0.00    +0.000 OA
ENDBRANCH  12  21
ENDBRANCH   1  12
TORSDOF 4
ENDMDL
MODEL 4
REMARK VINA RESULT:      -6.7      4.373      5.671
REMARK  Name = 
REMARK  5 active torsions:
REMARK  status: ('A' for Active; 'I' for Inactive)
REMARK    1  A    between atoms: C_1  and  O_2
REMARK    2  A    between atoms: O_2  and  C_3
REMARK    3  A    between atoms: C_3  and  C_11
REMARK    4  A    between atoms: C_4  and  C_5
REMARK    5  A    between atoms: N_13  and  C_14
REMARK                            x       y       z     vdW  Elec       q    Type
REMARK                         _______ _______ _______ _____ _____    ______ ____
ROOT
ATOM      1  C   UNL     1       5.118   5.061  18.053  0.00  0.00    +0.000 C 
ATOM      2  O   UNL     1       5.440   5.661  19.076  0.00  0.00    +0.000 OA
ATOM      3  N   UNL     1       4.188   4.048  17.991  0.00  0.00    +0.000 N 
ATOM      4  H   UNL     1       4.171   3.501  17.143  0.00  0.00    +0.000 HD
ENDROOT
BRANCH   3   5
ATOM      5  C   UNL     1       3.337   3.620  19.031  0.00  0.00    +0.000 A 
ATOM      6  C   UNL     1       1.991   3.983  19.132  0.00  0.00    +0.000 A 
ATOM      7  C   UNL     1       1.216   3.571  20.220  0.00  0.00    +0.000 A 
ATOM      8  C   UNL     1       1.778   2.765  21.200  0.00  0.00    +0.000 A 
ATOM      9 CL   UNL     1       0.835   2.285  22.560  0.00  0.00    +0.000 Cl
ATOM     10  C   UNL     1       3.101   2.346  21.091  0.00  0.00    +0.000 A 
ATOM     11  C   UNL     1       3.878   2.768  20.004  0.00  0.00    +0.000 A 
ENDBRANCH   3   5
BRANCH   1  12
ATOM     12  C   UNL     1       5.795   5.405  16.729  0.00  0.00    +0.000 C 
ATOM     13  C   UNL     1       5.852   4.385  15.845  0.00  0.00    +0.000 C 
BRANCH  13  14
ATOM     14  C   UNL     1       6.381   4.347  14.470  0.00  0.00    +0.000 A 
ATOM     15  C   UNL     1       5.725   3.562  13.506  0.00  0.00    +0.000 A 
ATOM     16  C   UNL     1       6.132   3.569  12.169  0.00  0.00    +0.000 A 
ATOM     17  C   UNL     1       7.201   4.362  11.769  0.00  0.00    +0.000 A 
ATOM     18  C   UNL     1       7.868   5.150  12.713  0.00  0.00    +0.000 A 
ATOM     19  C   UNL     1       7.455   5.144  14.044  0.00  0.00    +0.000 A 
ENDBRANCH  13  14
BRANCH  12  21
ATOM     20  C   UNL     1       7.357   7.200  17.128  0.00  0.00    +0.000 C 
ATOM     21  O   UNL     1       6.242   6.678  16.408  0.00  0.00    +0.000 OA
ENDBRANCH  12  21
ENDBRANCH   1  12
TORSDOF 4
ENDMDL
MODEL 5
REMARK VINA RESULT:      -6.6      0.162      1.531
REMARK  Name = 
REMARK  5 active torsions:
REMARK  status: ('A' for Active; 'I' for Inactive)
REMARK    1  A    between atoms: C_1  and  O_2
REMARK    2  A    between atoms: O_2  and  C_3
REMARK    3  A    between atoms: C_3  and  C_11
REMARK    4  A    between atoms: C_4  and  C_5
REMARK    5  A    between atoms: N_13  and  C_14
REMARK                            x       y       z     vdW  Elec       q    Type
REMARK                         _______ _______ _______ _____ _____    ______ ____
ROOT
ATOM      1  C   UNL     1       2.137   6.201  20.101  0.00  0.00    +0.000 C 
ATOM      2  O   UNL     1       1.226   5.585  20.649  0.00  0.00    +0.000 OA
ATOM      3  N   UNL     1       2.207   7.572  19.988  0.00  0.00    +0.000 N 
ATOM      4  H   UNL     1       2.887   7.937  19.338  0.00  0.00    +0.000 HD
ENDROOT
BRANCH   3   5
ATOM      5  C   UNL     1       1.350   8.513  20.596  0.00  0.00    +0.000 A 
ATOM      6  C   UNL     1       0.552   9.411  19.883  0.00  0.00    +0.000 A 
ATOM      7  C   UNL     1      -0.233  10.359  20.547  0.00  0.00    +0.000 A 
ATOM      8  C   UNL     1      -0.246  10.391  21.934  0.00  0.00    +0.000 A 
ATOM      9 CL   UNL     1      -1.185  11.580  22.755  0.00  0.00    +0.000 Cl
ATOM     10  C   UNL     1       0.499   9.470  22.665  0.00  0.00    +0.000 A 
ATOM     11  C   UNL     1       1.291   8.527  21.997  0.00  0.00    +0.000 A 
ENDBRANCH   3   5
BRANCH   1  12
ATOM     12  C   UNL     1       3.286   5.436  19.452  0.00  0.00    +0.000 C 
ATOM     13  C   UNL     1       3.769   5.996  18.322  0.00  0.00    +0.000 C 
BRANCH  13  14
ATOM     14  C   UNL     1       4.884   5.578  17.455  0.00  0.00    +0.000 A 
ATOM     15  C   UNL     1       4.677   4.544  16.525  0.00  0.00    +0.000 A 
ATOM     16  C   UNL     1       5.675   4.178  15.617  0.00  0.00    +0.000 A 
ATOM     17  C   UNL     1       6.898   4.840  15.618  0.00  0.00    +0.000 A 
ATOM     18  C   UNL     1       7.123   5.872  16.536  0.00  0.00    +0.000 A 
ATOM     19  C   UNL     1       6.124   6.237  17.435  0.00  0.00    +0.000 A 
ENDBRANCH  13  14
BRANCH  12  21
ATOM     20  C   UNL     1       3.313   3.032  19.664  0.00  0.00    +0.000 C 
ATOM     21  O   UNL     1       3.860   4.303  20.011  0.00  0.00    +0.000 OA
ENDBRANCH  12  21
ENDBRANCH   1  12
TORSDOF 4
ENDMDL
MODEL 6
REMARK VINA RESULT:      -6.6      0.548      1.208
REMARK  Name = 
REMARK  5 active torsions:
REMARK  status: ('A' for Active; 'I' for Inactive)
REMARK    1  A    between atoms: C_1  and  O_2
REMARK    2  A    between atoms: O_2  and  C_3
REMARK    3  A    between atoms: C_3  and  C_11
REMARK    4  A    between atoms: C_4  and  C_5
REMARK    5  A    between atoms: N_13  and  C_14
REMARK                            x       y       z     vdW  Elec       q    Type
REMARK                         _______ _______ _______ _____ _____    ______ ____
ROOT
ATOM      1  C   UNL     1       2.059   6.195  20.209  0.00  0.00    +0.000 C 
ATOM      2  O   UNL     1       1.144   5.609  20.783  0.00  0.00    +0.000 OA
ATOM      3  N   UNL     1       2.152   7.561  20.060  0.00  0.00    +0.000 N 
ATOM      4  H   UNL     1       2.830   7.898  19.394  0.00  0.00    +0.000 HD
ENDROOT
BRANCH   3   5
ATOM      5  C   UNL     1       1.321   8.533  20.656  0.00  0.00    +0.000 A 
ATOM      6  C   UNL     1       0.562   9.456  19.932  0.00  0.00    +0.000 A 
ATOM      7  C   UNL     1      -0.198  10.431  20.584  0.00  0.00    +0.000 A 
ATOM      8  C   UNL     1      -0.226  10.468  21.970  0.00  0.00    +0.000 A 
ATOM      9 CL   UNL     1      -1.133  11.691  22.777  0.00  0.00    +0.000 Cl
ATOM     10  C   UNL     1       0.478   9.524  22.713  0.00  0.00    +0.000 A 
ATOM     11  C   UNL     1       1.246   8.553  22.056  0.00  0.00    +0.000 A 
ENDBRANCH   3   5
BRANCH   1  12
ATOM     12  C   UNL     1       3.185   5.393  19.565  0.00  0.00    +0.000 C 
ATOM     13  C   UNL     1       3.850   6.043  18.584  0.00  0.00    +0.000 C 
BRANCH  13  14
ATOM     14  C   UNL     1       5.005   5.617  17.775  0.00  0.00    +0.000 A 
ATOM     15  C   UNL     1       6.258   5.467  18.397  0.00  0.00    +0.000 A 
ATOM     16  C   UNL     1       7.359   4.973  17.693  0.00  0.00    +0.000 A 
ATOM     17  C   UNL     1       7.232   4.618  16.355  0.00  0.00    +0.000 A 
ATOM     18  C   UNL     1       5.994   4.761  15.718  0.00  0.00    +0.000 A 
ATOM     19  C   UNL     1       4.897   5.247  16.425  0.00  0.00    +0.000 A 
ENDBRANCH  13  14
BRANCH  12  21
ATOM     20  C   UNL     1       2.989   2.997  19.353  0.00  0.00    +0.000 C 
ATOM     21  O   UNL     1       3.567   4.131  19.996  0.00  0.00    +0.000 OA
ENDBRANCH  12  21
ENDBRANCH   1  12
TORSDOF 4
ENDMDL
MODEL 7
REMARK VINA RESULT:      -6.6      1.525      1.989
REMARK  Name = 
REMARK  5 active torsions:
REMARK  status: ('A' for Active; 'I' for Inactive)
REMARK    1  A    between atoms: C_1  and  O_2
REMARK    2  A    between atoms: O_2  and  C_3
REMARK    3  A    between atoms: C_3  and  C_11
REMARK    4  A    between atoms: C_4  and  C_5
REMARK    5  A    between atoms: N_13  and  C_14
REMARK                            x       y       z     vdW  Elec       q    Type
REMARK                         _______ _______ _______ _____ _____    ______ ____
ROOT
ATOM      1  C   UNL     1       2.118   7.801  18.641  0.00  0.00    +0.000 C 
ATOM      2  O   UNL     1       1.676   8.571  17.792  0.00  0.00    +0.000 OA
ATOM      3  N   UNL     1       1.942   7.937  20.000  0.00  0.00    +0.000 N 
ATOM      4  H   UNL     1       2.527   7.367  20.591  0.00  0.00    +0.000 HD
ENDROOT
BRANCH   3   5
ATOM      5  C   UNL     1       1.113   8.873  20.653  0.00  0.00    +0.000 A 
ATOM      6  C   UNL     1       1.020  10.218  20.285  0.00  0.00    +0.000 A 
ATOM      7  C   UNL     1       0.222  11.108  21.010  0.00  0.00    +0.000 A 
ATOM      8  C   UNL     1      -0.513  10.648  22.093  0.00  0.00    +0.000 A 
ATOM      9 CL   UNL     1      -1.469  11.749  23.010  0.00  0.00    +0.000 Cl
ATOM     10  C   UNL     1      -0.478   9.301  22.444  0.00  0.00    +0.000 A 
ATOM     11  C   UNL     1       0.329   8.413  21.720  0.00  0.00    +0.000 A 
ENDBRANCH   3   5
BRANCH   1  12
ATOM     12  C   UNL     1       2.962   6.604  18.212  0.00  0.00    +0.000 C 
ATOM     13  C   UNL     1       4.081   6.922  17.525  0.00  0.00    +0.000 C 
BRANCH  13  14
ATOM     14  C   UNL     1       5.147   6.056  16.992  0.00  0.00    +0.000 A 
ATOM     15  C   UNL     1       5.207   5.818  15.608  0.00  0.00    +0.000 A 
ATOM     16  C   UNL     1       6.255   5.083  15.046  0.00  0.00    +0.000 A 
ATOM     17  C   UNL     1       7.264   4.573  15.855  0.00  0.00    +0.000 A 
ATOM     18  C   UNL     1       7.221   4.799  17.235  0.00  0.00    +0.000 A 
ATOM     19  C   UNL     1       6.179   5.537  17.791  0.00  0.00    +0.000 A 
ENDBRANCH  13  14
BRANCH  12  21
ATOM     20  C   UNL     1       1.720   4.583  17.770  0.00  0.00    +0.000 C 
ATOM     21  O   UNL     1       2.666   5.296  18.565  0.00  0.00    +0.000 OA
ENDBRANCH  12  21
ENDBRANCH   1  12
TORSDOF 4
ENDMDL
MODEL 8
REMARK VINA RESULT:      -6.6      1.541      1.952
REMARK  Name = 
REMARK  5 active torsions:
REMARK  status: ('A' for Active; 'I' for Inactive)
REMARK    1  A    between atoms: C_1  and  O_2
REMARK    2  A    between atoms: O_2  and  C_3
REMARK    3  A    between atoms: C_3  and  C_11
REMARK    4  A    between atoms: C_4  and  C_5
REMARK    5  A    between atoms: N_13  and  C_14
REMARK                            x       y       z     vdW  Elec       q    Type
REMARK                         _______ _______ _______ _____ _____    ______ ____
ROOT
ATOM      1  C   UNL     1       2.291   8.051  18.515  0.00  0.00    +0.000 C 
ATOM      2  O   UNL     1       2.128   9.057  17.829  0.00  0.00    +0.000 OA
ATOM      3  N   UNL     1       1.873   7.908  19.819  0.00  0.00    +0.000 N 
ATOM      4  H   UNL     1       2.252   7.126  20.331  0.00  0.00    +0.000 HD
ENDROOT
BRANCH   3   5
ATOM      5  C   UNL     1       1.062   8.803  20.548  0.00  0.00    +0.000 A 
ATOM      6  C   UNL     1       0.232   9.757  19.955  0.00  0.00    +0.000 A 
ATOM      7  C   UNL     1      -0.504  10.654  20.736  0.00  0.00    +0.000 A 
ATOM      8  C   UNL     1      -0.435  10.579  22.119  0.00  0.00    +0.000 A 
ATOM      9 CL   UNL     1      -1.312  11.706  23.084  0.00  0.00    +0.000 Cl
ATOM     10  C   UNL     1       0.344   9.601  22.732  0.00  0.00    +0.000 A 
ATOM     11  C   UNL     1       1.086   8.709  21.947  0.00  0.00    +0.000 A 
ENDBRANCH   3   5
BRANCH   1  12
ATOM     12  C   UNL     1       3.039   6.854  17.936  0.00  0.00    +0.000 C 
ATOM     13  C   UNL     1       4.263   7.140  17.442  0.00  0.00    +0.000 C 
BRANCH  13  14
ATOM     14  C   UNL     1       5.281   6.252  16.852  0.00  0.00    +0.000 A 
ATOM     15  C   UNL     1       6.256   5.679  17.687  0.00  0.00    +0.000 A 
ATOM     16  C   UNL     1       7.181   4.757  17.191  0.00  0.00    +0.000 A 
ATOM     17  C   UNL     1       7.151   4.388  15.851  0.00  0.00    +0.000 A 
ATOM     18  C   UNL     1       6.189   4.948  15.003  0.00  0.00    +0.000 A 
ATOM     19  C   UNL     1       5.264   5.862  15.503  0.00  0.00    +0.000 A 
ENDBRANCH  13  14
BRANCH  12  21
ATOM     20  C   UNL     1       2.922   4.741  19.096  0.00  0.00    +0.000 C 
ATOM     21  O   UNL     1       2.553   5.555  17.985  0.00  0.00    +0.000 OA
ENDBRANCH  12  21
ENDBRANCH   1  12
TORSDOF 4
ENDMDL
MODEL 9
REMARK VINA RESULT:      -6.6      4.131      5.456
REMARK  Name = 
REMARK  5 active torsions:
REMARK  status: ('A' for Active; 'I' for Inactive)
REMARK    1  A    between atoms: C_1  and  O_2
REMARK    2  A    between atoms: O_2  and  C_3
REMARK    3  A    between atoms: C_3  and  C_11
REMARK    4  A    between atoms: C_4  and  C_5
REMARK    5  A    between atoms: N_13  and  C_14
REMARK                            x       y       z     vdW  Elec       q    Type
REMARK                         _______ _______ _______ _____ _____    ______ ____
ROOT
ATOM      1  C   UNL     1       5.179   4.426  17.890  0.00  0.00    +0.000 C 
ATOM      2  O   UNL     1       5.974   4.116  18.774  0.00  0.00    +0.000 OA
ATOM      3  N   UNL     1       3.813   4.274  17.967  0.00  0.00    +0.000 N 
ATOM      4  H   UNL     1       3.299   4.366  17.104  0.00  0.00    +0.000 HD
ENDROOT
BRANCH   3   5
ATOM      5  C   UNL     1       3.069   3.891  19.103  0.00  0.00    +0.000 A 
ATOM      6  C   UNL     1       2.879   4.709  20.219  0.00  0.00    +0.000 A 
ATOM      7  C   UNL     1       2.180   4.247  21.338  0.00  0.00    +0.000 A 
ATOM      8  C   UNL     1       1.639   2.969  21.332  0.00  0.00    +0.000 A 
ATOM      9 CL   UNL     1       0.807   2.384  22.723  0.00  0.00    +0.000 Cl
ATOM     10  C   UNL     1       1.769   2.157  20.209  0.00  0.00    +0.000 A 
ATOM     11  C   UNL     1       2.477   2.620  19.092  0.00  0.00    +0.000 A 
ENDBRANCH   3   5
BRANCH   1  12
ATOM     12  C   UNL     1       5.697   4.995  16.572  0.00  0.00    +0.000 C 
ATOM     13  C   UNL     1       5.908   4.074  15.606  0.00  0.00    +0.000 C 
BRANCH  13  14
ATOM     14  C   UNL     1       6.355   4.245  14.212  0.00  0.00    +0.000 A 
ATOM     15  C   UNL     1       7.401   5.142  13.935  0.00  0.00    +0.000 A 
ATOM     16  C   UNL     1       7.923   5.266  12.644  0.00  0.00    +0.000 A 
ATOM     17  C   UNL     1       7.412   4.495  11.606  0.00  0.00    +0.000 A 
ATOM     18  C   UNL     1       6.371   3.597  11.862  0.00  0.00    +0.000 A 
ATOM     19  C   UNL     1       5.857   3.472  13.151  0.00  0.00    +0.000 A 
ENDBRANCH  13  14
BRANCH  12  21
ATOM     20  C   UNL     1       6.663   7.099  17.250  0.00  0.00    +0.000 C 
ATOM     21  O   UNL     1       5.860   6.353  16.339  0.00  0.00    +0.000 OA
ENDBRANCH  12  21
ENDBRANCH   1  12
TORSDOF 4
ENDMDL
