MODEL 1
REMARK VINA RESULT:      -7.3      0.000      0.000
REMARK  Name = 
REMARK  14 active torsions:
REMARK  status: ('A' for Active; 'I' for Inactive)
REMARK    1  A    between atoms: C_1  and  C_2
REMARK    2  A    between atoms: C_2  and  C_3
REMARK    3  A    between atoms: C_2  and  C_4
REMARK    4  A    between atoms: C_8  and  C_9
REMARK    5  A    between atoms: C_9  and  C_10
REMARK    6  A    between atoms: C_9  and  C_11
REMARK    7  A    between atoms: C_12  and  N_13
REMARK    8  A    between atoms: C_14  and  C_16
REMARK    9  A    between atoms: C_16  and  C_17
REMARK   10  A    between atoms: C_17  and  C_18
REMARK   11  A    between atoms: C_18  and  C_19
REMARK   12  A    between atoms: C_19  and  C_20
REMARK   13  A    between atoms: C_20  and  S_21
REMARK   14  A    between atoms: S_21  and  C_22
REMARK                            x       y       z     vdW  Elec       q    Type
REMARK                         _______ _______ _______ _____ _____    ______ ____
ROOT
ATOM      1  N   UNL     1       4.588   5.260  18.918  0.00  0.00    +0.000 N 
ATOM      2  C   UNL     1       4.803   5.293  17.548  0.00  0.00    +0.000 C 
ATOM      3  O   UNL     1       4.044   4.856  16.691  0.00  0.00    +0.000 OA
ATOM      4  H   UNL     1       5.416   5.297  19.489  0.00  0.00    +0.000 HD
ENDROOT
BRANCH   1  10
ATOM      5  C   UNL     1       3.261   3.365  19.742  0.00  0.00    +0.000 A 
ATOM      6  C   UNL     1       2.046   2.891  20.278  0.00  0.00    +0.000 A 
ATOM      7  C   UNL     1       1.019   3.763  20.615  0.00  0.00    +0.000 A 
ATOM      8  C   UNL     1       1.178   5.126  20.406  0.00  0.00    +0.000 A 
ATOM      9  C   UNL     1       2.359   5.664  19.847  0.00  0.00    +0.000 A 
ATOM     10  C   UNL     1       3.416   4.766  19.532  0.00  0.00    +0.000 A 
BRANCH   5  12
ATOM     11  C   UNL     1       4.835   1.636  20.677  0.00  0.00    +0.000 C 
ATOM     12  C   UNL     1       4.333   2.326  19.402  0.00  0.00    +0.000 C 
ATOM     13  C   UNL     1       3.871   1.283  18.377  0.00  0.00    +0.000 C 
ENDBRANCH   5  12
BRANCH   9  14
ATOM     14  C   UNL     1       2.391   7.198  19.799  0.00  0.00    +0.000 C 
ATOM     15  C   UNL     1       2.220   7.701  18.360  0.00  0.00    +0.000 C 
ATOM     16  C   UNL     1       1.478   7.979  20.744  0.00  0.00    +0.000 C 
ENDBRANCH   9  14
ENDBRANCH   1  10
BRANCH   2  17
ATOM     17  C   UNL     1       6.141   5.932  17.211  0.00  0.00    +0.000 C 
BRANCH  17  18
ATOM     18  C   UNL     1       7.163   5.788  18.341  0.00  0.00    +0.000 C 
BRANCH  18  19
ATOM     19  C   UNL     1       7.998   7.053  18.580  0.00  0.00    +0.000 C 
BRANCH  19  20
ATOM     20  C   UNL     1       7.911   8.044  17.419  0.00  0.00    +0.000 C 
BRANCH  20  21
ATOM     21  C   UNL     1       7.950   9.494  17.894  0.00  0.00    +0.000 C 
BRANCH  21  22
ATOM     22  S   UNL     1       9.243   9.650  19.165  0.00  0.00    +0.000 S 
BRANCH  22  23
ATOM     23  C   UNL     1       9.589  11.353  19.068  0.00  0.00    +0.000 A 
ATOM     24  N   UNL     1      10.609  11.929  19.679  0.00  0.00    +0.000 NA
ATOM     25  C   UNL     1      10.497  13.242  19.309  0.00  0.00    +0.000 A 
ATOM     26  C   UNL     1      11.270  14.366  19.619  0.00  0.00    +0.000 A 
ATOM     27  C   UNL     1      10.872  15.581  19.057  0.00  0.00    +0.000 A 
ATOM     28  C   UNL     1       9.746  15.618  18.234  0.00  0.00    +0.000 A 
ATOM     29  N   UNL     1       8.969  14.557  17.911  0.00  0.00    +0.000 NA
ATOM     30  C   UNL     1       9.399  13.416  18.478  0.00  0.00    +0.000 A 
ATOM     31  O   UNL     1       8.811  12.197  18.322  0.00  0.00    +0.000 OA
ENDBRANCH  22  23
ENDBRANCH  21  22
ENDBRANCH  20  21
ENDBRANCH  19  20
ENDBRANCH  18  19
ENDBRANCH  17  18
ENDBRANCH   2  17
TORSDOF 10
ENDMDL
MODEL 2
REMARK VINA RESULT:      -7.2      2.156      4.146
REMARK  Name = 
REMARK  14 active torsions:
REMARK  status: ('A' for Active; 'I' for Inactive)
REMARK    1  A    between atoms: C_1  and  C_2
REMARK    2  A    between atoms: C_2  and  C_3
REMARK    3  A    between atoms: C_2  and  C_4
REMARK    4  A    between atoms: C_8  and  C_9
REMARK    5  A    between atoms: C_9  and  C_10
REMARK    6  A    between atoms: C_9  and  C_11
REMARK    7  A    between atoms: C_12  and  N_13
REMARK    8  A    between atoms: C_14  and  C_16
REMARK    9  A    between atoms: C_16  and  C_17
REMARK   10  A    between atoms: C_17  and  C_18
REMARK   11  A    between atoms: C_18  and  C_19
REMARK   12  A    between atoms: C_19  and  C_20
REMARK   13  A    between atoms: C_20  and  S_21
REMARK   14  A    between atoms: S_21  and  C_22
REMARK                            x       y       z     vdW  Elec       q    Type
REMARK                         _______ _______ _______ _____ _____    ______ ____
ROOT
ATOM      1  N   UNL     1       5.366   6.708  17.019  0.00  0.00    +0.000 N 
ATOM      2  C   UNL     1       6.485   6.843  17.829  0.00  0.00    +0.000 C 
ATOM      3  O   UNL     1       6.733   6.177  18.827  0.00  0.00    +0.000 OA
ATOM      4  H   UNL     1       5.110   7.527  16.493  0.00  0.00    +0.000 HD
ENDROOT
BRANCH   1  10
ATOM      5  C   UNL     1       3.217   6.021  17.988  0.00  0.00    +0.000 A 
ATOM      6  C   UNL     1       2.274   4.998  18.217  0.00  0.00    +0.000 A 
ATOM      7  C   UNL     1       2.440   3.731  17.674  0.00  0.00    +0.000 A 
ATOM      8  C   UNL     1       3.562   3.454  16.904  0.00  0.00    +0.000 A 
ATOM      9  C   UNL     1       4.558   4.425  16.658  0.00  0.00    +0.000 A 
ATOM     10  C   UNL     1       4.364   5.728  17.195  0.00  0.00    +0.000 A 
BRANCH   5  12
ATOM     11  C   UNL     1       2.277   8.328  17.621  0.00  0.00    +0.000 C 
ATOM     12  C   UNL     1       2.946   7.384  18.629  0.00  0.00    +0.000 C 
ATOM     13  C   UNL     1       2.115   7.301  19.915  0.00  0.00    +0.000 C 
ENDBRANCH   5  12
BRANCH   9  14
ATOM     14  C   UNL     1       5.661   3.966  15.695  0.00  0.00    +0.000 C 
ATOM     15  C   UNL     1       5.467   4.594  14.308  0.00  0.00    +0.000 C 
ATOM     16  C   UNL     1       7.119   4.096  16.134  0.00  0.00    +0.000 C 
ENDBRANCH   9  14
ENDBRANCH   1  10
BRANCH   2  17
ATOM     17  C   UNL     1       7.393   7.960  17.340  0.00  0.00    +0.000 C 
BRANCH  17  18
ATOM     18  C   UNL     1       8.447   8.359  18.375  0.00  0.00    +0.000 C 
BRANCH  18  19
ATOM     19  C   UNL     1       8.847   9.838  18.306  0.00  0.00    +0.000 C 
BRANCH  19  20
ATOM     20  C   UNL     1       9.413  10.358  19.629  0.00  0.00    +0.000 C 
BRANCH  20  21
ATOM     21  C   UNL     1      10.456  11.452  19.419  0.00  0.00    +0.000 C 
BRANCH  21  22
ATOM     22  S   UNL     1      10.136  12.256  17.818  0.00  0.00    +0.000 S 
BRANCH  22  23
ATOM     23  C   UNL     1      10.647  13.883  18.165  0.00  0.00    +0.000 A 
ATOM     24  N   UNL     1      10.439  14.485  19.323  0.00  0.00    +0.000 NA
ATOM     25  C   UNL     1      11.017  15.713  19.146  0.00  0.00    +0.000 A 
ATOM     26  C   UNL     1      11.138  16.816  19.999  0.00  0.00    +0.000 A 
ATOM     27  C   UNL     1      11.806  17.934  19.495  0.00  0.00    +0.000 A 
ATOM     28  C   UNL     1      12.309  17.901  18.193  0.00  0.00    +0.000 A 
ATOM     29  N   UNL     1      12.211  16.859  17.335  0.00  0.00    +0.000 NA
ATOM     30  C   UNL     1      11.560  15.812  17.873  0.00  0.00    +0.000 A 
ATOM     31  O   UNL     1      11.322  14.631  17.238  0.00  0.00    +0.000 OA
ENDBRANCH  22  23
ENDBRANCH  21  22
ENDBRANCH  20  21
ENDBRANCH  19  20
ENDBRANCH  18  19
ENDBRANCH  17  18
ENDBRANCH   2  17
TORSDOF 10
ENDMDL
MODEL 3
REMARK VINA RESULT:      -7.1      4.758      8.492
REMARK  Name = 
REMARK  14 active torsions:
REMARK  status: ('A' for Active; 'I' for Inactive)
REMARK    1  A    between atoms: C_1  and  C_2
REMARK    2  A    between atoms: C_2  and  C_3
REMARK    3  A    between atoms: C_2  and  C_4
REMARK    4  A    between atoms: C_8  and  C_9
REMARK    5  A    between atoms: C_9  and  C_10
REMARK    6  A    between atoms: C_9  and  C_11
REMARK    7  A    between atoms: C_12  and  N_13
REMARK    8  A    between atoms: C_14  and  C_16
REMARK    9  A    between atoms: C_16  and  C_17
REMARK   10  A    between atoms: C_17  and  C_18
REMARK   11  A    between atoms: C_18  and  C_19
REMARK   12  A    between atoms: C_19  and  C_20
REMARK   13  A    between atoms: C_20  and  S_21
REMARK   14  A    between atoms: S_21  and  C_22
REMARK                            x       y       z     vdW  Elec       q    Type
REMARK                         _______ _______ _______ _____ _____    ______ ____
ROOT
ATOM      1  N   UNL     1       0.725  10.505  18.190  0.00  0.00    +0.000 N 
ATOM      2  C   UNL     1       1.236   9.419  18.886  0.00  0.00    +0.000 C 
ATOM      3  O   UNL     1       1.006   9.146  20.059  0.00  0.00    +0.000 OA
ATOM      4  H   UNL     1       1.270  10.810  17.400  0.00  0.00    +0.000 HD
ENDROOT
BRANCH   1  10
ATOM      5  C   UNL     1       0.276  12.580  19.425  0.00  0.00    +0.000 A 
ATOM      6  C   UNL     1      -0.665  13.446  20.018  0.00  0.00    +0.000 A 
ATOM      7  C   UNL     1      -2.029  13.209  19.912  0.00  0.00    +0.000 A 
ATOM      8  C   UNL     1      -2.481  12.090  19.225  0.00  0.00    +0.000 A 
ATOM      9  C   UNL     1      -1.591  11.166  18.631  0.00  0.00    +0.000 A 
ATOM     10  C   UNL     1      -0.197  11.435  18.721  0.00  0.00    +0.000 A 
BRANCH   5  12
ATOM     11  C   UNL     1       2.305  13.588  18.325  0.00  0.00    +0.000 C 
ATOM     12  C   UNL     1       1.757  12.926  19.597  0.00  0.00    +0.000 C 
ATOM     13  C   UNL     1       2.042  13.805  20.821  0.00  0.00    +0.000 C 
ENDBRANCH   5  12
BRANCH   9  14
ATOM     14  C   UNL     1      -2.279  10.059  17.822  0.00  0.00    +0.000 C 
ATOM     15  C   UNL     1      -3.797  10.086  18.047  0.00  0.00    +0.000 C 
ATOM     16  C   UNL     1      -1.968   9.940  16.331  0.00  0.00    +0.000 C 
ENDBRANCH   9  14
ENDBRANCH   1  10
BRANCH   2  17
ATOM     17  C   UNL     1       2.162   8.586  18.014  0.00  0.00    +0.000 C 
BRANCH  17  18
ATOM     18  C   UNL     1       1.840   7.091  18.074  0.00  0.00    +0.000 C 
BRANCH  18  19
ATOM     19  C   UNL     1       2.412   6.389  19.313  0.00  0.00    +0.000 C 
BRANCH  19  20
ATOM     20  C   UNL     1       2.052   4.903  19.366  0.00  0.00    +0.000 C 
BRANCH  20  21
ATOM     21  C   UNL     1       1.838   4.312  17.975  0.00  0.00    +0.000 C 
BRANCH  21  22
ATOM     22  S   UNL     1       3.210   3.173  17.614  0.00  0.00    +0.000 S 
BRANCH  22  23
ATOM     23  C   UNL     1       4.575   4.234  17.819  0.00  0.00    +0.000 A 
ATOM     24  N   UNL     1       4.814   5.277  17.043  0.00  0.00    +0.000 NA
ATOM     25  C   UNL     1       5.954   5.812  17.579  0.00  0.00    +0.000 A 
ATOM     26  C   UNL     1       6.718   6.927  17.218  0.00  0.00    +0.000 A 
ATOM     27  C   UNL     1       7.843   7.201  17.999  0.00  0.00    +0.000 A 
ATOM     28  C   UNL     1       8.148   6.368  19.076  0.00  0.00    +0.000 A 
ATOM     29  N   UNL     1       7.440   5.279  19.458  0.00  0.00    +0.000 NA
ATOM     30  C   UNL     1       6.369   5.064  18.672  0.00  0.00    +0.000 A 
ATOM     31  O   UNL     1       5.479   4.045  18.828  0.00  0.00    +0.000 OA
ENDBRANCH  22  23
ENDBRANCH  21  22
ENDBRANCH  20  21
ENDBRANCH  19  20
ENDBRANCH  18  19
ENDBRANCH  17  18
ENDBRANCH   2  17
TORSDOF 10
ENDMDL
MODEL 4
REMARK VINA RESULT:      -7.1      2.186      4.227
REMARK  Name = 
REMARK  14 active torsions:
REMARK  status: ('A' for Active; 'I' for Inactive)
REMARK    1  A    between atoms: C_1  and  C_2
REMARK    2  A    between atoms: C_2  and  C_3
REMARK    3  A    between atoms: C_2  and  C_4
REMARK    4  A    between atoms: C_8  and  C_9
REMARK    5  A    between atoms: C_9  and  C_10
REMARK    6  A    between atoms: C_9  and  C_11
REMARK    7  A    between atoms: C_12  and  N_13
REMARK    8  A    between atoms: C_14  and  C_16
REMARK    9  A    between atoms: C_16  and  C_17
REMARK   10  A    between atoms: C_17  and  C_18
REMARK   11  A    between atoms: C_18  and  C_19
REMARK   12  A    between atoms: C_19  and  C_20
REMARK   13  A    between atoms: C_20  and  S_21
REMARK   14  A    between atoms: S_21  and  C_22
REMARK                            x       y       z     vdW  Elec       q    Type
REMARK                         _______ _______ _______ _____ _____    ______ ____
ROOT
ATOM      1  N   UNL     1       5.402   6.669  17.013  0.00  0.00    +0.000 N 
ATOM      2  C   UNL     1       6.536   6.766  17.806  0.00  0.00    +0.000 C 
ATOM      3  O   UNL     1       6.786   6.077  18.788  0.00  0.00    +0.000 OA
ATOM      4  H   UNL     1       5.153   7.502  16.506  0.00  0.00    +0.000 HD
ENDROOT
BRANCH   1  10
ATOM      5  C   UNL     1       3.234   6.022  17.970  0.00  0.00    +0.000 A 
ATOM      6  C   UNL     1       2.274   5.016  18.199  0.00  0.00    +0.000 A 
ATOM      7  C   UNL     1       2.423   3.743  17.665  0.00  0.00    +0.000 A 
ATOM      8  C   UNL     1       3.546   3.443  16.905  0.00  0.00    +0.000 A 
ATOM      9  C   UNL     1       4.560   4.397  16.661  0.00  0.00    +0.000 A 
ATOM     10  C   UNL     1       4.383   5.706  17.187  0.00  0.00    +0.000 A 
BRANCH   5  12
ATOM     11  C   UNL     1       2.285   8.325  17.598  0.00  0.00    +0.000 C 
ATOM     12  C   UNL     1       2.981   7.394  18.600  0.00  0.00    +0.000 C 
ATOM     13  C   UNL     1       2.185   7.328  19.909  0.00  0.00    +0.000 C 
ENDBRANCH   5  12
BRANCH   9  14
ATOM     14  C   UNL     1       5.661   3.914  15.708  0.00  0.00    +0.000 C 
ATOM     15  C   UNL     1       5.435   4.463  14.293  0.00  0.00    +0.000 C 
ATOM     16  C   UNL     1       7.121   4.102  16.120  0.00  0.00    +0.000 C 
ENDBRANCH   9  14
ENDBRANCH   1  10
BRANCH   2  17
ATOM     17  C   UNL     1       7.459   7.873  17.321  0.00  0.00    +0.000 C 
BRANCH  17  18
ATOM     18  C   UNL     1       8.421   8.355  18.409  0.00  0.00    +0.000 C 
BRANCH  18  19
ATOM     19  C   UNL     1       8.635   9.875  18.410  0.00  0.00    +0.000 C 
BRANCH  19  20
ATOM     20  C   UNL     1       9.395  10.361  19.646  0.00  0.00    +0.000 C 
BRANCH  20  21
ATOM     21  C   UNL     1      10.438  11.420  19.301  0.00  0.00    +0.000 C 
BRANCH  21  22
ATOM     22  S   UNL     1       9.887  12.311  17.813  0.00  0.00    +0.000 S 
BRANCH  22  23
ATOM     23  C   UNL     1       9.154  13.718  18.530  0.00  0.00    +0.000 A 
ATOM     24  N   UNL     1       8.963  14.854  17.883  0.00  0.00    +0.000 NA
ATOM     25  C   UNL     1       8.355  15.649  18.816  0.00  0.00    +0.000 A 
ATOM     26  C   UNL     1       7.893  16.968  18.757  0.00  0.00    +0.000 A 
ATOM     27  C   UNL     1       7.304  17.484  19.914  0.00  0.00    +0.000 A 
ATOM     28  C   UNL     1       7.207  16.679  21.049  0.00  0.00    +0.000 A 
ATOM     29  N   UNL     1       7.643  15.401  21.151  0.00  0.00    +0.000 NA
ATOM     30  C   UNL     1       8.199  14.957  20.010  0.00  0.00    +0.000 A 
ATOM     31  O   UNL     1       8.715  13.710  19.827  0.00  0.00    +0.000 OA
ENDBRANCH  22  23
ENDBRANCH  21  22
ENDBRANCH  20  21
ENDBRANCH  19  20
ENDBRANCH  18  19
ENDBRANCH  17  18
ENDBRANCH   2  17
TORSDOF 10
ENDMDL
MODEL 5
REMARK VINA RESULT:      -7.0      0.969      3.269
REMARK  Name = 
REMARK  14 active torsions:
REMARK  status: ('A' for Active; 'I' for Inactive)
REMARK    1  A    between atoms: C_1  and  C_2
REMARK    2  A    between atoms: C_2  and  C_3
REMARK    3  A    between atoms: C_2  and  C_4
REMARK    4  A    between atoms: C_8  and  C_9
REMARK    5  A    between atoms: C_9  and  C_10
REMARK    6  A    between atoms: C_9  and  C_11
REMARK    7  A    between atoms: C_12  and  N_13
REMARK    8  A    between atoms: C_14  and  C_16
REMARK    9  A    between atoms: C_16  and  C_17
REMARK   10  A    between atoms: C_17  and  C_18
REMARK   11  A    between atoms: C_18  and  C_19
REMARK   12  A    between atoms: C_19  and  C_20
REMARK   13  A    between atoms: C_20  and  S_21
REMARK   14  A    between atoms: S_21  and  C_22
REMARK                            x       y       z     vdW  Elec       q    Type
REMARK                         _______ _______ _______ _____ _____    ______ ____
ROOT
ATOM      1  N   UNL     1       4.544   5.903  18.800  0.00  0.00    +0.000 N 
ATOM      2  C   UNL     1       4.866   5.845  17.451  0.00  0.00    +0.000 C 
ATOM      3  O   UNL     1       4.214   5.279  16.581  0.00  0.00    +0.000 OA
ATOM      4  H   UNL     1       5.318   6.054  19.425  0.00  0.00    +0.000 HD
ENDROOT
BRANCH   1  10
ATOM      5  C   UNL     1       2.309   6.227  19.765  0.00  0.00    +0.000 A 
ATOM      6  C   UNL     1       1.184   5.669  20.405  0.00  0.00    +0.000 A 
ATOM      7  C   UNL     1       1.089   4.303  20.634  0.00  0.00    +0.000 A 
ATOM      8  C   UNL     1       2.127   3.467  20.243  0.00  0.00    +0.000 A 
ATOM      9  C   UNL     1       3.295   3.964  19.622  0.00  0.00    +0.000 A 
ATOM     10  C   UNL     1       3.369   5.362  19.366  0.00  0.00    +0.000 A 
BRANCH   5  12
ATOM     11  C   UNL     1       1.978   8.090  18.103  0.00  0.00    +0.000 C 
ATOM     12  C   UNL     1       2.321   7.744  19.558  0.00  0.00    +0.000 C 
ATOM     13  C   UNL     1       1.396   8.500  20.519  0.00  0.00    +0.000 C 
ENDBRANCH   5  12
BRANCH   9  14
ATOM     14  C   UNL     1       4.274   2.877  19.162  0.00  0.00    +0.000 C 
ATOM     15  C   UNL     1       4.707   2.000  20.345  0.00  0.00    +0.000 C 
ATOM     16  C   UNL     1       3.892   2.003  17.969  0.00  0.00    +0.000 C 
ENDBRANCH   9  14
ENDBRANCH   1  10
BRANCH   2  17
ATOM     17  C   UNL     1       6.172   6.567  17.161  0.00  0.00    +0.000 C 
BRANCH  17  18
ATOM     18  C   UNL     1       7.284   6.190  18.143  0.00  0.00    +0.000 C 
BRANCH  18  19
ATOM     19  C   UNL     1       8.218   7.356  18.490  0.00  0.00    +0.000 C 
BRANCH  19  20
ATOM     20  C   UNL     1       7.707   8.698  17.964  0.00  0.00    +0.000 C 
BRANCH  20  21
ATOM     21  C   UNL     1       8.843   9.677  17.681  0.00  0.00    +0.000 C 
BRANCH  21  22
ATOM     22  S   UNL     1       9.274  10.527  19.231  0.00  0.00    +0.000 S 
BRANCH  22  23
ATOM     23  C   UNL     1       9.607  12.129  18.640  0.00  0.00    +0.000 A 
ATOM     24  N   UNL     1      10.653  12.430  17.891  0.00  0.00    +0.000 NA
ATOM     25  C   UNL     1      10.497  13.769  17.656  0.00  0.00    +0.000 A 
ATOM     26  C   UNL     1      11.266  14.683  16.928  0.00  0.00    +0.000 A 
ATOM     27  C   UNL     1      10.809  16.002  16.886  0.00  0.00    +0.000 A 
ATOM     28  C   UNL     1       9.634  16.341  17.558  0.00  0.00    +0.000 A 
ATOM     29  N   UNL     1       8.861  15.491  18.276  0.00  0.00    +0.000 NA
ATOM     30  C   UNL     1       9.349  14.237  18.280  0.00  0.00    +0.000 A 
ATOM     31  O   UNL     1       8.773  13.179  18.917  0.00  0.00    +0.000 OA
ENDBRANCH  22  23
ENDBRANCH  21  22
ENDBRANCH  20  21
ENDBRANCH  19  20
ENDBRANCH  18  19
ENDBRANCH  17  18
ENDBRANCH   2  17
TORSDOF 10
ENDMDL
MODEL 6
REMARK VINA RESULT:      -7.0      2.146      2.571
REMARK  Name = 
REMARK  14 active torsions:
REMARK  status: ('A' for Active; 'I' for Inactive)
REMARK    1  A    between atoms: C_1  and  C_2
REMARK    2  A    between atoms: C_2  and  C_3
REMARK    3  A    between atoms: C_2  and  C_4
REMARK    4  A    between atoms: C_8  and  C_9
REMARK    5  A    between atoms: C_9  and  C_10
REMARK    6  A    between atoms: C_9  and  C_11
REMARK    7  A    between atoms: C_12  and  N_13
REMARK    8  A    between atoms: C_14  and  C_16
REMARK    9  A    between atoms: C_16  and  C_17
REMARK   10  A    between atoms: C_17  and  C_18
REMARK   11  A    between atoms: C_18  and  C_19
REMARK   12  A    between atoms: C_19  and  C_20
REMARK   13  A    between atoms: C_20  and  S_21
REMARK   14  A    between atoms: S_21  and  C_22
REMARK                            x       y       z     vdW  Elec       q    Type
REMARK                         _______ _______ _______ _____ _____    ______ ____
ROOT
ATOM      1  N   UNL     1       4.678   5.194  19.149  0.00  0.00    +0.000 N 
ATOM      2  C   UNL     1       5.032   5.420  17.826  0.00  0.00    +0.000 C 
ATOM      3  O   UNL     1       4.327   5.205  16.848  0.00  0.00    +0.000 OA
ATOM      4  H   UNL     1       5.445   5.054  19.786  0.00  0.00    +0.000 HD
ENDROOT
BRANCH   1  10
ATOM      5  C   UNL     1       3.171   3.334  19.696  0.00  0.00    +0.000 A 
ATOM      6  C   UNL     1       1.874   2.898  20.036  0.00  0.00    +0.000 A 
ATOM      7  C   UNL     1       0.847   3.803  20.262  0.00  0.00    +0.000 A 
ATOM      8  C   UNL     1       1.089   5.165  20.137  0.00  0.00    +0.000 A 
ATOM      9  C   UNL     1       2.358   5.667  19.772  0.00  0.00    +0.000 A 
ATOM     10  C   UNL     1       3.412   4.733  19.571  0.00  0.00    +0.000 A 
BRANCH   5  12
ATOM     11  C   UNL     1       4.707   1.674  20.804  0.00  0.00    +0.000 C 
ATOM     12  C   UNL     1       4.238   2.260  19.466  0.00  0.00    +0.000 C 
ATOM     13  C   UNL     1       3.783   1.138  18.524  0.00  0.00    +0.000 C 
ENDBRANCH   5  12
BRANCH   9  14
ATOM     14  C   UNL     1       2.459   7.198  19.795  0.00  0.00    +0.000 C 
ATOM     15  C   UNL     1       2.331   7.773  18.378  0.00  0.00    +0.000 C 
ATOM     16  C   UNL     1       1.569   7.977  20.763  0.00  0.00    +0.000 C 
ENDBRANCH   9  14
ENDBRANCH   1  10
BRANCH   2  17
ATOM     17  C   UNL     1       6.448   5.964  17.716  0.00  0.00    +0.000 C 
BRANCH  17  18
ATOM     18  C   UNL     1       6.484   7.484  17.552  0.00  0.00    +0.000 C 
BRANCH  18  19
ATOM     19  C   UNL     1       7.892   8.043  17.306  0.00  0.00    +0.000 C 
BRANCH  19  20
ATOM     20  C   UNL     1       8.400   8.893  18.472  0.00  0.00    +0.000 C 
BRANCH  20  21
ATOM     21  C   UNL     1       8.462  10.376  18.120  0.00  0.00    +0.000 C 
BRANCH  21  22
ATOM     22  S   UNL     1      10.024  11.057  18.755  0.00  0.00    +0.000 S 
BRANCH  22  23
ATOM     23  C   UNL     1       9.505  11.679  20.295  0.00  0.00    +0.000 A 
ATOM     24  N   UNL     1       9.621  12.948  20.650  0.00  0.00    +0.000 NA
ATOM     25  C   UNL     1       9.075  12.974  21.904  0.00  0.00    +0.000 A 
ATOM     26  C   UNL     1       8.894  14.018  22.819  0.00  0.00    +0.000 A 
ATOM     27  C   UNL     1       8.285  13.694  24.034  0.00  0.00    +0.000 A 
ATOM     28  C   UNL     1       7.896  12.376  24.274  0.00  0.00    +0.000 A 
ATOM     29  N   UNL     1       8.054  11.337  23.421  0.00  0.00    +0.000 NA
ATOM     30  C   UNL     1       8.644  11.707  22.269  0.00  0.00    +0.000 A 
ATOM     31  O   UNL     1       8.921  10.869  21.232  0.00  0.00    +0.000 OA
ENDBRANCH  22  23
ENDBRANCH  21  22
ENDBRANCH  20  21
ENDBRANCH  19  20
ENDBRANCH  18  19
ENDBRANCH  17  18
ENDBRANCH   2  17
TORSDOF 10
ENDMDL
MODEL 7
REMARK VINA RESULT:      -7.0      5.425      8.583
REMARK  Name = 
REMARK  14 active torsions:
REMARK  status: ('A' for Active; 'I' for Inactive)
REMARK    1  A    between atoms: C_1  and  C_2
REMARK    2  A    between atoms: C_2  and  C_3
REMARK    3  A    between atoms: C_2  and  C_4
REMARK    4  A    between atoms: C_8  and  C_9
REMARK    5  A    between atoms: C_9  and  C_10
REMARK    6  A    between atoms: C_9  and  C_11
REMARK    7  A    between atoms: C_12  and  N_13
REMARK    8  A    between atoms: C_14  and  C_16
REMARK    9  A    between atoms: C_16  and  C_17
REMARK   10  A    between atoms: C_17  and  C_18
REMARK   11  A    between atoms: C_18  and  C_19
REMARK   12  A    between atoms: C_19  and  C_20
REMARK   13  A    between atoms: C_20  and  S_21
REMARK   14  A    between atoms: S_21  and  C_22
REMARK                            x       y       z     vdW  Elec       q    Type
REMARK                         _______ _______ _______ _____ _____    ______ ____
ROOT
ATOM      1  N   UNL     1       2.898   6.367  19.302  0.00  0.00    +0.000 N 
ATOM      2  C   UNL     1       2.182   7.389  18.697  0.00  0.00    +0.000 C 
ATOM      3  O   UNL     1       1.882   7.451  17.510  0.00  0.00    +0.000 OA
ATOM      4  H   UNL     1       3.382   6.617  20.149  0.00  0.00    +0.000 HD
ENDROOT
BRANCH   1  10
ATOM      5  C   UNL     1       2.702   3.951  18.902  0.00  0.00    +0.000 A 
ATOM      6  C   UNL     1       3.218   2.788  18.295  0.00  0.00    +0.000 A 
ATOM      7  C   UNL     1       4.315   2.845  17.446  0.00  0.00    +0.000 A 
ATOM      8  C   UNL     1       4.931   4.064  17.198  0.00  0.00    +0.000 A 
ATOM      9  C   UNL     1       4.482   5.264  17.796  0.00  0.00    +0.000 A 
ATOM     10  C   UNL     1       3.340   5.199  18.642  0.00  0.00    +0.000 A 
BRANCH   5  12
ATOM     11  C   UNL     1       0.569   2.675  19.305  0.00  0.00    +0.000 C 
ATOM     12  C   UNL     1       1.491   3.787  19.823  0.00  0.00    +0.000 C 
ATOM     13  C   UNL     1       1.866   3.530  21.288  0.00  0.00    +0.000 C 
ENDBRANCH   5  12
BRANCH   9  14
ATOM     14  C   UNL     1       5.217   6.521  17.313  0.00  0.00    +0.000 C 
ATOM     15  C   UNL     1       6.709   6.446  17.662  0.00  0.00    +0.000 C 
ATOM     16  C   UNL     1       5.036   6.964  15.862  0.00  0.00    +0.000 C 
ENDBRANCH   9  14
ENDBRANCH   1  10
BRANCH   2  17
ATOM     17  C   UNL     1       1.814   8.476  19.695  0.00  0.00    +0.000 C 
BRANCH  17  18
ATOM     18  C   UNL     1       1.590   7.927  21.106  0.00  0.00    +0.000 C 
BRANCH  18  19
ATOM     19  C   UNL     1       1.162   8.997  22.120  0.00  0.00    +0.000 C 
BRANCH  19  20
ATOM     20  C   UNL     1       0.029   9.882  21.600  0.00  0.00    +0.000 C 
BRANCH  20  21
ATOM     21  C   UNL     1       0.512  11.283  21.237  0.00  0.00    +0.000 C 
BRANCH  21  22
ATOM     22  S   UNL     1      -0.920  12.405  21.227  0.00  0.00    +0.000 S 
BRANCH  22  23
ATOM     23  C   UNL     1      -1.737  11.876  19.785  0.00  0.00    +0.000 A 
ATOM     24  N   UNL     1      -2.972  12.229  19.472  0.00  0.00    +0.000 NA
ATOM     25  C   UNL     1      -3.181  11.606  18.271  0.00  0.00    +0.000 A 
ATOM     26  C   UNL     1      -4.288  11.582  17.415  0.00  0.00    +0.000 A 
ATOM     27  C   UNL     1      -4.163  10.836  16.241  0.00  0.00    +0.000 A 
ATOM     28  C   UNL     1      -2.969  10.161  15.984  0.00  0.00    +0.000 A 
ATOM     29  N   UNL     1      -1.877  10.154  16.784  0.00  0.00    +0.000 NA
ATOM     30  C   UNL     1      -2.054  10.889  17.897  0.00  0.00    +0.000 A 
ATOM     31  O   UNL     1      -1.120  11.062  18.873  0.00  0.00    +0.000 OA
ENDBRANCH  22  23
ENDBRANCH  21  22
ENDBRANCH  20  21
ENDBRANCH  19  20
ENDBRANCH  18  19
ENDBRANCH  17  18
ENDBRANCH   2  17
TORSDOF 10
ENDMDL
MODEL 8
REMARK VINA RESULT:      -7.0      5.377      8.703
REMARK  Name = 
REMARK  14 active torsions:
REMARK  status: ('A' for Active; 'I' for Inactive)
REMARK    1  A    between atoms: C_1  and  C_2
REMARK    2  A    between atoms: C_2  and  C_3
REMARK    3  A    between atoms: C_2  and  C_4
REMARK    4  A    between atoms: C_8  and  C_9
REMARK    5  A    between atoms: C_9  and  C_10
REMARK    6  A    between atoms: C_9  and  C_11
REMARK    7  A    between atoms: C_12  and  N_13
REMARK    8  A    between atoms: C_14  and  C_16
REMARK    9  A    between atoms: C_16  and  C_17
REMARK   10  A    between atoms: C_17  and  C_18
REMARK   11  A    between atoms: C_18  and  C_19
REMARK   12  A    between atoms: C_19  and  C_20
REMARK   13  A    between atoms: C_20  and  S_21
REMARK   14  A    between atoms: S_21  and  C_22
REMARK                            x       y       z     vdW  Elec       q    Type
REMARK                         _______ _______ _______ _____ _____    ______ ____
ROOT
ATOM      1  N   UNL     1       2.821   6.416  17.741  0.00  0.00    +0.000 N 
ATOM      2  C   UNL     1       2.334   7.489  18.473  0.00  0.00    +0.000 C 
ATOM      3  O   UNL     1       2.439   7.638  19.685  0.00  0.00    +0.000 OA
ATOM      4  H   UNL     1       2.354   6.238  16.867  0.00  0.00    +0.000 HD
ENDROOT
BRANCH   1  10
ATOM      5  C   UNL     1       4.994   5.348  18.157  0.00  0.00    +0.000 A 
ATOM      6  C   UNL     1       5.713   4.234  18.633  0.00  0.00    +0.000 A 
ATOM      7  C   UNL     1       5.066   3.161  19.232  0.00  0.00    +0.000 A 
ATOM      8  C   UNL     1       3.683   3.172  19.351  0.00  0.00    +0.000 A 
ATOM      9  C   UNL     1       2.899   4.245  18.870  0.00  0.00    +0.000 A 
ATOM     10  C   UNL     1       3.574   5.352  18.285  0.00  0.00    +0.000 A 
BRANCH   5  12
ATOM     11  C   UNL     1       7.250   6.456  18.001  0.00  0.00    +0.000 C 
ATOM     12  C   UNL     1       5.796   6.481  17.512  0.00  0.00    +0.000 C 
ATOM     13  C   UNL     1       5.749   6.469  15.979  0.00  0.00    +0.000 C 
ENDBRANCH   5  12
BRANCH   9  14
ATOM     14  C   UNL     1       1.404   4.128  19.195  0.00  0.00    +0.000 C 
ATOM     15  C   UNL     1       0.831   2.812  18.651  0.00  0.00    +0.000 C 
ATOM     16  C   UNL     1       0.949   4.345  20.637  0.00  0.00    +0.000 C 
ENDBRANCH   9  14
ENDBRANCH   1  10
BRANCH   2  17
ATOM     17  C   UNL     1       1.611   8.487  17.581  0.00  0.00    +0.000 C 
BRANCH  17  18
ATOM     18  C   UNL     1       1.487   9.869  18.225  0.00  0.00    +0.000 C 
BRANCH  18  19
ATOM     19  C   UNL     1       0.089  10.164  18.784  0.00  0.00    +0.000 C 
BRANCH  19  20
ATOM     20  C   UNL     1       0.111  10.505  20.275  0.00  0.00    +0.000 C 
BRANCH  20  21
ATOM     21  C   UNL     1      -0.321   9.325  21.142  0.00  0.00    +0.000 C 
BRANCH  21  22
ATOM     22  S   UNL     1       0.012   9.735  22.883  0.00  0.00    +0.000 S 
BRANCH  22  23
ATOM     23  C   UNL     1      -1.059  11.089  23.108  0.00  0.00    +0.000 A 
ATOM     24  N   UNL     1      -0.669  12.350  23.039  0.00  0.00    +0.000 NA
ATOM     25  C   UNL     1      -1.825  13.048  23.256  0.00  0.00    +0.000 A 
ATOM     26  C   UNL     1      -2.088  14.422  23.307  0.00  0.00    +0.000 A 
ATOM     27  C   UNL     1      -3.409  14.804  23.549  0.00  0.00    +0.000 A 
ATOM     28  C   UNL     1      -4.384  13.821  23.727  0.00  0.00    +0.000 A 
ATOM     29  N   UNL     1      -4.174  12.484  23.690  0.00  0.00    +0.000 NA
ATOM     30  C   UNL     1      -2.886  12.175  23.453  0.00  0.00    +0.000 A 
ATOM     31  O   UNL     1      -2.392  10.909  23.358  0.00  0.00    +0.000 OA
ENDBRANCH  22  23
ENDBRANCH  21  22
ENDBRANCH  20  21
ENDBRANCH  19  20
ENDBRANCH  18  19
ENDBRANCH  17  18
ENDBRANCH   2  17
TORSDOF 10
ENDMDL
MODEL 9
REMARK VINA RESULT:      -6.9      1.632      3.635
REMARK  Name = 
REMARK  14 active torsions:
REMARK  status: ('A' for Active; 'I' for Inactive)
REMARK    1  A    between atoms: C_1  and  C_2
REMARK    2  A    between atoms: C_2  and  C_3
REMARK    3  A    between atoms: C_2  and  C_4
REMARK    4  A    between atoms: C_8  and  C_9
REMARK    5  A    between atoms: C_9  and  C_10
REMARK    6  A    between atoms: C_9  and  C_11
REMARK    7  A    between atoms: C_12  and  N_13
REMARK    8  A    between atoms: C_14  and  C_16
REMARK    9  A    between atoms: C_16  and  C_17
REMARK   10  A    between atoms: C_17  and  C_18
REMARK   11  A    between atoms: C_18  and  C_19
REMARK   12  A    between atoms: C_19  and  C_20
REMARK   13  A    between atoms: C_20  and  S_21
REMARK   14  A    between atoms: S_21  and  C_22
REMARK                            x       y       z     vdW  Elec       q    Type
REMARK                         _______ _______ _______ _____ _____    ______ ____
ROOT
ATOM      1  N   UNL     1       4.719   5.307  18.793  0.00  0.00    +0.000 N 
ATOM      2  C   UNL     1       5.023   5.161  17.447  0.00  0.00    +0.000 C 
ATOM      3  O   UNL     1       4.326   4.598  16.611  0.00  0.00    +0.000 OA
ATOM      4  H   UNL     1       5.507   5.437  19.405  0.00  0.00    +0.000 HD
ENDROOT
BRANCH   1  10
ATOM      5  C   UNL     1       2.507   5.824  19.726  0.00  0.00    +0.000 A 
ATOM      6  C   UNL     1       1.353   5.378  20.402  0.00  0.00    +0.000 A 
ATOM      7  C   UNL     1       1.183   4.039  20.728  0.00  0.00    +0.000 A 
ATOM      8  C   UNL     1       2.171   3.120  20.402  0.00  0.00    +0.000 A 
ATOM      9  C   UNL     1       3.364   3.506  19.750  0.00  0.00    +0.000 A 
ATOM     10  C   UNL     1       3.516   4.874  19.394  0.00  0.00    +0.000 A 
BRANCH   5  12
ATOM     11  C   UNL     1       2.317   7.573  17.924  0.00  0.00    +0.000 C 
ATOM     12  C   UNL     1       2.603   7.319  19.410  0.00  0.00    +0.000 C 
ATOM     13  C   UNL     1       1.692   8.189  20.284  0.00  0.00    +0.000 C 
ENDBRANCH   5  12
BRANCH   9  14
ATOM     14  C   UNL     1       4.282   2.335  19.373  0.00  0.00    +0.000 C 
ATOM     15  C   UNL     1       4.825   1.643  20.630  0.00  0.00    +0.000 C 
ATOM     16  C   UNL     1       3.771   1.295  18.377  0.00  0.00    +0.000 C 
ENDBRANCH   9  14
ENDBRANCH   1  10
BRANCH   2  17
ATOM     17  C   UNL     1       6.371   5.779  17.113  0.00  0.00    +0.000 C 
BRANCH  17  18
ATOM     18  C   UNL     1       6.441   7.266  17.466  0.00  0.00    +0.000 C 
BRANCH  18  19
ATOM     19  C   UNL     1       7.840   7.731  17.892  0.00  0.00    +0.000 C 
BRANCH  19  20
ATOM     20  C   UNL     1       8.011   9.249  17.796  0.00  0.00    +0.000 C 
BRANCH  20  21
ATOM     21  C   UNL     1       8.987   9.785  18.839  0.00  0.00    +0.000 C 
BRANCH  21  22
ATOM     22  S   UNL     1       9.881  11.198  18.121  0.00  0.00    +0.000 S 
BRANCH  22  23
ATOM     23  C   UNL     1       9.391  12.473  19.198  0.00  0.00    +0.000 A 
ATOM     24  N   UNL     1       8.539  13.427  18.864  0.00  0.00    +0.000 NA
ATOM     25  C   UNL     1       8.442  14.176  20.005  0.00  0.00    +0.000 A 
ATOM     26  C   UNL     1       7.700  15.323  20.305  0.00  0.00    +0.000 A 
ATOM     27  C   UNL     1       7.831  15.841  21.596  0.00  0.00    +0.000 A 
ATOM     28  C   UNL     1       8.679  15.206  22.505  0.00  0.00    +0.000 A 
ATOM     29  N   UNL     1       9.416  14.098  22.256  0.00  0.00    +0.000 NA
ATOM     30  C   UNL     1       9.250  13.644  21.000  0.00  0.00    +0.000 A 
ATOM     31  O   UNL     1       9.864  12.545  20.481  0.00  0.00    +0.000 OA
ENDBRANCH  22  23
ENDBRANCH  21  22
ENDBRANCH  20  21
ENDBRANCH  19  20
ENDBRANCH  18  19
ENDBRANCH  17  18
ENDBRANCH   2  17
TORSDOF 10
ENDMDL
