MODEL 1
REMARK VINA RESULT:      -7.7      0.000      0.000
REMARK  Name = 
REMARK  10 active torsions:
REMARK  status: ('A' for Active; 'I' for Inactive)
REMARK    1  A    between atoms: C_1  and  C_2
REMARK    2  A    between atoms: C_2  and  O_4
REMARK    3  A    between atoms: O_4  and  C_5
REMARK    4  A    between atoms: C_8  and  C_9
REMARK    5  A    between atoms: C_10  and  C_11
REMARK    6  A    between atoms: C_11  and  O_13
REMARK    7  A    between atoms: C_15  and  C_16
REMARK    8  A    between atoms: C_16  and  C_17
REMARK    9  A    between atoms: C_18  and  C_19
REMARK   10  A    between atoms: C_18  and  C_20
REMARK                            x       y       z     vdW  Elec       q    Type
REMARK                         _______ _______ _______ _____ _____    ______ ____
ROOT
ATOM      1  C   UNL     1       5.832   6.493  17.045  0.00  0.00    +0.000 A 
ATOM      2  C   UNL     1       4.850   7.032  17.891  0.00  0.00    +0.000 A 
ATOM      3  C   UNL     1       3.683   6.323  18.157  0.00  0.00    +0.000 A 
ATOM      4  C   UNL     1       3.476   5.079  17.566  0.00  0.00    +0.000 A 
ATOM      5  C   UNL     1       4.445   4.548  16.702  0.00  0.00    +0.000 A 
ATOM      6  C   UNL     1       5.635   5.253  16.415  0.00  0.00    +0.000 A 
ENDROOT
BRANCH   4   7
ATOM      7  C   UNL     1       2.231   4.362  17.845  0.00  0.00    +0.000 C 
ATOM      8  C   UNL     1       2.093   3.580  18.925  0.00  0.00    +0.000 C 
BRANCH   8   9
ATOM      9  C   UNL     1       0.839   2.816  19.096  0.00  0.00    +0.000 C 
ATOM     10  O   UNL     1       0.371   2.056  18.266  0.00  0.00    +0.000 OA
BRANCH   9  11
ATOM     11  O   UNL     1       0.267   3.037  20.296  0.00  0.00    +0.000 OA
ATOM     12  H   UNL     1      -0.666   2.769  20.371  0.00  0.00    +0.000 HD
ENDBRANCH   9  11
ENDBRANCH   8   9
ENDBRANCH   4   7
BRANCH   1  13
ATOM     13  O   UNL     1       6.947   7.286  16.705  0.00  0.00    +0.000 OA
BRANCH  13  15
ATOM     14  C   UNL     1       7.977   9.164  17.719  0.00  0.00    +0.000 C 
ATOM     15  C   UNL     1       7.778   7.678  17.754  0.00  0.00    +0.000 C 
ATOM     16  O   UNL     1       8.265   6.951  18.609  0.00  0.00    +0.000 OA
ENDBRANCH  13  15
ENDBRANCH   1  13
BRANCH   6  17
ATOM     17  C   UNL     1       6.622   4.650  15.436  0.00  0.00    +0.000 C 
BRANCH  17  18
ATOM     18  C   UNL     1       5.987   3.873  14.310  0.00  0.00    +0.000 C 
ATOM     19  C   UNL     1       6.394   3.880  13.023  0.00  0.00    +0.000 C 
ATOM     20  C   UNL     1       7.508   4.737  12.484  0.00  0.00    +0.000 C 
ATOM     21  C   UNL     1       5.746   2.996  11.987  0.00  0.00    +0.000 C 
ENDBRANCH  17  18
ENDBRANCH   6  17
TORSDOF 7
ENDMDL
MODEL 2
REMARK VINA RESULT:      -7.5      1.148      1.275
REMARK  Name = 
REMARK  10 active torsions:
REMARK  status: ('A' for Active; 'I' for Inactive)
REMARK    1  A    between atoms: C_1  and  C_2
REMARK    2  A    between atoms: C_2  and  O_4
REMARK    3  A    between atoms: O_4  and  C_5
REMARK    4  A    between atoms: C_8  and  C_9
REMARK    5  A    between atoms: C_10  and  C_11
REMARK    6  A    between atoms: C_11  and  O_13
REMARK    7  A    between atoms: C_15  and  C_16
REMARK    8  A    between atoms: C_16  and  C_17
REMARK    9  A    between atoms: C_18  and  C_19
REMARK   10  A    between atoms: C_18  and  C_20
REMARK                            x       y       z     vdW  Elec       q    Type
REMARK                         _______ _______ _______ _____ _____    ______ ____
ROOT
ATOM      1  C   UNL     1       6.603   5.218  17.507  0.00  0.00    +0.000 A 
ATOM      2  C   UNL     1       6.049   5.122  18.793  0.00  0.00    +0.000 A 
ATOM      3  C   UNL     1       4.861   4.427  18.998  0.00  0.00    +0.000 A 
ATOM      4  C   UNL     1       4.205   3.839  17.920  0.00  0.00    +0.000 A 
ATOM      5  C   UNL     1       4.744   3.953  16.630  0.00  0.00    +0.000 A 
ATOM      6  C   UNL     1       5.946   4.658  16.399  0.00  0.00    +0.000 A 
ENDROOT
BRANCH   4   7
ATOM      7  C   UNL     1       2.946   3.131  18.158  0.00  0.00    +0.000 C 
ATOM      8  C   UNL     1       1.995   3.631  18.958  0.00  0.00    +0.000 C 
BRANCH   8   9
ATOM      9  C   UNL     1       0.787   2.821  19.224  0.00  0.00    +0.000 C 
ATOM     10  O   UNL     1       0.257   2.081  18.413  0.00  0.00    +0.000 OA
BRANCH   9  11
ATOM     11  O   UNL     1       0.337   2.975  20.484  0.00  0.00    +0.000 OA
ATOM     12  H   UNL     1       0.123   2.151  20.957  0.00  0.00    +0.000 HD
ENDBRANCH   9  11
ENDBRANCH   8   9
ENDBRANCH   4   7
BRANCH   1  13
ATOM     13  O   UNL     1       7.743   6.026  17.315  0.00  0.00    +0.000 OA
BRANCH  13  15
ATOM     14  C   UNL     1       8.454   7.933  18.529  0.00  0.00    +0.000 C 
ATOM     15  C   UNL     1       7.561   7.403  17.447  0.00  0.00    +0.000 C 
ATOM     16  O   UNL     1       6.817   8.107  16.779  0.00  0.00    +0.000 OA
ENDBRANCH  13  15
ENDBRANCH   1  13
BRANCH   6  17
ATOM     17  C   UNL     1       6.453   4.788  14.977  0.00  0.00    +0.000 C 
BRANCH  17  18
ATOM     18  C   UNL     1       5.780   3.869  13.988  0.00  0.00    +0.000 C 
ATOM     19  C   UNL     1       6.164   3.674  12.709  0.00  0.00    +0.000 C 
ATOM     20  C   UNL     1       7.289   4.411  12.033  0.00  0.00    +0.000 C 
ATOM     21  C   UNL     1       5.477   2.664  11.825  0.00  0.00    +0.000 C 
ENDBRANCH  17  18
ENDBRANCH   6  17
TORSDOF 7
ENDMDL
MODEL 3
REMARK VINA RESULT:      -7.5      3.174      5.728
REMARK  Name = 
REMARK  10 active torsions:
REMARK  status: ('A' for Active; 'I' for Inactive)
REMARK    1  A    between atoms: C_1  and  C_2
REMARK    2  A    between atoms: C_2  and  O_4
REMARK    3  A    between atoms: O_4  and  C_5
REMARK    4  A    between atoms: C_8  and  C_9
REMARK    5  A    between atoms: C_10  and  C_11
REMARK    6  A    between atoms: C_11  and  O_13
REMARK    7  A    between atoms: C_15  and  C_16
REMARK    8  A    between atoms: C_16  and  C_17
REMARK    9  A    between atoms: C_18  and  C_19
REMARK   10  A    between atoms: C_18  and  C_20
REMARK                            x       y       z     vdW  Elec       q    Type
REMARK                         _______ _______ _______ _____ _____    ______ ____
ROOT
ATOM      1  C   UNL     1       4.827   5.195  17.043  0.00  0.00    +0.000 A 
ATOM      2  C   UNL     1       4.853   6.527  16.602  0.00  0.00    +0.000 A 
ATOM      3  C   UNL     1       3.957   7.458  17.120  0.00  0.00    +0.000 A 
ATOM      4  C   UNL     1       3.015   7.064  18.067  0.00  0.00    +0.000 A 
ATOM      5  C   UNL     1       2.972   5.728  18.492  0.00  0.00    +0.000 A 
ATOM      6  C   UNL     1       3.869   4.766  17.976  0.00  0.00    +0.000 A 
ENDROOT
BRANCH   4   7
ATOM      7  C   UNL     1       2.071   8.056  18.581  0.00  0.00    +0.000 C 
ATOM      8  C   UNL     1       1.746   9.151  17.881  0.00  0.00    +0.000 C 
BRANCH   8   9
ATOM      9  C   UNL     1       0.854  10.155  18.500  0.00  0.00    +0.000 C 
ATOM     10  O   UNL     1       1.092  10.746  19.539  0.00  0.00    +0.000 OA
BRANCH   9  11
ATOM     11  O   UNL     1      -0.260  10.366  17.772  0.00  0.00    +0.000 OA
ATOM     12  H   UNL     1      -0.963   9.701  17.879  0.00  0.00    +0.000 HD
ENDBRANCH   9  11
ENDBRANCH   8   9
ENDBRANCH   4   7
BRANCH   1  13
ATOM     13  O   UNL     1       5.668   4.254  16.413  0.00  0.00    +0.000 OA
BRANCH  13  15
ATOM     14  C   UNL     1       7.633   4.583  17.697  0.00  0.00    +0.000 C 
ATOM     15  C   UNL     1       7.020   4.584  16.328  0.00  0.00    +0.000 C 
ATOM     16  O   UNL     1       7.650   4.815  15.305  0.00  0.00    +0.000 OA
ENDBRANCH  13  15
ENDBRANCH   1  13
BRANCH   6  17
ATOM     17  C   UNL     1       3.742   3.328  18.438  0.00  0.00    +0.000 C 
BRANCH  17  18
ATOM     18  C   UNL     1       3.200   3.168  19.836  0.00  0.00    +0.000 C 
ATOM     19  C   UNL     1       1.934   2.825  20.154  0.00  0.00    +0.000 C 
ATOM     20  C   UNL     1       0.826   2.625  19.154  0.00  0.00    +0.000 C 
ATOM     21  C   UNL     1       1.513   2.603  21.585  0.00  0.00    +0.000 C 
ENDBRANCH  17  18
ENDBRANCH   6  17
TORSDOF 7
ENDMDL
MODEL 4
REMARK VINA RESULT:      -7.1      0.628      1.059
REMARK  Name = 
REMARK  10 active torsions:
REMARK  status: ('A' for Active; 'I' for Inactive)
REMARK    1  A    between atoms: C_1  and  C_2
REMARK    2  A    between atoms: C_2  and  O_4
REMARK    3  A    between atoms: O_4  and  C_5
REMARK    4  A    between atoms: C_8  and  C_9
REMARK    5  A    between atoms: C_10  and  C_11
REMARK    6  A    between atoms: C_11  and  O_13
REMARK    7  A    between atoms: C_15  and  C_16
REMARK    8  A    between atoms: C_16  and  C_17
REMARK    9  A    between atoms: C_18  and  C_19
REMARK   10  A    between atoms: C_18  and  C_20
REMARK                            x       y       z     vdW  Elec       q    Type
REMARK                         _______ _______ _______ _____ _____    ______ ____
ROOT
ATOM      1  C   UNL     1       5.780   6.512  16.998  0.00  0.00    +0.000 A 
ATOM      2  C   UNL     1       4.755   7.077  17.773  0.00  0.00    +0.000 A 
ATOM      3  C   UNL     1       3.627   6.330  18.101  0.00  0.00    +0.000 A 
ATOM      4  C   UNL     1       3.503   5.022  17.643  0.00  0.00    +0.000 A 
ATOM      5  C   UNL     1       4.515   4.462  16.848  0.00  0.00    +0.000 A 
ATOM      6  C   UNL     1       5.666   5.204  16.500  0.00  0.00    +0.000 A 
ENDROOT
BRANCH   4   7
ATOM      7  C   UNL     1       2.298   4.264  17.984  0.00  0.00    +0.000 C 
ATOM      8  C   UNL     1       2.139   3.695  19.186  0.00  0.00    +0.000 C 
BRANCH   8   9
ATOM      9  C   UNL     1       0.936   2.870  19.431  0.00  0.00    +0.000 C 
ATOM     10  O   UNL     1       0.359   2.787  20.501  0.00  0.00    +0.000 OA
BRANCH   9  11
ATOM     11  O   UNL     1       0.527   2.223  18.323  0.00  0.00    +0.000 OA
ATOM     12  H   UNL     1      -0.417   1.986  18.299  0.00  0.00    +0.000 HD
ENDBRANCH   9  11
ENDBRANCH   8   9
ENDBRANCH   4   7
BRANCH   1  13
ATOM     13  O   UNL     1       6.852   7.331  16.586  0.00  0.00    +0.000 OA
BRANCH  13  15
ATOM     14  C   UNL     1       8.063   6.790  18.549  0.00  0.00    +0.000 C 
ATOM     15  C   UNL     1       7.649   7.871  17.595  0.00  0.00    +0.000 C 
ATOM     16  O   UNL     1       8.002   9.038  17.700  0.00  0.00    +0.000 OA
ENDBRANCH  13  15
ENDBRANCH   1  13
BRANCH   6  17
ATOM     17  C   UNL     1       6.701   4.562  15.599  0.00  0.00    +0.000 C 
BRANCH  17  18
ATOM     18  C   UNL     1       6.127   3.820  14.418  0.00  0.00    +0.000 C 
ATOM     19  C   UNL     1       6.517   3.964  13.134  0.00  0.00    +0.000 C 
ATOM     20  C   UNL     1       7.543   4.958  12.659  0.00  0.00    +0.000 C 
ATOM     21  C   UNL     1       5.940   3.109  12.035  0.00  0.00    +0.000 C 
ENDBRANCH  17  18
ENDBRANCH   6  17
TORSDOF 7
ENDMDL
MODEL 5
REMARK VINA RESULT:      -7.1      0.838      1.271
REMARK  Name = 
REMARK  10 active torsions:
REMARK  status: ('A' for Active; 'I' for Inactive)
REMARK    1  A    between atoms: C_1  and  C_2
REMARK    2  A    between atoms: C_2  and  O_4
REMARK    3  A    between atoms: O_4  and  C_5
REMARK    4  A    between atoms: C_8  and  C_9
REMARK    5  A    between atoms: C_10  and  C_11
REMARK    6  A    between atoms: C_11  and  O_13
REMARK    7  A    between atoms: C_15  and  C_16
REMARK    8  A    between atoms: C_16  and  C_17
REMARK    9  A    between atoms: C_18  and  C_19
REMARK   10  A    between atoms: C_18  and  C_20
REMARK                            x       y       z     vdW  Elec       q    Type
REMARK                         _______ _______ _______ _____ _____    ______ ____
ROOT
ATOM      1  C   UNL     1       5.670   6.500  17.009  0.00  0.00    +0.000 A 
ATOM      2  C   UNL     1       4.556   7.215  17.474  0.00  0.00    +0.000 A 
ATOM      3  C   UNL     1       3.386   6.547  17.823  0.00  0.00    +0.000 A 
ATOM      4  C   UNL     1       3.310   5.163  17.692  0.00  0.00    +0.000 A 
ATOM      5  C   UNL     1       4.414   4.448  17.205  0.00  0.00    +0.000 A 
ATOM      6  C   UNL     1       5.610   5.107  16.841  0.00  0.00    +0.000 A 
ENDROOT
BRANCH   4   7
ATOM      7  C   UNL     1       2.062   4.486  18.045  0.00  0.00    +0.000 C 
ATOM      8  C   UNL     1       2.043   3.411  18.844  0.00  0.00    +0.000 C 
BRANCH   8   9
ATOM      9  C   UNL     1       0.756   2.725  19.087  0.00  0.00    +0.000 C 
ATOM     10  O   UNL     1       0.217   1.965  18.301  0.00  0.00    +0.000 OA
BRANCH   9  11
ATOM     11  O   UNL     1       0.242   3.018  20.298  0.00  0.00    +0.000 OA
ATOM     12  H   UNL     1       0.560   2.465  21.033  0.00  0.00    +0.000 HD
ENDBRANCH   9  11
ENDBRANCH   8   9
ENDBRANCH   4   7
BRANCH   1  13
ATOM     13  O   UNL     1       6.797   7.216  16.554  0.00  0.00    +0.000 OA
BRANCH  13  15
ATOM     14  C   UNL     1       8.061   6.865  18.528  0.00  0.00    +0.000 C 
ATOM     15  C   UNL     1       7.559   7.863  17.527  0.00  0.00    +0.000 C 
ATOM     16  O   UNL     1       7.825   9.057  17.570  0.00  0.00    +0.000 OA
ENDBRANCH  13  15
ENDBRANCH   1  13
BRANCH   6  17
ATOM     17  C   UNL     1       6.751   4.286  16.275  0.00  0.00    +0.000 C 
BRANCH  17  18
ATOM     18  C   UNL     1       7.353   4.845  15.010  0.00  0.00    +0.000 C 
ATOM     19  C   UNL     1       6.913   4.603  13.757  0.00  0.00    +0.000 C 
ATOM     20  C   UNL     1       5.789   3.662  13.413  0.00  0.00    +0.000 C 
ATOM     21  C   UNL     1       7.530   5.282  12.560  0.00  0.00    +0.000 C 
ENDBRANCH  17  18
ENDBRANCH   6  17
TORSDOF 7
ENDMDL
MODEL 6
REMARK VINA RESULT:      -7.1      3.112      5.852
REMARK  Name = 
REMARK  10 active torsions:
REMARK  status: ('A' for Active; 'I' for Inactive)
REMARK    1  A    between atoms: C_1  and  C_2
REMARK    2  A    between atoms: C_2  and  O_4
REMARK    3  A    between atoms: O_4  and  C_5
REMARK    4  A    between atoms: C_8  and  C_9
REMARK    5  A    between atoms: C_10  and  C_11
REMARK    6  A    between atoms: C_11  and  O_13
REMARK    7  A    between atoms: C_15  and  C_16
REMARK    8  A    between atoms: C_16  and  C_17
REMARK    9  A    between atoms: C_18  and  C_19
REMARK   10  A    between atoms: C_18  and  C_20
REMARK                            x       y       z     vdW  Elec       q    Type
REMARK                         _______ _______ _______ _____ _____    ______ ____
ROOT
ATOM      1  C   UNL     1       4.494   4.888  17.084  0.00  0.00    +0.000 A 
ATOM      2  C   UNL     1       4.965   6.206  16.986  0.00  0.00    +0.000 A 
ATOM      3  C   UNL     1       4.196   7.266  17.456  0.00  0.00    +0.000 A 
ATOM      4  C   UNL     1       2.942   7.023  18.009  0.00  0.00    +0.000 A 
ATOM      5  C   UNL     1       2.458   5.708  18.087  0.00  0.00    +0.000 A 
ATOM      6  C   UNL     1       3.220   4.618  17.612  0.00  0.00    +0.000 A 
ENDROOT
BRANCH   4   7
ATOM      7  C   UNL     1       2.143   8.156  18.478  0.00  0.00    +0.000 C 
ATOM      8  C   UNL     1       1.827   9.179  17.672  0.00  0.00    +0.000 C 
BRANCH   8   9
ATOM      9  C   UNL     1       1.094  10.331  18.236  0.00  0.00    +0.000 C 
ATOM     10  O   UNL     1       1.594  11.198  18.932  0.00  0.00    +0.000 OA
BRANCH   9  11
ATOM     11  O   UNL     1      -0.205  10.335  17.877  0.00  0.00    +0.000 OA
ATOM     12  H   UNL     1      -0.713  11.121  18.146  0.00  0.00    +0.000 HD
ENDBRANCH   9  11
ENDBRANCH   8   9
ENDBRANCH   4   7
BRANCH   1  13
ATOM     13  O   UNL     1       5.245   3.850  16.494  0.00  0.00    +0.000 OA
BRANCH  13  15
ATOM     14  C   UNL     1       5.680   4.297  14.207  0.00  0.00    +0.000 C 
ATOM     15  C   UNL     1       6.242   4.234  15.597  0.00  0.00    +0.000 C 
ATOM     16  O   UNL     1       7.401   4.514  15.871  0.00  0.00    +0.000 OA
ENDBRANCH  13  15
ENDBRANCH   1  13
BRANCH   6  17
ATOM     17  C   UNL     1       2.624   3.227  17.679  0.00  0.00    +0.000 C 
BRANCH  17  18
ATOM     18  C   UNL     1       1.828   2.949  18.930  0.00  0.00    +0.000 C 
ATOM     19  C   UNL     1       2.345   2.681  20.147  0.00  0.00    +0.000 C 
ATOM     20  C   UNL     1       3.815   2.536  20.438  0.00  0.00    +0.000 C 
ATOM     21  C   UNL     1       1.463   2.505  21.357  0.00  0.00    +0.000 C 
ENDBRANCH  17  18
ENDBRANCH   6  17
TORSDOF 7
ENDMDL
MODEL 7
REMARK VINA RESULT:      -7.0      2.663      7.157
REMARK  Name = 
REMARK  10 active torsions:
REMARK  status: ('A' for Active; 'I' for Inactive)
REMARK    1  A    between atoms: C_1  and  C_2
REMARK    2  A    between atoms: C_2  and  O_4
REMARK    3  A    between atoms: O_4  and  C_5
REMARK    4  A    between atoms: C_8  and  C_9
REMARK    5  A    between atoms: C_10  and  C_11
REMARK    6  A    between atoms: C_11  and  O_13
REMARK    7  A    between atoms: C_15  and  C_16
REMARK    8  A    between atoms: C_16  and  C_17
REMARK    9  A    between atoms: C_18  and  C_19
REMARK   10  A    between atoms: C_18  and  C_20
REMARK                            x       y       z     vdW  Elec       q    Type
REMARK                         _______ _______ _______ _____ _____    ______ ____
ROOT
ATOM      1  C   UNL     1       3.211   4.666  20.148  0.00  0.00    +0.000 A 
ATOM      2  C   UNL     1       4.053   3.623  19.735  0.00  0.00    +0.000 A 
ATOM      3  C   UNL     1       4.873   3.779  18.621  0.00  0.00    +0.000 A 
ATOM      4  C   UNL     1       4.843   4.969  17.898  0.00  0.00    +0.000 A 
ATOM      5  C   UNL     1       3.985   6.004  18.295  0.00  0.00    +0.000 A 
ATOM      6  C   UNL     1       3.142   5.865  19.420  0.00  0.00    +0.000 A 
ENDROOT
BRANCH   4   7
ATOM      7  C   UNL     1       5.699   5.101  16.718  0.00  0.00    +0.000 C 
ATOM      8  C   UNL     1       5.638   4.231  15.701  0.00  0.00    +0.000 C 
BRANCH   8   9
ATOM      9  C   UNL     1       6.594   4.374  14.582  0.00  0.00    +0.000 C 
ATOM     10  O   UNL     1       7.469   5.220  14.522  0.00  0.00    +0.000 OA
BRANCH   9  11
ATOM     11  O   UNL     1       6.404   3.443  13.627  0.00  0.00    +0.000 OA
ATOM     12  H   UNL     1       6.329   2.526  13.944  0.00  0.00    +0.000 HD
ENDBRANCH   9  11
ENDBRANCH   8   9
ENDBRANCH   4   7
BRANCH   1  13
ATOM     13  O   UNL     1       2.310   4.434  21.209  0.00  0.00    +0.000 OA
BRANCH  13  15
ATOM     14  C   UNL     1       0.758   3.114  19.998  0.00  0.00    +0.000 C 
ATOM     15  C   UNL     1       1.644   3.209  21.205  0.00  0.00    +0.000 C 
ATOM     16  O   UNL     1       1.763   2.311  22.028  0.00  0.00    +0.000 OA
ENDBRANCH  13  15
ENDBRANCH   1  13
BRANCH   6  17
ATOM     17  C   UNL     1       2.201   7.000  19.772  0.00  0.00    +0.000 C 
BRANCH  17  18
ATOM     18  C   UNL     1       2.192   8.133  18.776  0.00  0.00    +0.000 C 
ATOM     19  C   UNL     1       1.505   9.288  18.905  0.00  0.00    +0.000 C 
ATOM     20  C   UNL     1       0.564   9.599  20.038  0.00  0.00    +0.000 C 
ATOM     21  C   UNL     1       1.633  10.398  17.894  0.00  0.00    +0.000 C 
ENDBRANCH  17  18
ENDBRANCH   6  17
TORSDOF 7
ENDMDL
MODEL 8
REMARK VINA RESULT:      -7.0      2.973      5.758
REMARK  Name = 
REMARK  10 active torsions:
REMARK  status: ('A' for Active; 'I' for Inactive)
REMARK    1  A    between atoms: C_1  and  C_2
REMARK    2  A    between atoms: C_2  and  O_4
REMARK    3  A    between atoms: O_4  and  C_5
REMARK    4  A    between atoms: C_8  and  C_9
REMARK    5  A    between atoms: C_10  and  C_11
REMARK    6  A    between atoms: C_11  and  O_13
REMARK    7  A    between atoms: C_15  and  C_16
REMARK    8  A    between atoms: C_16  and  C_17
REMARK    9  A    between atoms: C_18  and  C_19
REMARK   10  A    between atoms: C_18  and  C_20
REMARK                            x       y       z     vdW  Elec       q    Type
REMARK                         _______ _______ _______ _____ _____    ______ ____
ROOT
ATOM      1  C   UNL     1       4.873   4.951  16.907  0.00  0.00    +0.000 A 
ATOM      2  C   UNL     1       5.079   6.278  16.501  0.00  0.00    +0.000 A 
ATOM      3  C   UNL     1       4.290   7.303  17.015  0.00  0.00    +0.000 A 
ATOM      4  C   UNL     1       3.276   7.010  17.922  0.00  0.00    +0.000 A 
ATOM      5  C   UNL     1       3.052   5.682  18.312  0.00  0.00    +0.000 A 
ATOM      6  C   UNL     1       3.838   4.626  17.800  0.00  0.00    +0.000 A 
ENDROOT
BRANCH   4   7
ATOM      7  C   UNL     1       2.446   8.103  18.433  0.00  0.00    +0.000 C 
ATOM      8  C   UNL     1       1.453   8.634  17.707  0.00  0.00    +0.000 C 
BRANCH   8   9
ATOM      9  C   UNL     1       0.714   9.794  18.250  0.00  0.00    +0.000 C 
ATOM     10  O   UNL     1      -0.436  10.079  17.963  0.00  0.00    +0.000 OA
BRANCH   9  11
ATOM     11  O   UNL     1       1.452  10.504  19.125  0.00  0.00    +0.000 OA
ATOM     12  H   UNL     1       1.153  10.468  20.051  0.00  0.00    +0.000 HD
ENDBRANCH   9  11
ENDBRANCH   8   9
ENDBRANCH   4   7
BRANCH   1  13
ATOM     13  O   UNL     1       5.610   3.925  16.280  0.00  0.00    +0.000 OA
BRANCH  13  15
ATOM     14  C   UNL     1       6.032   4.072  13.953  0.00  0.00    +0.000 C 
ATOM     15  C   UNL     1       6.556   4.323  15.336  0.00  0.00    +0.000 C 
ATOM     16  O   UNL     1       7.645   4.832  15.565  0.00  0.00    +0.000 OA
ENDBRANCH  13  15
ENDBRANCH   1  13
BRANCH   6  17
ATOM     17  C   UNL     1       3.517   3.206  18.221  0.00  0.00    +0.000 C 
BRANCH  17  18
ATOM     18  C   UNL     1       3.088   3.065  19.660  0.00  0.00    +0.000 C 
ATOM     19  C   UNL     1       1.832   2.810  20.084  0.00  0.00    +0.000 C 
ATOM     20  C   UNL     1       0.631   2.705  19.182  0.00  0.00    +0.000 C 
ATOM     21  C   UNL     1       1.520   2.598  21.544  0.00  0.00    +0.000 C 
ENDBRANCH  17  18
ENDBRANCH   6  17
TORSDOF 7
ENDMDL
MODEL 9
REMARK VINA RESULT:      -7.0      1.210      1.538
REMARK  Name = 
REMARK  10 active torsions:
REMARK  status: ('A' for Active; 'I' for Inactive)
REMARK    1  A    between atoms: C_1  and  C_2
REMARK    2  A    between atoms: C_2  and  O_4
REMARK    3  A    between atoms: O_4  and  C_5
REMARK    4  A    between atoms: C_8  and  C_9
REMARK    5  A    between atoms: C_10  and  C_11
REMARK    6  A    between atoms: C_11  and  O_13
REMARK    7  A    between atoms: C_15  and  C_16
REMARK    8  A    between atoms: C_16  and  C_17
REMARK    9  A    between atoms: C_18  and  C_19
REMARK   10  A    between atoms: C_18  and  C_20
REMARK                            x       y       z     vdW  Elec       q    Type
REMARK                         _______ _______ _______ _____ _____    ______ ____
ROOT
ATOM      1  C   UNL     1       5.417   6.411  17.374  0.00  0.00    +0.000 A 
ATOM      2  C   UNL     1       4.418   7.131  18.048  0.00  0.00    +0.000 A 
ATOM      3  C   UNL     1       3.380   6.462  18.690  0.00  0.00    +0.000 A 
ATOM      4  C   UNL     1       3.318   5.071  18.647  0.00  0.00    +0.000 A 
ATOM      5  C   UNL     1       4.303   4.351  17.954  0.00  0.00    +0.000 A 
ATOM      6  C   UNL     1       5.363   5.010  17.293  0.00  0.00    +0.000 A 
ENDROOT
BRANCH   4   7
ATOM      7  C   UNL     1       2.205   4.392  19.312  0.00  0.00    +0.000 C 
ATOM      8  C   UNL     1       2.384   3.664  20.422  0.00  0.00    +0.000 C 
BRANCH   8   9
ATOM      9  C   UNL     1       1.231   2.933  20.989  0.00  0.00    +0.000 C 
ATOM     10  O   UNL     1       1.168   2.518  22.133  0.00  0.00    +0.000 OA
BRANCH   9  11
ATOM     11  O   UNL     1       0.231   2.787  20.098  0.00  0.00    +0.000 OA
ATOM     12  H   UNL     1       0.137   1.897  19.714  0.00  0.00    +0.000 HD
ENDBRANCH   9  11
ENDBRANCH   8   9
ENDBRANCH   4   7
BRANCH   1  13
ATOM     13  O   UNL     1       6.388   7.122  16.638  0.00  0.00    +0.000 OA
BRANCH  13  15
ATOM     14  C   UNL     1       7.966   6.828  18.381  0.00  0.00    +0.000 C 
ATOM     15  C   UNL     1       7.378   7.772  17.374  0.00  0.00    +0.000 C 
ATOM     16  O   UNL     1       7.756   8.926  17.227  0.00  0.00    +0.000 OA
ENDBRANCH  13  15
ENDBRANCH   1  13
BRANCH   6  17
ATOM     17  C   UNL     1       6.368   4.181  16.521  0.00  0.00    +0.000 C 
BRANCH  17  18
ATOM     18  C   UNL     1       5.887   3.717  15.169  0.00  0.00    +0.000 C 
ATOM     19  C   UNL     1       6.387   4.111  13.978  0.00  0.00    +0.000 C 
ATOM     20  C   UNL     1       7.464   5.148  13.806  0.00  0.00    +0.000 C 
ATOM     21  C   UNL     1       5.895   3.519  12.682  0.00  0.00    +0.000 C 
ENDBRANCH  17  18
ENDBRANCH   6  17
TORSDOF 7
ENDMDL
