MODEL 1
REMARK VINA RESULT:      -8.3      0.000      0.000
REMARK  Name = 
REMARK  7 active torsions:
REMARK  status: ('A' for Active; 'I' for Inactive)
REMARK    1  A    between atoms: C_1  and  O_2
REMARK    2  A    between atoms: O_2  and  C_3
REMARK    3  A    between atoms: C_6  and  C_7
REMARK    4  A    between atoms: C_16  and  C_18
REMARK    5  A    between atoms: C_18  and  C_19
REMARK    6  A    between atoms: C_21  and  C_22
REMARK    7  A    between atoms: C_24  and  C_25
REMARK                            x       y       z     vdW  Elec       q    Type
REMARK                         _______ _______ _______ _____ _____    ______ ____
ROOT
ATOM      1  C   UNL     1       0.281  10.934  18.478  0.00  0.00    +0.000 C 
ATOM      2  C   UNL     1       0.515  12.223  19.239  0.00  0.00    +0.000 A 
ATOM      3  C   UNL     1       0.482  13.551  18.702  0.00  0.00    +0.000 A 
ATOM      4  C   UNL     1       0.849  14.502  19.629  0.00  0.00    +0.000 A 
ATOM      5  S   UNL     1       1.203  13.814  21.154  0.00  0.00    +0.000 S 
ATOM      6  C   UNL     1       0.914  12.247  20.567  0.00  0.00    +0.000 A 
ATOM      7  C   UNL     1       1.155  11.027  21.400  0.00  0.00    +0.000 C 
ATOM      8  C   UNL     1       0.515   9.808  20.717  0.00  0.00    +0.000 C 
ATOM      9  N   UNL     1       0.800   9.799  19.266  0.00  0.00    +0.000 N 
ATOM     10  C   UNL     1       1.540   8.840  18.593  0.00  0.00    +0.000 C 
ATOM     11  O   UNL     1       1.714   8.890  17.374  0.00  0.00    +0.000 OA
ENDROOT
BRANCH   1  15
ATOM     12  C   UNL     1      -3.955  10.779  17.456  0.00  0.00    +0.000 A 
ATOM     13  C   UNL     1      -3.490  11.558  18.517  0.00  0.00    +0.000 A 
ATOM     14  C   UNL     1      -2.129  11.568  18.842  0.00  0.00    +0.000 A 
ATOM     15  C   UNL     1      -1.201  10.776  18.140  0.00  0.00    +0.000 A 
ATOM     16  C   UNL     1      -1.698   9.955  17.114  0.00  0.00    +0.000 A 
ATOM     17  C   UNL     1      -3.061   9.960  16.775  0.00  0.00    +0.000 A 
BRANCH  12  19
ATOM     18  C   UNL     1      -6.127  11.015  18.345  0.00  0.00    +0.000 C 
ATOM     19  O   UNL     1      -5.296  10.871  17.197  0.00  0.00    +0.000 OA
ENDBRANCH  12  19
ENDBRANCH   1  15
BRANCH  10  20
ATOM     20  C   UNL     1       2.143   7.683  19.382  0.00  0.00    +0.000 C 
BRANCH  20  21
ATOM     21  C   UNL     1       2.756   6.610  18.512  0.00  0.00    +0.000 A 
ATOM     22  C   UNL     1       2.200   5.325  18.438  0.00  0.00    +0.000 A 
ATOM     23  C   UNL     1       2.811   4.317  17.684  0.00  0.00    +0.000 A 
ATOM     24  C   UNL     1       2.268   2.919  17.701  0.00  0.00    +0.000 C 
ATOM     25  C   UNL     1       3.973   4.612  16.964  0.00  0.00    +0.000 A 
ATOM     26  C   UNL     1       4.525   5.898  16.994  0.00  0.00    +0.000 A 
ATOM     27  C   UNL     1       5.810   6.201  16.282  0.00  0.00    +0.000 C 
ATOM     28  C   UNL     1       3.900   6.895  17.754  0.00  0.00    +0.000 A 
ENDBRANCH  20  21
ENDBRANCH  10  20
TORSDOF 4
ENDMDL
MODEL 2
REMARK VINA RESULT:      -8.2      0.339      1.660
REMARK  Name = 
REMARK  7 active torsions:
REMARK  status: ('A' for Active; 'I' for Inactive)
REMARK    1  A    between atoms: C_1  and  O_2
REMARK    2  A    between atoms: O_2  and  C_3
REMARK    3  A    between atoms: C_6  and  C_7
REMARK    4  A    between atoms: C_16  and  C_18
REMARK    5  A    between atoms: C_18  and  C_19
REMARK    6  A    between atoms: C_21  and  C_22
REMARK    7  A    between atoms: C_24  and  C_25
REMARK                            x       y       z     vdW  Elec       q    Type
REMARK                         _______ _______ _______ _____ _____    ______ ____
ROOT
ATOM      1  C   UNL     1       0.286  10.960  18.483  0.00  0.00    +0.000 C 
ATOM      2  C   UNL     1       0.539  12.269  19.202  0.00  0.00    +0.000 A 
ATOM      3  C   UNL     1       0.523  13.579  18.622  0.00  0.00    +0.000 A 
ATOM      4  C   UNL     1       0.904  14.555  19.517  0.00  0.00    +0.000 A 
ATOM      5  S   UNL     1       1.250  13.912  21.063  0.00  0.00    +0.000 S 
ATOM      6  C   UNL     1       0.940  12.330  20.527  0.00  0.00    +0.000 A 
ATOM      7  C   UNL     1       1.166  11.135  21.399  0.00  0.00    +0.000 C 
ATOM      8  C   UNL     1       0.509   9.903  20.757  0.00  0.00    +0.000 C 
ATOM      9  N   UNL     1       0.791   9.844  19.306  0.00  0.00    +0.000 N 
ATOM     10  C   UNL     1       1.517   8.854  18.664  0.00  0.00    +0.000 C 
ATOM     11  O   UNL     1       1.690   8.862  17.443  0.00  0.00    +0.000 OA
ENDROOT
BRANCH   1  15
ATOM     12  C   UNL     1      -3.953  10.829  17.470  0.00  0.00    +0.000 A 
ATOM     13  C   UNL     1      -3.476  11.639  18.501  0.00  0.00    +0.000 A 
ATOM     14  C   UNL     1      -2.115  11.641  18.825  0.00  0.00    +0.000 A 
ATOM     15  C   UNL     1      -1.199  10.810  18.152  0.00  0.00    +0.000 A 
ATOM     16  C   UNL     1      -1.709   9.960  17.157  0.00  0.00    +0.000 A 
ATOM     17  C   UNL     1      -3.071   9.972  16.819  0.00  0.00    +0.000 A 
BRANCH  12  19
ATOM     18  C   UNL     1      -5.835  12.243  17.322  0.00  0.00    +0.000 C 
ATOM     19  O   UNL     1      -5.293  10.930  17.209  0.00  0.00    +0.000 OA
ENDBRANCH  12  19
ENDBRANCH   1  15
BRANCH  10  20
ATOM     20  C   UNL     1       2.106   7.715  19.488  0.00  0.00    +0.000 C 
BRANCH  20  21
ATOM     21  C   UNL     1       2.725   6.618  18.653  0.00  0.00    +0.000 A 
ATOM     22  C   UNL     1       3.841   6.861  17.840  0.00  0.00    +0.000 A 
ATOM     23  C   UNL     1       4.366   5.859  17.018  0.00  0.00    +0.000 A 
ATOM     24  C   UNL     1       5.490   6.162  16.071  0.00  0.00    +0.000 C 
ATOM     25  C   UNL     1       3.789   4.585  17.041  0.00  0.00    +0.000 A 
ATOM     26  C   UNL     1       2.698   4.310  17.873  0.00  0.00    +0.000 A 
ATOM     27  C   UNL     1       2.031   2.966  17.849  0.00  0.00    +0.000 C 
ATOM     28  C   UNL     1       2.185   5.325  18.689  0.00  0.00    +0.000 A 
ENDBRANCH  20  21
ENDBRANCH  10  20
TORSDOF 4
ENDMDL
MODEL 3
REMARK VINA RESULT:      -8.1      2.835      8.590
REMARK  Name = 
REMARK  7 active torsions:
REMARK  status: ('A' for Active; 'I' for Inactive)
REMARK    1  A    between atoms: C_1  and  O_2
REMARK    2  A    between atoms: O_2  and  C_3
REMARK    3  A    between atoms: C_6  and  C_7
REMARK    4  A    between atoms: C_16  and  C_18
REMARK    5  A    between atoms: C_18  and  C_19
REMARK    6  A    between atoms: C_21  and  C_22
REMARK    7  A    between atoms: C_24  and  C_25
REMARK                            x       y       z     vdW  Elec       q    Type
REMARK                         _______ _______ _______ _____ _____    ______ ____
ROOT
ATOM      1  C   UNL     1       2.371   5.946  17.988  0.00  0.00    +0.000 C 
ATOM      2  C   UNL     1       1.919   4.603  18.523  0.00  0.00    +0.000 A 
ATOM      3  C   UNL     1       1.557   3.453  17.749  0.00  0.00    +0.000 A 
ATOM      4  C   UNL     1       1.081   2.422  18.530  0.00  0.00    +0.000 A 
ATOM      5  S   UNL     1       1.097   2.814  20.195  0.00  0.00    +0.000 S 
ATOM      6  C   UNL     1       1.691   4.372  19.871  0.00  0.00    +0.000 A 
ATOM      7  C   UNL     1       1.864   5.398  20.946  0.00  0.00    +0.000 C 
ATOM      8  C   UNL     1       2.697   6.570  20.405  0.00  0.00    +0.000 C 
ATOM      9  N   UNL     1       2.249   6.962  19.051  0.00  0.00    +0.000 N 
ATOM     10  C   UNL     1       1.693   8.184  18.706  0.00  0.00    +0.000 C 
ATOM     11  O   UNL     1       1.365   8.445  17.547  0.00  0.00    +0.000 OA
ENDROOT
BRANCH   1  15
ATOM     12  C   UNL     1       6.310   5.585  16.153  0.00  0.00    +0.000 A 
ATOM     13  C   UNL     1       5.459   4.485  16.273  0.00  0.00    +0.000 A 
ATOM     14  C   UNL     1       4.211   4.621  16.891  0.00  0.00    +0.000 A 
ATOM     15  C   UNL     1       3.794   5.851  17.438  0.00  0.00    +0.000 A 
ATOM     16  C   UNL     1       4.689   6.930  17.358  0.00  0.00    +0.000 A 
ATOM     17  C   UNL     1       5.932   6.798  16.720  0.00  0.00    +0.000 A 
BRANCH  12  19
ATOM     18  C   UNL     1       7.357   4.891  14.156  0.00  0.00    +0.000 C 
ATOM     19  O   UNL     1       7.489   5.353  15.497  0.00  0.00    +0.000 OA
ENDBRANCH  12  19
ENDBRANCH   1  15
BRANCH  10  20
ATOM     20  C   UNL     1       1.496   9.239  19.788  0.00  0.00    +0.000 C 
BRANCH  20  21
ATOM     21  C   UNL     1       0.679  10.427  19.336  0.00  0.00    +0.000 A 
ATOM     22  C   UNL     1      -0.679  10.298  19.010  0.00  0.00    +0.000 A 
ATOM     23  C   UNL     1      -1.411  11.388  18.527  0.00  0.00    +0.000 A 
ATOM     24  C   UNL     1      -2.832  11.211  18.080  0.00  0.00    +0.000 C 
ATOM     25  C   UNL     1      -0.784  12.632  18.405  0.00  0.00    +0.000 A 
ATOM     26  C   UNL     1       0.560  12.792  18.759  0.00  0.00    +0.000 A 
ATOM     27  C   UNL     1       1.257  14.106  18.563  0.00  0.00    +0.000 C 
ATOM     28  C   UNL     1       1.278  11.691  19.241  0.00  0.00    +0.000 A 
ENDBRANCH  20  21
ENDBRANCH  10  20
TORSDOF 4
ENDMDL
MODEL 4
REMARK VINA RESULT:      -8.1      2.853      8.755
REMARK  Name = 
REMARK  7 active torsions:
REMARK  status: ('A' for Active; 'I' for Inactive)
REMARK    1  A    between atoms: C_1  and  O_2
REMARK    2  A    between atoms: O_2  and  C_3
REMARK    3  A    between atoms: C_6  and  C_7
REMARK    4  A    between atoms: C_16  and  C_18
REMARK    5  A    between atoms: C_18  and  C_19
REMARK    6  A    between atoms: C_21  and  C_22
REMARK    7  A    between atoms: C_24  and  C_25
REMARK                            x       y       z     vdW  Elec       q    Type
REMARK                         _______ _______ _______ _____ _____    ______ ____
ROOT
ATOM      1  C   UNL     1       2.367   5.892  17.995  0.00  0.00    +0.000 C 
ATOM      2  C   UNL     1       1.891   4.569  18.559  0.00  0.00    +0.000 A 
ATOM      3  C   UNL     1       1.517   3.406  17.810  0.00  0.00    +0.000 A 
ATOM      4  C   UNL     1       1.020   2.402  18.612  0.00  0.00    +0.000 A 
ATOM      5  S   UNL     1       1.031   2.833  20.267  0.00  0.00    +0.000 S 
ATOM      6  C   UNL     1       1.651   4.374  19.910  0.00  0.00    +0.000 A 
ATOM      7  C   UNL     1       1.831   5.424  20.962  0.00  0.00    +0.000 C 
ATOM      8  C   UNL     1       2.686   6.569  20.399  0.00  0.00    +0.000 C 
ATOM      9  N   UNL     1       2.253   6.936  19.033  0.00  0.00    +0.000 N 
ATOM     10  C   UNL     1       1.718   8.157  18.655  0.00  0.00    +0.000 C 
ATOM     11  O   UNL     1       1.402   8.394  17.487  0.00  0.00    +0.000 OA
ENDROOT
BRANCH   1  15
ATOM     12  C   UNL     1       6.312   5.417  16.202  0.00  0.00    +0.000 A 
ATOM     13  C   UNL     1       5.461   4.327  16.386  0.00  0.00    +0.000 A 
ATOM     14  C   UNL     1       4.211   4.502  16.990  0.00  0.00    +0.000 A 
ATOM     15  C   UNL     1       3.791   5.762  17.457  0.00  0.00    +0.000 A 
ATOM     16  C   UNL     1       4.688   6.835  17.315  0.00  0.00    +0.000 A 
ATOM     17  C   UNL     1       5.933   6.663  16.691  0.00  0.00    +0.000 A 
BRANCH  12  19
ATOM     18  C   UNL     1       7.380   4.827  14.182  0.00  0.00    +0.000 C 
ATOM     19  O   UNL     1       7.494   5.145  15.566  0.00  0.00    +0.000 OA
ENDBRANCH  12  19
ENDBRANCH   1  15
BRANCH  10  20
ATOM     20  C   UNL     1       1.529   9.241  19.710  0.00  0.00    +0.000 C 
BRANCH  20  21
ATOM     21  C   UNL     1       0.759  10.443  19.214  0.00  0.00    +0.000 A 
ATOM     22  C   UNL     1       1.375  11.694  19.067  0.00  0.00    +0.000 A 
ATOM     23  C   UNL     1       0.640  12.817  18.672  0.00  0.00    +0.000 A 
ATOM     24  C   UNL     1       1.285  14.170  18.625  0.00  0.00    +0.000 C 
ATOM     25  C   UNL     1      -0.722  12.676  18.385  0.00  0.00    +0.000 A 
ATOM     26  C   UNL     1      -1.349  11.429  18.491  0.00  0.00    +0.000 A 
ATOM     27  C   UNL     1      -2.823  11.286  18.253  0.00  0.00    +0.000 C 
ATOM     28  C   UNL     1      -0.598  10.315  18.886  0.00  0.00    +0.000 A 
ENDBRANCH  20  21
ENDBRANCH  10  20
TORSDOF 4
ENDMDL
MODEL 5
REMARK VINA RESULT:      -7.9      0.950      1.951
REMARK  Name = 
REMARK  7 active torsions:
REMARK  status: ('A' for Active; 'I' for Inactive)
REMARK    1  A    between atoms: C_1  and  O_2
REMARK    2  A    between atoms: O_2  and  C_3
REMARK    3  A    between atoms: C_6  and  C_7
REMARK    4  A    between atoms: C_16  and  C_18
REMARK    5  A    between atoms: C_18  and  C_19
REMARK    6  A    between atoms: C_21  and  C_22
REMARK    7  A    between atoms: C_24  and  C_25
REMARK                            x       y       z     vdW  Elec       q    Type
REMARK                         _______ _______ _______ _____ _____    ______ ____
ROOT
ATOM      1  C   UNL     1       0.325  10.889  18.668  0.00  0.00    +0.000 C 
ATOM      2  C   UNL     1       0.620  12.294  19.151  0.00  0.00    +0.000 A 
ATOM      3  C   UNL     1       0.724  13.472  18.342  0.00  0.00    +0.000 A 
ATOM      4  C   UNL     1       1.113  14.576  19.068  0.00  0.00    +0.000 A 
ATOM      5  S   UNL     1       1.324  14.215  20.726  0.00  0.00    +0.000 S 
ATOM      6  C   UNL     1       0.944  12.581  20.468  0.00  0.00    +0.000 A 
ATOM      7  C   UNL     1       1.038  11.559  21.558  0.00  0.00    +0.000 C 
ATOM      8  C   UNL     1       0.342  10.266  21.107  0.00  0.00    +0.000 C 
ATOM      9  N   UNL     1       0.706   9.921  19.715  0.00  0.00    +0.000 N 
ATOM     10  C   UNL     1       1.404   8.791  19.318  0.00  0.00    +0.000 C 
ATOM     11  O   UNL     1       1.649   8.563  18.132  0.00  0.00    +0.000 OA
ENDROOT
BRANCH   1  15
ATOM     12  C   UNL     1      -3.860  10.812  17.447  0.00  0.00    +0.000 A 
ATOM     13  C   UNL     1      -3.420  11.631  18.488  0.00  0.00    +0.000 A 
ATOM     14  C   UNL     1      -2.077  11.616  18.880  0.00  0.00    +0.000 A 
ATOM     15  C   UNL     1      -1.144  10.759  18.265  0.00  0.00    +0.000 A 
ATOM     16  C   UNL     1      -1.618   9.901  17.259  0.00  0.00    +0.000 A 
ATOM     17  C   UNL     1      -2.962   9.931  16.853  0.00  0.00    +0.000 A 
BRANCH  12  19
ATOM     18  C   UNL     1      -6.054  11.230  18.205  0.00  0.00    +0.000 C 
ATOM     19  O   UNL     1      -5.183  10.932  17.118  0.00  0.00    +0.000 OA
ENDBRANCH  12  19
ENDBRANCH   1  15
BRANCH  10  20
ATOM     20  C   UNL     1       1.867   7.797  20.377  0.00  0.00    +0.000 C 
BRANCH  20  21
ATOM     21  C   UNL     1       2.208   6.434  19.821  0.00  0.00    +0.000 A 
ATOM     22  C   UNL     1       3.136   6.281  18.782  0.00  0.00    +0.000 A 
ATOM     23  C   UNL     1       3.396   5.023  18.226  0.00  0.00    +0.000 A 
ATOM     24  C   UNL     1       4.309   4.888  17.043  0.00  0.00    +0.000 C 
ATOM     25  C   UNL     1       2.745   3.900  18.746  0.00  0.00    +0.000 A 
ATOM     26  C   UNL     1       1.842   4.024  19.808  0.00  0.00    +0.000 A 
ATOM     27  C   UNL     1       1.088   2.834  20.321  0.00  0.00    +0.000 C 
ATOM     28  C   UNL     1       1.594   5.291  20.352  0.00  0.00    +0.000 A 
ENDBRANCH  20  21
ENDBRANCH  10  20
TORSDOF 4
ENDMDL
MODEL 6
REMARK VINA RESULT:      -7.9      2.952      8.663
REMARK  Name = 
REMARK  7 active torsions:
REMARK  status: ('A' for Active; 'I' for Inactive)
REMARK    1  A    between atoms: C_1  and  O_2
REMARK    2  A    between atoms: O_2  and  C_3
REMARK    3  A    between atoms: C_6  and  C_7
REMARK    4  A    between atoms: C_16  and  C_18
REMARK    5  A    between atoms: C_18  and  C_19
REMARK    6  A    between atoms: C_21  and  C_22
REMARK    7  A    between atoms: C_24  and  C_25
REMARK                            x       y       z     vdW  Elec       q    Type
REMARK                         _______ _______ _______ _____ _____    ______ ____
ROOT
ATOM      1  C   UNL     1       2.407   5.975  17.875  0.00  0.00    +0.000 C 
ATOM      2  C   UNL     1       1.880   4.705  18.512  0.00  0.00    +0.000 A 
ATOM      3  C   UNL     1       1.494   3.505  17.832  0.00  0.00    +0.000 A 
ATOM      4  C   UNL     1       0.949   2.569  18.686  0.00  0.00    +0.000 A 
ATOM      5  S   UNL     1       0.929   3.111  20.308  0.00  0.00    +0.000 S 
ATOM      6  C   UNL     1       1.600   4.608  19.866  0.00  0.00    +0.000 A 
ATOM      7  C   UNL     1       1.781   5.721  20.851  0.00  0.00    +0.000 C 
ATOM      8  C   UNL     1       2.682   6.804  20.236  0.00  0.00    +0.000 C 
ATOM      9  N   UNL     1       2.295   7.088  18.837  0.00  0.00    +0.000 N 
ATOM     10  C   UNL     1       1.803   8.295  18.364  0.00  0.00    +0.000 C 
ATOM     11  O   UNL     1       1.524   8.461  17.175  0.00  0.00    +0.000 OA
ENDROOT
BRANCH   1  15
ATOM     12  C   UNL     1       6.383   5.303  16.218  0.00  0.00    +0.000 A 
ATOM     13  C   UNL     1       5.467   4.259  16.359  0.00  0.00    +0.000 A 
ATOM     14  C   UNL     1       4.208   4.496  16.920  0.00  0.00    +0.000 A 
ATOM     15  C   UNL     1       3.841   5.773  17.387  0.00  0.00    +0.000 A 
ATOM     16  C   UNL     1       4.798   6.796  17.289  0.00  0.00    +0.000 A 
ATOM     17  C   UNL     1       6.054   6.562  16.708  0.00  0.00    +0.000 A 
BRANCH  12  19
ATOM     18  C   UNL     1       7.524   4.850  14.204  0.00  0.00    +0.000 C 
ATOM     19  O   UNL     1       7.570   4.972  15.622  0.00  0.00    +0.000 OA
ENDBRANCH  12  19
ENDBRANCH   1  15
BRANCH  10  20
ATOM     20  C   UNL     1       1.617   9.451  19.339  0.00  0.00    +0.000 C 
BRANCH  20  21
ATOM     21  C   UNL     1       0.279  10.144  19.211  0.00  0.00    +0.000 A 
ATOM     22  C   UNL     1      -0.514   9.993  18.065  0.00  0.00    +0.000 A 
ATOM     23  C   UNL     1      -1.718  10.690  17.924  0.00  0.00    +0.000 A 
ATOM     24  C   UNL     1      -2.503  10.606  16.649  0.00  0.00    +0.000 C 
ATOM     25  C   UNL     1      -2.152  11.520  18.964  0.00  0.00    +0.000 A 
ATOM     26  C   UNL     1      -1.394  11.657  20.132  0.00  0.00    +0.000 A 
ATOM     27  C   UNL     1      -1.818  12.600  21.219  0.00  0.00    +0.000 C 
ATOM     28  C   UNL     1      -0.191  10.951  20.256  0.00  0.00    +0.000 A 
ENDBRANCH  20  21
ENDBRANCH  10  20
TORSDOF 4
ENDMDL
MODEL 7
REMARK VINA RESULT:      -7.9      2.987      8.707
REMARK  Name = 
REMARK  7 active torsions:
REMARK  status: ('A' for Active; 'I' for Inactive)
REMARK    1  A    between atoms: C_1  and  O_2
REMARK    2  A    between atoms: O_2  and  C_3
REMARK    3  A    between atoms: C_6  and  C_7
REMARK    4  A    between atoms: C_16  and  C_18
REMARK    5  A    between atoms: C_18  and  C_19
REMARK    6  A    between atoms: C_21  and  C_22
REMARK    7  A    between atoms: C_24  and  C_25
REMARK                            x       y       z     vdW  Elec       q    Type
REMARK                         _______ _______ _______ _____ _____    ______ ____
ROOT
ATOM      1  C   UNL     1       2.433   5.836  17.909  0.00  0.00    +0.000 C 
ATOM      2  C   UNL     1       1.936   4.545  18.526  0.00  0.00    +0.000 A 
ATOM      3  C   UNL     1       1.553   3.355  17.826  0.00  0.00    +0.000 A 
ATOM      4  C   UNL     1       1.037   2.393  18.667  0.00  0.00    +0.000 A 
ATOM      5  S   UNL     1       1.039   2.897  20.301  0.00  0.00    +0.000 S 
ATOM      6  C   UNL     1       1.681   4.412  19.882  0.00  0.00    +0.000 A 
ATOM      7  C   UNL     1       1.867   5.505  20.888  0.00  0.00    +0.000 C 
ATOM      8  C   UNL     1       2.741   6.614  20.283  0.00  0.00    +0.000 C 
ATOM      9  N   UNL     1       2.324   6.925  18.898  0.00  0.00    +0.000 N 
ATOM     10  C   UNL     1       1.808   8.135  18.462  0.00  0.00    +0.000 C 
ATOM     11  O   UNL     1       1.505   8.325  17.282  0.00  0.00    +0.000 OA
ENDROOT
BRANCH   1  15
ATOM     12  C   UNL     1       6.387   5.270  16.160  0.00  0.00    +0.000 A 
ATOM     13  C   UNL     1       5.470   4.221  16.242  0.00  0.00    +0.000 A 
ATOM     14  C   UNL     1       4.218   4.421  16.834  0.00  0.00    +0.000 A 
ATOM     15  C   UNL     1       3.861   5.665  17.390  0.00  0.00    +0.000 A 
ATOM     16  C   UNL     1       4.819   6.691  17.349  0.00  0.00    +0.000 A 
ATOM     17  C   UNL     1       6.067   6.494  16.737  0.00  0.00    +0.000 A 
BRANCH  12  19
ATOM     18  C   UNL     1       7.477   4.832  14.114  0.00  0.00    +0.000 C 
ATOM     19  O   UNL     1       7.566   4.978  15.528  0.00  0.00    +0.000 OA
ENDBRANCH  12  19
ENDBRANCH   1  15
BRANCH  10  20
ATOM     20  C   UNL     1       1.624   9.267  19.466  0.00  0.00    +0.000 C 
BRANCH  20  21
ATOM     21  C   UNL     1       0.347  10.051  19.271  0.00  0.00    +0.000 A 
ATOM     22  C   UNL     1      -0.118  10.944  20.247  0.00  0.00    +0.000 A 
ATOM     23  C   UNL     1      -1.335  11.615  20.089  0.00  0.00    +0.000 A 
ATOM     24  C   UNL     1      -1.874  12.483  21.188  0.00  0.00    +0.000 C 
ATOM     25  C   UNL     1      -2.078  11.416  18.920  0.00  0.00    +0.000 A 
ATOM     26  C   UNL     1      -1.615  10.557  17.917  0.00  0.00    +0.000 A 
ATOM     27  C   UNL     1      -2.441  10.285  16.695  0.00  0.00    +0.000 C 
ATOM     28  C   UNL     1      -0.394   9.894  18.092  0.00  0.00    +0.000 A 
ENDBRANCH  20  21
ENDBRANCH  10  20
TORSDOF 4
ENDMDL
MODEL 8
REMARK VINA RESULT:      -7.8      1.037      1.297
REMARK  Name = 
REMARK  7 active torsions:
REMARK  status: ('A' for Active; 'I' for Inactive)
REMARK    1  A    between atoms: C_1  and  O_2
REMARK    2  A    between atoms: O_2  and  C_3
REMARK    3  A    between atoms: C_6  and  C_7
REMARK    4  A    between atoms: C_16  and  C_18
REMARK    5  A    between atoms: C_18  and  C_19
REMARK    6  A    between atoms: C_21  and  C_22
REMARK    7  A    between atoms: C_24  and  C_25
REMARK                            x       y       z     vdW  Elec       q    Type
REMARK                         _______ _______ _______ _____ _____    ______ ____
ROOT
ATOM      1  C   UNL     1       0.312  10.927  18.650  0.00  0.00    +0.000 C 
ATOM      2  C   UNL     1       0.605  12.336  19.124  0.00  0.00    +0.000 A 
ATOM      3  C   UNL     1       0.701  13.509  18.307  0.00  0.00    +0.000 A 
ATOM      4  C   UNL     1       1.092  14.619  19.025  0.00  0.00    +0.000 A 
ATOM      5  S   UNL     1       1.312  14.268  20.684  0.00  0.00    +0.000 S 
ATOM      6  C   UNL     1       0.935  12.631  20.437  0.00  0.00    +0.000 A 
ATOM      7  C   UNL     1       1.039  11.615  21.532  0.00  0.00    +0.000 C 
ATOM      8  C   UNL     1       0.344  10.318  21.092  0.00  0.00    +0.000 C 
ATOM      9  N   UNL     1       0.702   9.966  19.701  0.00  0.00    +0.000 N 
ATOM     10  C   UNL     1       1.401   8.836  19.306  0.00  0.00    +0.000 C 
ATOM     11  O   UNL     1       1.640   8.602  18.120  0.00  0.00    +0.000 OA
ENDROOT
BRANCH   1  15
ATOM     12  C   UNL     1      -3.879  10.832  17.454  0.00  0.00    +0.000 A 
ATOM     13  C   UNL     1      -3.438  11.649  18.495  0.00  0.00    +0.000 A 
ATOM     14  C   UNL     1      -2.092  11.640  18.879  0.00  0.00    +0.000 A 
ATOM     15  C   UNL     1      -1.158  10.790  18.256  0.00  0.00    +0.000 A 
ATOM     16  C   UNL     1      -1.634   9.934  17.249  0.00  0.00    +0.000 A 
ATOM     17  C   UNL     1      -2.980   9.958  16.851  0.00  0.00    +0.000 A 
BRANCH  12  19
ATOM     18  C   UNL     1      -5.802  12.199  17.454  0.00  0.00    +0.000 C 
ATOM     19  O   UNL     1      -5.205  10.946  17.133  0.00  0.00    +0.000 OA
ENDBRANCH  12  19
ENDBRANCH   1  15
BRANCH  10  20
ATOM     20  C   UNL     1       1.872   7.850  20.368  0.00  0.00    +0.000 C 
BRANCH  20  21
ATOM     21  C   UNL     1       2.118   6.457  19.835  0.00  0.00    +0.000 A 
ATOM     22  C   UNL     1       1.519   5.334  20.424  0.00  0.00    +0.000 A 
ATOM     23  C   UNL     1       1.805   4.042  19.969  0.00  0.00    +0.000 A 
ATOM     24  C   UNL     1       1.245   2.845  20.677  0.00  0.00    +0.000 C 
ATOM     25  C   UNL     1       2.673   3.877  18.884  0.00  0.00    +0.000 A 
ATOM     26  C   UNL     1       3.253   4.986  18.258  0.00  0.00    +0.000 A 
ATOM     27  C   UNL     1       4.239   4.812  17.141  0.00  0.00    +0.000 C 
ATOM     28  C   UNL     1       2.955   6.272  18.727  0.00  0.00    +0.000 A 
ENDBRANCH  20  21
ENDBRANCH  10  20
TORSDOF 4
ENDMDL
MODEL 9
REMARK VINA RESULT:      -7.8      2.974      8.769
REMARK  Name = 
REMARK  7 active torsions:
REMARK  status: ('A' for Active; 'I' for Inactive)
REMARK    1  A    between atoms: C_1  and  O_2
REMARK    2  A    between atoms: O_2  and  C_3
REMARK    3  A    between atoms: C_6  and  C_7
REMARK    4  A    between atoms: C_16  and  C_18
REMARK    5  A    between atoms: C_18  and  C_19
REMARK    6  A    between atoms: C_21  and  C_22
REMARK    7  A    between atoms: C_24  and  C_25
REMARK                            x       y       z     vdW  Elec       q    Type
REMARK                         _______ _______ _______ _____ _____    ______ ____
ROOT
ATOM      1  C   UNL     1       2.667   6.054  18.210  0.00  0.00    +0.000 C 
ATOM      2  C   UNL     1       2.227   4.628  18.467  0.00  0.00    +0.000 A 
ATOM      3  C   UNL     1       2.261   3.542  17.532  0.00  0.00    +0.000 A 
ATOM      4  C   UNL     1       1.686   2.396  18.037  0.00  0.00    +0.000 A 
ATOM      5  S   UNL     1       1.134   2.605  19.642  0.00  0.00    +0.000 S 
ATOM      6  C   UNL     1       1.616   4.233  19.646  0.00  0.00    +0.000 A 
ATOM      7  C   UNL     1       1.323   5.148  20.795  0.00  0.00    +0.000 C 
ATOM      8  C   UNL     1       2.144   6.437  20.642  0.00  0.00    +0.000 C 
ATOM      9  N   UNL     1       2.101   6.935  19.250  0.00  0.00    +0.000 N 
ATOM     10  C   UNL     1       1.545   8.136  18.838  0.00  0.00    +0.000 C 
ATOM     11  O   UNL     1       1.570   8.493  17.658  0.00  0.00    +0.000 OA
ENDROOT
BRANCH   1  15
ATOM     12  C   UNL     1       6.991   6.597  18.074  0.00  0.00    +0.000 A 
ATOM     13  C   UNL     1       6.146   7.252  17.177  0.00  0.00    +0.000 A 
ATOM     14  C   UNL     1       4.764   7.040  17.224  0.00  0.00    +0.000 A 
ATOM     15  C   UNL     1       4.191   6.140  18.144  0.00  0.00    +0.000 A 
ATOM     16  C   UNL     1       5.064   5.447  18.999  0.00  0.00    +0.000 A 
ATOM     17  C   UNL     1       6.449   5.676  18.965  0.00  0.00    +0.000 A 
BRANCH  12  19
ATOM     18  C   UNL     1       8.674   8.220  18.389  0.00  0.00    +0.000 C 
ATOM     19  O   UNL     1       8.320   6.905  17.969  0.00  0.00    +0.000 OA
ENDBRANCH  12  19
ENDBRANCH   1  15
BRANCH  10  20
ATOM     20  C   UNL     1       0.898   9.047  19.875  0.00  0.00    +0.000 C 
BRANCH  20  21
ATOM     21  C   UNL     1       0.298  10.304  19.288  0.00  0.00    +0.000 A 
ATOM     22  C   UNL     1       1.041  11.489  19.187  0.00  0.00    +0.000 A 
ATOM     23  C   UNL     1       0.458  12.666  18.706  0.00  0.00    +0.000 A 
ATOM     24  C   UNL     1       1.231  13.952  18.705  0.00  0.00    +0.000 C 
ATOM     25  C   UNL     1      -0.876  12.646  18.286  0.00  0.00    +0.000 A 
ATOM     26  C   UNL     1      -1.625  11.465  18.344  0.00  0.00    +0.000 A 
ATOM     27  C   UNL     1      -3.076  11.455  17.963  0.00  0.00    +0.000 C 
ATOM     28  C   UNL     1      -1.025  10.296  18.828  0.00  0.00    +0.000 A 
ENDBRANCH  20  21
ENDBRANCH  10  20
TORSDOF 4
ENDMDL
