MODEL 1
REMARK VINA RESULT:      -8.3      0.000      0.000
REMARK  Name = 
REMARK  7 active torsions:
REMARK  status: ('A' for Active; 'I' for Inactive)
REMARK    1  A    between atoms: C_1  and  N_2
REMARK    2  A    between atoms: N_2  and  C_3
REMARK    3  A    between atoms: C_3  and  C_4
REMARK    4  A    between atoms: C_4  and  N_5
REMARK    5  A    between atoms: N_5  and  C_6
REMARK    6  A    between atoms: C_13  and  C_15
REMARK    7  A    between atoms: C_18  and  C_19
REMARK                            x       y       z     vdW  Elec       q    Type
REMARK                         _______ _______ _______ _____ _____    ______ ____
ROOT
ATOM      1  C   UNL     1      -1.093  12.327  20.871  0.00  0.00    +0.000 C 
ATOM      2  N   UNL     1      -0.545  11.237  20.078  0.00  0.00    +0.000 N 
ATOM      3  C   UNL     1       0.536  10.550  20.675  0.00  0.00    +0.000 C 
ATOM      4  O   UNL     1       0.963  10.856  21.788  0.00  0.00    +0.000 OA
ENDROOT
BRANCH   3   5
ATOM      5  C   UNL     1       1.196   9.401  19.987  0.00  0.00    +0.000 A 
ATOM      6  C   UNL     1       1.404   8.176  20.612  0.00  0.00    +0.000 A 
ATOM      7  C   UNL     1       2.089   7.148  19.963  0.00  0.00    +0.000 A 
ATOM      8  C   UNL     1       2.482   7.250  18.622  0.00  0.00    +0.000 A 
ATOM      9  C   UNL     1       2.179   8.459  17.965  0.00  0.00    +0.000 A 
ATOM     10  C   UNL     1       1.561   9.526  18.641  0.00  0.00    +0.000 A 
BRANCH   8  11
ATOM     11  C   UNL     1       3.165   6.113  17.955  0.00  0.00    +0.000 A 
ATOM     12  C   UNL     1       4.313   6.313  17.157  0.00  0.00    +0.000 A 
ATOM     13  C   UNL     1       4.944   5.259  16.492  0.00  0.00    +0.000 A 
ATOM     14  C   UNL     1       4.466   3.962  16.634  0.00  0.00    +0.000 A 
ATOM     15  C   UNL     1       3.351   3.732  17.438  0.00  0.00    +0.000 A 
ATOM     16 CL   UNL     1       2.767   2.124  17.629  0.00  0.00    +0.000 Cl
ATOM     17  C   UNL     1       2.704   4.791  18.086  0.00  0.00    +0.000 A 
ENDBRANCH   8  11
ENDBRANCH   3   5
BRANCH   2  18
ATOM     18  C   UNL     1      -1.259  10.762  18.871  0.00  0.00    +0.000 C 
BRANCH  18  19
ATOM     19  C   UNL     1      -2.001  11.772  17.972  0.00  0.00    +0.000 C 
BRANCH  19  20
ATOM     20  N   UNL     1      -3.245  11.225  17.428  0.00  0.00    +0.000 N 
ATOM     21  C   UNL     1      -3.222  10.105  16.507  0.00  0.00    +0.000 C 
ATOM     22  C   UNL     1      -4.417  11.432  18.134  0.00  0.00    +0.000 A 
ATOM     23  N   UNL     1      -4.386  12.244  19.205  0.00  0.00    +0.000 NA
ATOM     24  C   UNL     1      -5.531  12.438  19.883  0.00  0.00    +0.000 A 
ATOM     25  C   UNL     1      -6.724  11.866  19.529  0.00  0.00    +0.000 A 
ATOM     26  C   UNL     1      -6.671  11.055  18.426  0.00  0.00    +0.000 A 
ATOM     27  N   UNL     1      -5.542  10.818  17.729  0.00  0.00    +0.000 NA
ENDBRANCH  19  20
ENDBRANCH  18  19
ENDBRANCH   2  18
TORSDOF 5
ENDMDL
MODEL 2
REMARK VINA RESULT:      -8.1      5.726      8.257
REMARK  Name = 
REMARK  7 active torsions:
REMARK  status: ('A' for Active; 'I' for Inactive)
REMARK    1  A    between atoms: C_1  and  N_2
REMARK    2  A    between atoms: N_2  and  C_3
REMARK    3  A    between atoms: C_3  and  C_4
REMARK    4  A    between atoms: C_4  and  N_5
REMARK    5  A    between atoms: N_5  and  C_6
REMARK    6  A    between atoms: C_13  and  C_15
REMARK    7  A    between atoms: C_18  and  C_19
REMARK                            x       y       z     vdW  Elec       q    Type
REMARK                         _______ _______ _______ _____ _____    ______ ____
ROOT
ATOM      1  C   UNL     1       4.409   3.474  17.924  0.00  0.00    +0.000 C 
ATOM      2  N   UNL     1       5.069   4.695  18.363  0.00  0.00    +0.000 N 
ATOM      3  C   UNL     1       6.167   5.097  17.569  0.00  0.00    +0.000 C 
ATOM      4  O   UNL     1       6.518   4.458  16.577  0.00  0.00    +0.000 OA
ENDROOT
BRANCH   3   5
ATOM      5  C   UNL     1       6.939   6.335  17.888  0.00  0.00    +0.000 A 
ATOM      6  C   UNL     1       7.946   6.360  18.846  0.00  0.00    +0.000 A 
ATOM      7  C   UNL     1       8.598   7.552  19.168  0.00  0.00    +0.000 A 
ATOM      8  C   UNL     1       8.364   8.739  18.463  0.00  0.00    +0.000 A 
ATOM      9  C   UNL     1       7.413   8.681  17.426  0.00  0.00    +0.000 A 
ATOM     10  C   UNL     1       6.697   7.501  17.152  0.00  0.00    +0.000 A 
BRANCH   8  11
ATOM     11  C   UNL     1       9.116   9.972  18.805  0.00  0.00    +0.000 A 
ATOM     12  C   UNL     1       9.341  10.344  20.149  0.00  0.00    +0.000 A 
ATOM     13  C   UNL     1      10.013  11.521  20.488  0.00  0.00    +0.000 A 
ATOM     14  C   UNL     1      10.515  12.347  19.490  0.00  0.00    +0.000 A 
ATOM     15  C   UNL     1      10.332  11.990  18.156  0.00  0.00    +0.000 A 
ATOM     16 CL   UNL     1      10.967  13.003  16.917  0.00  0.00    +0.000 Cl
ATOM     17  C   UNL     1       9.638  10.823  17.815  0.00  0.00    +0.000 A 
ENDBRANCH   8  11
ENDBRANCH   3   5
BRANCH   2  18
ATOM     18  C   UNL     1       4.449   5.544  19.405  0.00  0.00    +0.000 C 
BRANCH  18  19
ATOM     19  C   UNL     1       2.950   5.896  19.315  0.00  0.00    +0.000 C 
BRANCH  19  20
ATOM     20  N   UNL     1       2.727   7.276  18.881  0.00  0.00    +0.000 N 
ATOM     21  C   UNL     1       2.946   7.664  17.501  0.00  0.00    +0.000 C 
ATOM     22  C   UNL     1       1.871   8.069  19.626  0.00  0.00    +0.000 A 
ATOM     23  N   UNL     1       1.399   7.586  20.788  0.00  0.00    +0.000 NA
ATOM     24  C   UNL     1       0.569   8.365  21.503  0.00  0.00    +0.000 A 
ATOM     25  C   UNL     1       0.195   9.625  21.118  0.00  0.00    +0.000 A 
ATOM     26  C   UNL     1       0.721  10.042  19.923  0.00  0.00    +0.000 A 
ATOM     27  N   UNL     1       1.541   9.288  19.165  0.00  0.00    +0.000 NA
ENDBRANCH  19  20
ENDBRANCH  18  19
ENDBRANCH   2  18
TORSDOF 5
ENDMDL
MODEL 3
REMARK VINA RESULT:      -8.1      6.565      9.486
REMARK  Name = 
REMARK  7 active torsions:
REMARK  status: ('A' for Active; 'I' for Inactive)
REMARK    1  A    between atoms: C_1  and  N_2
REMARK    2  A    between atoms: N_2  and  C_3
REMARK    3  A    between atoms: C_3  and  C_4
REMARK    4  A    between atoms: C_4  and  N_5
REMARK    5  A    between atoms: N_5  and  C_6
REMARK    6  A    between atoms: C_13  and  C_15
REMARK    7  A    between atoms: C_18  and  C_19
REMARK                            x       y       z     vdW  Elec       q    Type
REMARK                         _______ _______ _______ _____ _____    ______ ____
ROOT
ATOM      1  C   UNL     1       4.929   3.949  16.837  0.00  0.00    +0.000 C 
ATOM      2  N   UNL     1       5.401   5.234  17.332  0.00  0.00    +0.000 N 
ATOM      3  C   UNL     1       6.797   5.431  17.240  0.00  0.00    +0.000 C 
ATOM      4  O   UNL     1       7.543   4.575  16.764  0.00  0.00    +0.000 OA
ENDROOT
BRANCH   3   5
ATOM      5  C   UNL     1       7.430   6.704  17.697  0.00  0.00    +0.000 A 
ATOM      6  C   UNL     1       8.233   6.773  18.830  0.00  0.00    +0.000 A 
ATOM      7  C   UNL     1       8.750   7.994  19.268  0.00  0.00    +0.000 A 
ATOM      8  C   UNL     1       8.594   9.173  18.528  0.00  0.00    +0.000 A 
ATOM      9  C   UNL     1       7.863   9.074  17.328  0.00  0.00    +0.000 A 
ATOM     10  C   UNL     1       7.274   7.862  16.926  0.00  0.00    +0.000 A 
BRANCH   8  11
ATOM     11  C   UNL     1       9.202  10.440  19.005  0.00  0.00    +0.000 A 
ATOM     12  C   UNL     1       9.455  10.661  20.377  0.00  0.00    +0.000 A 
ATOM     13  C   UNL     1       9.992  11.863  20.846  0.00  0.00    +0.000 A 
ATOM     14  C   UNL     1      10.328  12.870  19.950  0.00  0.00    +0.000 A 
ATOM     15  C   UNL     1      10.116  12.669  18.588  0.00  0.00    +0.000 A 
ATOM     16 CL   UNL     1      10.546  13.909  17.474  0.00  0.00    +0.000 Cl
ATOM     17  C   UNL     1       9.556  11.474  18.119  0.00  0.00    +0.000 A 
ENDBRANCH   8  11
ENDBRANCH   3   5
BRANCH   2  18
ATOM     18  C   UNL     1       4.435   6.308  17.656  0.00  0.00    +0.000 C 
BRANCH  18  19
ATOM     19  C   UNL     1       2.965   5.952  17.956  0.00  0.00    +0.000 C 
BRANCH  19  20
ATOM     20  N   UNL     1       2.688   5.895  19.392  0.00  0.00    +0.000 N 
ATOM     21  C   UNL     1       2.176   7.056  20.096  0.00  0.00    +0.000 C 
ATOM     22  C   UNL     1       2.446   4.659  19.966  0.00  0.00    +0.000 A 
ATOM     23  N   UNL     1       2.619   3.559  19.213  0.00  0.00    +0.000 NA
ATOM     24  C   UNL     1       2.382   2.363  19.781  0.00  0.00    +0.000 A 
ATOM     25  C   UNL     1       1.991   2.210  21.085  0.00  0.00    +0.000 A 
ATOM     26  C   UNL     1       1.840   3.379  21.783  0.00  0.00    +0.000 A 
ATOM     27  N   UNL     1       2.048   4.598  21.249  0.00  0.00    +0.000 NA
ENDBRANCH  19  20
ENDBRANCH  18  19
ENDBRANCH   2  18
TORSDOF 5
ENDMDL
MODEL 4
REMARK VINA RESULT:      -8.1      1.330      1.862
REMARK  Name = 
REMARK  7 active torsions:
REMARK  status: ('A' for Active; 'I' for Inactive)
REMARK    1  A    between atoms: C_1  and  N_2
REMARK    2  A    between atoms: N_2  and  C_3
REMARK    3  A    between atoms: C_3  and  C_4
REMARK    4  A    between atoms: C_4  and  N_5
REMARK    5  A    between atoms: N_5  and  C_6
REMARK    6  A    between atoms: C_13  and  C_15
REMARK    7  A    between atoms: C_18  and  C_19
REMARK                            x       y       z     vdW  Elec       q    Type
REMARK                         _______ _______ _______ _____ _____    ______ ____
ROOT
ATOM      1  C   UNL     1      -1.256  12.172  20.384  0.00  0.00    +0.000 C 
ATOM      2  N   UNL     1      -0.558  11.152  19.616  0.00  0.00    +0.000 N 
ATOM      3  C   UNL     1       0.360  10.373  20.356  0.00  0.00    +0.000 C 
ATOM      4  O   UNL     1       0.535  10.548  21.561  0.00  0.00    +0.000 OA
ENDROOT
BRANCH   3   5
ATOM      5  C   UNL     1       1.144   9.279  19.708  0.00  0.00    +0.000 A 
ATOM      6  C   UNL     1       1.667   9.396  18.425  0.00  0.00    +0.000 A 
ATOM      7  C   UNL     1       2.334   8.327  17.824  0.00  0.00    +0.000 A 
ATOM      8  C   UNL     1       2.618   7.145  18.520  0.00  0.00    +0.000 A 
ATOM      9  C   UNL     1       2.171   7.074  19.853  0.00  0.00    +0.000 A 
ATOM     10  C   UNL     1       1.430   8.118  20.435  0.00  0.00    +0.000 A 
BRANCH   8  11
ATOM     11  C   UNL     1       3.373   6.052  17.858  0.00  0.00    +0.000 A 
ATOM     12  C   UNL     1       2.837   4.750  17.752  0.00  0.00    +0.000 A 
ATOM     13  C   UNL     1       3.550   3.701  17.167  0.00  0.00    +0.000 A 
ATOM     14  C   UNL     1       4.812   3.931  16.633  0.00  0.00    +0.000 A 
ATOM     15  C   UNL     1       5.355   5.213  16.699  0.00  0.00    +0.000 A 
ATOM     16 CL   UNL     1       6.912   5.506  16.025  0.00  0.00    +0.000 Cl
ATOM     17  C   UNL     1       4.651   6.259  17.307  0.00  0.00    +0.000 A 
ENDBRANCH   8  11
ENDBRANCH   3   5
BRANCH   2  18
ATOM     18  C   UNL     1      -0.993  10.828  18.238  0.00  0.00    +0.000 C 
BRANCH  18  19
ATOM     19  C   UNL     1      -2.355  10.141  18.006  0.00  0.00    +0.000 C 
BRANCH  19  20
ATOM     20  N   UNL     1      -3.199  10.882  17.067  0.00  0.00    +0.000 N 
ATOM     21  C   UNL     1      -3.207  10.549  15.656  0.00  0.00    +0.000 C 
ATOM     22  C   UNL     1      -4.314  11.536  17.563  0.00  0.00    +0.000 A 
ATOM     23  N   UNL     1      -4.490  11.584  18.894  0.00  0.00    +0.000 NA
ATOM     24  C   UNL     1      -5.576  12.224  19.364  0.00  0.00    +0.000 A 
ATOM     25  C   UNL     1      -6.498  12.838  18.559  0.00  0.00    +0.000 A 
ATOM     26  C   UNL     1      -6.244  12.744  17.215  0.00  0.00    +0.000 A 
ATOM     27  N   UNL     1      -5.179  12.098  16.701  0.00  0.00    +0.000 NA
ENDBRANCH  19  20
ENDBRANCH  18  19
ENDBRANCH   2  18
TORSDOF 5
ENDMDL
MODEL 5
REMARK VINA RESULT:      -8.1      0.441      1.020
REMARK  Name = 
REMARK  7 active torsions:
REMARK  status: ('A' for Active; 'I' for Inactive)
REMARK    1  A    between atoms: C_1  and  N_2
REMARK    2  A    between atoms: N_2  and  C_3
REMARK    3  A    between atoms: C_3  and  C_4
REMARK    4  A    between atoms: C_4  and  N_5
REMARK    5  A    between atoms: N_5  and  C_6
REMARK    6  A    between atoms: C_13  and  C_15
REMARK    7  A    between atoms: C_18  and  C_19
REMARK                            x       y       z     vdW  Elec       q    Type
REMARK                         _______ _______ _______ _____ _____    ______ ____
ROOT
ATOM      1  C   UNL     1      -1.331  11.855  21.479  0.00  0.00    +0.000 C 
ATOM      2  N   UNL     1      -0.700  10.893  20.589  0.00  0.00    +0.000 N 
ATOM      3  C   UNL     1       0.331  10.125  21.176  0.00  0.00    +0.000 C 
ATOM      4  O   UNL     1       0.652  10.265  22.357  0.00  0.00    +0.000 OA
ENDROOT
BRANCH   3   5
ATOM      5  C   UNL     1       1.067   9.089  20.391  0.00  0.00    +0.000 A 
ATOM      6  C   UNL     1       1.563   9.332  19.116  0.00  0.00    +0.000 A 
ATOM      7  C   UNL     1       2.182   8.318  18.383  0.00  0.00    +0.000 A 
ATOM      8  C   UNL     1       2.447   7.059  18.937  0.00  0.00    +0.000 A 
ATOM      9  C   UNL     1       2.029   6.853  20.267  0.00  0.00    +0.000 A 
ATOM     10  C   UNL     1       1.333   7.846  20.979  0.00  0.00    +0.000 A 
BRANCH   8  11
ATOM     11  C   UNL     1       3.152   6.025  18.140  0.00  0.00    +0.000 A 
ATOM     12  C   UNL     1       4.195   6.368  17.251  0.00  0.00    +0.000 A 
ATOM     13  C   UNL     1       4.843   5.412  16.466  0.00  0.00    +0.000 A 
ATOM     14  C   UNL     1       4.493   4.072  16.572  0.00  0.00    +0.000 A 
ATOM     15  C   UNL     1       3.487   3.700  17.462  0.00  0.00    +0.000 A 
ATOM     16 CL   UNL     1       3.061   2.038  17.609  0.00  0.00    +0.000 Cl
ATOM     17  C   UNL     1       2.820   4.661  18.232  0.00  0.00    +0.000 A 
ENDBRANCH   8  11
ENDBRANCH   3   5
BRANCH   2  18
ATOM     18  C   UNL     1      -1.294  10.601  19.265  0.00  0.00    +0.000 C 
BRANCH  18  19
ATOM     19  C   UNL     1      -1.784  11.759  18.372  0.00  0.00    +0.000 C 
BRANCH  19  20
ATOM     20  N   UNL     1      -2.959  11.393  17.579  0.00  0.00    +0.000 N 
ATOM     21  C   UNL     1      -2.853  10.433  16.497  0.00  0.00    +0.000 C 
ATOM     22  C   UNL     1      -4.211  11.567  18.142  0.00  0.00    +0.000 A 
ATOM     23  N   UNL     1      -4.300  12.194  19.327  0.00  0.00    +0.000 NA
ATOM     24  C   UNL     1      -5.522  12.358  19.864  0.00  0.00    +0.000 A 
ATOM     25  C   UNL     1      -6.675  11.933  19.260  0.00  0.00    +0.000 A 
ATOM     26  C   UNL     1      -6.498  11.305  18.055  0.00  0.00    +0.000 A 
ATOM     27  N   UNL     1      -5.292  11.103  17.489  0.00  0.00    +0.000 NA
ENDBRANCH  19  20
ENDBRANCH  18  19
ENDBRANCH   2  18
TORSDOF 5
ENDMDL
MODEL 6
REMARK VINA RESULT:      -8.1      6.548      9.462
REMARK  Name = 
REMARK  7 active torsions:
REMARK  status: ('A' for Active; 'I' for Inactive)
REMARK    1  A    between atoms: C_1  and  N_2
REMARK    2  A    between atoms: N_2  and  C_3
REMARK    3  A    between atoms: C_3  and  C_4
REMARK    4  A    between atoms: C_4  and  N_5
REMARK    5  A    between atoms: N_5  and  C_6
REMARK    6  A    between atoms: C_13  and  C_15
REMARK    7  A    between atoms: C_18  and  C_19
REMARK                            x       y       z     vdW  Elec       q    Type
REMARK                         _______ _______ _______ _____ _____    ______ ____
ROOT
ATOM      1  C   UNL     1       4.990   3.776  16.799  0.00  0.00    +0.000 C 
ATOM      2  N   UNL     1       5.432   5.086  17.257  0.00  0.00    +0.000 N 
ATOM      3  C   UNL     1       6.830   5.284  17.237  0.00  0.00    +0.000 C 
ATOM      4  O   UNL     1       7.604   4.408  16.849  0.00  0.00    +0.000 OA
ENDROOT
BRANCH   3   5
ATOM      5  C   UNL     1       7.434   6.580  17.668  0.00  0.00    +0.000 A 
ATOM      6  C   UNL     1       7.271   7.756  16.944  0.00  0.00    +0.000 A 
ATOM      7  C   UNL     1       7.909   8.933  17.338  0.00  0.00    +0.000 A 
ATOM      8  C   UNL     1       8.630   9.021  18.536  0.00  0.00    +0.000 A 
ATOM      9  C   UNL     1       8.707   7.849  19.314  0.00  0.00    +0.000 A 
ATOM     10  C   UNL     1       8.133   6.641  18.880  0.00  0.00    +0.000 A 
BRANCH   8  11
ATOM     11  C   UNL     1       9.252  10.306  18.942  0.00  0.00    +0.000 A 
ATOM     12  C   UNL     1      10.000  11.080  18.028  0.00  0.00    +0.000 A 
ATOM     13  C   UNL     1      10.623  12.272  18.404  0.00  0.00    +0.000 A 
ATOM     14  C   UNL     1      10.485  12.749  19.701  0.00  0.00    +0.000 A 
ATOM     15  C   UNL     1       9.729  12.021  20.618  0.00  0.00    +0.000 A 
ATOM     16 CL   UNL     1       9.542  12.616  22.222  0.00  0.00    +0.000 Cl
ATOM     17  C   UNL     1       9.124  10.813  20.248  0.00  0.00    +0.000 A 
ENDBRANCH   8  11
ENDBRANCH   3   5
BRANCH   2  18
ATOM     18  C   UNL     1       4.447   6.171  17.470  0.00  0.00    +0.000 C 
BRANCH  18  19
ATOM     19  C   UNL     1       2.983   5.823  17.808  0.00  0.00    +0.000 C 
BRANCH  19  20
ATOM     20  N   UNL     1       2.729   5.821  19.250  0.00  0.00    +0.000 N 
ATOM     21  C   UNL     1       2.280   7.023  19.925  0.00  0.00    +0.000 C 
ATOM     22  C   UNL     1       2.447   4.614  19.865  0.00  0.00    +0.000 A 
ATOM     23  N   UNL     1       2.559   3.485  19.145  0.00  0.00    +0.000 NA
ATOM     24  C   UNL     1       2.283   2.318  19.753  0.00  0.00    +0.000 A 
ATOM     25  C   UNL     1       1.910   2.221  21.067  0.00  0.00    +0.000 A 
ATOM     26  C   UNL     1       1.820   3.417  21.731  0.00  0.00    +0.000 A 
ATOM     27  N   UNL     1       2.069   4.609  21.156  0.00  0.00    +0.000 NA
ENDBRANCH  19  20
ENDBRANCH  18  19
ENDBRANCH   2  18
TORSDOF 5
ENDMDL
MODEL 7
REMARK VINA RESULT:      -8.0      5.504      9.744
REMARK  Name = 
REMARK  7 active torsions:
REMARK  status: ('A' for Active; 'I' for Inactive)
REMARK    1  A    between atoms: C_1  and  N_2
REMARK    2  A    between atoms: N_2  and  C_3
REMARK    3  A    between atoms: C_3  and  C_4
REMARK    4  A    between atoms: C_4  and  N_5
REMARK    5  A    between atoms: N_5  and  C_6
REMARK    6  A    between atoms: C_13  and  C_15
REMARK    7  A    between atoms: C_18  and  C_19
REMARK                            x       y       z     vdW  Elec       q    Type
REMARK                         _______ _______ _______ _____ _____    ______ ____
ROOT
ATOM      1  C   UNL     1       3.988   3.210  19.220  0.00  0.00    +0.000 C 
ATOM      2  N   UNL     1       3.839   4.657  19.171  0.00  0.00    +0.000 N 
ATOM      3  C   UNL     1       2.512   5.114  19.015  0.00  0.00    +0.000 C 
ATOM      4  O   UNL     1       1.562   4.335  18.940  0.00  0.00    +0.000 OA
ENDROOT
BRANCH   3   5
ATOM      5  C   UNL     1       2.198   6.573  18.958  0.00  0.00    +0.000 A 
ATOM      6  C   UNL     1       2.267   7.306  17.779  0.00  0.00    +0.000 A 
ATOM      7  C   UNL     1       2.036   8.683  17.776  0.00  0.00    +0.000 A 
ATOM      8  C   UNL     1       1.604   9.364  18.922  0.00  0.00    +0.000 A 
ATOM      9  C   UNL     1       1.441   8.595  20.090  0.00  0.00    +0.000 A 
ATOM     10  C   UNL     1       1.749   7.223  20.115  0.00  0.00    +0.000 A 
BRANCH   8  11
ATOM     11  C   UNL     1       1.323  10.820  18.863  0.00  0.00    +0.000 A 
ATOM     12  C   UNL     1       2.214  11.715  18.232  0.00  0.00    +0.000 A 
ATOM     13  C   UNL     1       1.983  13.092  18.202  0.00  0.00    +0.000 A 
ATOM     14  C   UNL     1       0.829  13.615  18.771  0.00  0.00    +0.000 A 
ATOM     15  C   UNL     1      -0.083  12.753  19.377  0.00  0.00    +0.000 A 
ATOM     16 CL   UNL     1      -1.522  13.396  20.069  0.00  0.00    +0.000 Cl
ATOM     17  C   UNL     1       0.160  11.375  19.428  0.00  0.00    +0.000 A 
ENDBRANCH   8  11
ENDBRANCH   3   5
BRANCH   2  18
ATOM     18  C   UNL     1       4.980   5.536  19.516  0.00  0.00    +0.000 C 
BRANCH  18  19
ATOM     19  C   UNL     1       6.402   5.166  19.047  0.00  0.00    +0.000 C 
BRANCH  19  20
ATOM     20  N   UNL     1       6.797   5.893  17.840  0.00  0.00    +0.000 N 
ATOM     21  C   UNL     1       7.746   6.987  17.910  0.00  0.00    +0.000 C 
ATOM     22  C   UNL     1       6.663   5.257  16.618  0.00  0.00    +0.000 A 
ATOM     23  N   UNL     1       6.047   4.064  16.580  0.00  0.00    +0.000 NA
ATOM     24  C   UNL     1       5.922   3.456  15.387  0.00  0.00    +0.000 A 
ATOM     25  C   UNL     1       6.376   3.995  14.213  0.00  0.00    +0.000 A 
ATOM     26  C   UNL     1       6.991   5.213  14.338  0.00  0.00    +0.000 A 
ATOM     27  N   UNL     1       7.154   5.850  15.514  0.00  0.00    +0.000 NA
ENDBRANCH  19  20
ENDBRANCH  18  19
ENDBRANCH   2  18
TORSDOF 5
ENDMDL
MODEL 8
REMARK VINA RESULT:      -8.0      2.880      4.780
REMARK  Name = 
REMARK  7 active torsions:
REMARK  status: ('A' for Active; 'I' for Inactive)
REMARK    1  A    between atoms: C_1  and  N_2
REMARK    2  A    between atoms: N_2  and  C_3
REMARK    3  A    between atoms: C_3  and  C_4
REMARK    4  A    between atoms: C_4  and  N_5
REMARK    5  A    between atoms: N_5  and  C_6
REMARK    6  A    between atoms: C_13  and  C_15
REMARK    7  A    between atoms: C_18  and  C_19
REMARK                            x       y       z     vdW  Elec       q    Type
REMARK                         _______ _______ _______ _____ _____    ______ ____
ROOT
ATOM      1  C   UNL     1       1.661   7.724  20.704  0.00  0.00    +0.000 C 
ATOM      2  N   UNL     1       2.365   7.493  19.451  0.00  0.00    +0.000 N 
ATOM      3  C   UNL     1       2.889   6.190  19.294  0.00  0.00    +0.000 C 
ATOM      4  O   UNL     1       2.742   5.324  20.156  0.00  0.00    +0.000 OA
ENDROOT
BRANCH   3   5
ATOM      5  C   UNL     1       3.628   5.798  18.057  0.00  0.00    +0.000 A 
ATOM      6  C   UNL     1       3.586   4.509  17.540  0.00  0.00    +0.000 A 
ATOM      7  C   UNL     1       4.347   4.160  16.422  0.00  0.00    +0.000 A 
ATOM      8  C   UNL     1       5.081   5.110  15.699  0.00  0.00    +0.000 A 
ATOM      9  C   UNL     1       5.038   6.435  16.173  0.00  0.00    +0.000 A 
ATOM     10  C   UNL     1       4.337   6.773  17.344  0.00  0.00    +0.000 A 
BRANCH   8  11
ATOM     11  C   UNL     1       5.836   4.706  14.488  0.00  0.00    +0.000 A 
ATOM     12  C   UNL     1       7.095   5.270  14.185  0.00  0.00    +0.000 A 
ATOM     13  C   UNL     1       7.801   4.929  13.030  0.00  0.00    +0.000 A 
ATOM     14  C   UNL     1       7.286   3.981  12.155  0.00  0.00    +0.000 A 
ATOM     15  C   UNL     1       6.059   3.386  12.442  0.00  0.00    +0.000 A 
ATOM     16 CL   UNL     1       5.425   2.198  11.369  0.00  0.00    +0.000 Cl
ATOM     17  C   UNL     1       5.339   3.745  13.588  0.00  0.00    +0.000 A 
ENDBRANCH   8  11
ENDBRANCH   3   5
BRANCH   2  18
ATOM     18  C   UNL     1       2.291   8.490  18.359  0.00  0.00    +0.000 C 
BRANCH  18  19
ATOM     19  C   UNL     1       0.922   8.867  17.758  0.00  0.00    +0.000 C 
BRANCH  19  20
ATOM     20  N   UNL     1       0.306  10.005  18.442  0.00  0.00    +0.000 N 
ATOM     21  C   UNL     1       1.124  11.016  19.084  0.00  0.00    +0.000 C 
ATOM     22  C   UNL     1      -0.975  10.378  18.075  0.00  0.00    +0.000 A 
ATOM     23  N   UNL     1      -1.648   9.595  17.214  0.00  0.00    +0.000 NA
ATOM     24  C   UNL     1      -2.893   9.967  16.865  0.00  0.00    +0.000 A 
ATOM     25  C   UNL     1      -3.511  11.088  17.351  0.00  0.00    +0.000 A 
ATOM     26  C   UNL     1      -2.758  11.829  18.224  0.00  0.00    +0.000 A 
ATOM     27  N   UNL     1      -1.502  11.504  18.587  0.00  0.00    +0.000 NA
ENDBRANCH  19  20
ENDBRANCH  18  19
ENDBRANCH   2  18
TORSDOF 5
ENDMDL
MODEL 9
REMARK VINA RESULT:      -8.0      1.582      2.126
REMARK  Name = 
REMARK  7 active torsions:
REMARK  status: ('A' for Active; 'I' for Inactive)
REMARK    1  A    between atoms: C_1  and  N_2
REMARK    2  A    between atoms: N_2  and  C_3
REMARK    3  A    between atoms: C_3  and  C_4
REMARK    4  A    between atoms: C_4  and  N_5
REMARK    5  A    between atoms: N_5  and  C_6
REMARK    6  A    between atoms: C_13  and  C_15
REMARK    7  A    between atoms: C_18  and  C_19
REMARK                            x       y       z     vdW  Elec       q    Type
REMARK                         _______ _______ _______ _____ _____    ______ ____
ROOT
ATOM      1  C   UNL     1      -1.338  12.585  18.493  0.00  0.00    +0.000 C 
ATOM      2  N   UNL     1      -0.728  11.273  18.333  0.00  0.00    +0.000 N 
ATOM      3  C   UNL     1       0.444  11.064  19.092  0.00  0.00    +0.000 C 
ATOM      4  O   UNL     1       0.897  11.932  19.838  0.00  0.00    +0.000 OA
ENDROOT
BRANCH   3   5
ATOM      5  C   UNL     1       1.177   9.764  19.041  0.00  0.00    +0.000 A 
ATOM      6  C   UNL     1       1.936   9.378  17.941  0.00  0.00    +0.000 A 
ATOM      7  C   UNL     1       2.549   8.124  17.899  0.00  0.00    +0.000 A 
ATOM      8  C   UNL     1       2.538   7.256  18.998  0.00  0.00    +0.000 A 
ATOM      9  C   UNL     1       1.850   7.698  20.146  0.00  0.00    +0.000 A 
ATOM     10  C   UNL     1       1.165   8.926  20.162  0.00  0.00    +0.000 A 
BRANCH   8  11
ATOM     11  C   UNL     1       3.245   5.953  18.928  0.00  0.00    +0.000 A 
ATOM     12  C   UNL     1       2.692   4.787  19.501  0.00  0.00    +0.000 A 
ATOM     13  C   UNL     1       3.361   3.561  19.478  0.00  0.00    +0.000 A 
ATOM     14  C   UNL     1       4.593   3.455  18.844  0.00  0.00    +0.000 A 
ATOM     15  C   UNL     1       5.150   4.583  18.245  0.00  0.00    +0.000 A 
ATOM     16 CL   UNL     1       6.669   4.451  17.444  0.00  0.00    +0.000 Cl
ATOM     17  C   UNL     1       4.490   5.817  18.289  0.00  0.00    +0.000 A 
ENDBRANCH   8  11
ENDBRANCH   3   5
BRANCH   2  18
ATOM     18  C   UNL     1      -1.454  10.197  17.621  0.00  0.00    +0.000 C 
BRANCH  18  19
ATOM     19  C   UNL     1      -2.977  10.042  17.813  0.00  0.00    +0.000 C 
BRANCH  19  20
ATOM     20  N   UNL     1      -3.739  10.998  17.008  0.00  0.00    +0.000 N 
ATOM     21  C   UNL     1      -3.596  11.034  15.565  0.00  0.00    +0.000 C 
ATOM     22  C   UNL     1      -4.914  11.509  17.533  0.00  0.00    +0.000 A 
ATOM     23  N   UNL     1      -5.226  11.219  18.808  0.00  0.00    +0.000 NA
ATOM     24  C   UNL     1      -6.369  11.721  19.307  0.00  0.00    +0.000 A 
ATOM     25  C   UNL     1      -7.218  12.522  18.591  0.00  0.00    +0.000 A 
ATOM     26  C   UNL     1      -6.827  12.771  17.302  0.00  0.00    +0.000 A 
ATOM     27  N   UNL     1      -5.701  12.273  16.755  0.00  0.00    +0.000 NA
ENDBRANCH  19  20
ENDBRANCH  18  19
ENDBRANCH   2  18
TORSDOF 5
ENDMDL
