MODEL 1
REMARK VINA RESULT:      -7.9      0.000      0.000
REMARK  Name = 
REMARK  5 active torsions:
REMARK  status: ('A' for Active; 'I' for Inactive)
REMARK    1  A    between atoms: C_1  and  C_2
REMARK    2  A    between atoms: N_7  and  C_8
REMARK    3  A    between atoms: C_10  and  C_11
REMARK    4  A    between atoms: C_14  and  N_15
REMARK    5  A    between atoms: C_16  and  C_17
REMARK                            x       y       z     vdW  Elec       q    Type
REMARK                         _______ _______ _______ _____ _____    ______ ____
ROOT
ATOM      1  C   UNL     1       4.043   6.312  17.500  0.00  0.00    +0.000 A 
ATOM      2  N   UNL     1       3.409   7.493  17.391  0.00  0.00    +0.000 NA
ATOM      3  C   UNL     1       2.461   7.777  18.318  0.00  0.00    +0.000 A 
ATOM      4  N   UNL     1       1.991   6.907  19.229  0.00  0.00    +0.000 NA
ATOM      5  C   UNL     1       2.707   5.799  19.366  0.00  0.00    +0.000 A 
ATOM      6  C   UNL     1       3.805   5.526  18.597  0.00  0.00    +0.000 A 
ATOM      7  C   UNL     1       4.591   4.410  19.199  0.00  0.00    +0.000 C 
ATOM      8  C   UNL     1       3.665   3.950  20.355  0.00  0.00    +0.000 C 
ATOM      9  C   UNL     1       3.320   2.457  20.240  0.00  0.00    +0.000 C 
ATOM     10  O   UNL     1       2.088   2.111  20.878  0.00  0.00    +0.000 OA
ATOM     11  C   UNL     1       1.022   2.851  20.269  0.00  0.00    +0.000 C 
ATOM     12  C   UNL     1       1.141   4.350  20.575  0.00  0.00    +0.000 C 
ATOM     13  N   UNL     1       2.498   4.856  20.376  0.00  0.00    +0.000 N 
ENDROOT
BRANCH   1  20
ATOM     14  C   UNL     1       6.855   7.210  17.637  0.00  0.00    +0.000 C 
ATOM     15  C   UNL     1       6.402   5.921  16.955  0.00  0.00    +0.000 C 
ATOM     16  C   UNL     1       7.241   5.673  15.675  0.00  0.00    +0.000 C 
ATOM     17  O   UNL     1       6.959   4.376  15.116  0.00  0.00    +0.000 OA
ATOM     18  C   UNL     1       5.558   4.239  14.812  0.00  0.00    +0.000 C 
ATOM     19  C   UNL     1       4.672   4.502  16.046  0.00  0.00    +0.000 C 
ATOM     20  N   UNL     1       4.958   5.874  16.534  0.00  0.00    +0.000 N 
ENDBRANCH   1  20
BRANCH   3  21
ATOM     21  C   UNL     1       2.029   9.176  18.485  0.00  0.00    +0.000 A 
ATOM     22  C   UNL     1       2.614  10.227  17.793  0.00  0.00    +0.000 A 
ATOM     23  N   UNL     1       2.274  11.537  17.934  0.00  0.00    +0.000 NA
ATOM     24  C   UNL     1       1.310  11.859  18.818  0.00  0.00    +0.000 A 
ATOM     25  C   UNL     1       0.681  10.907  19.603  0.00  0.00    +0.000 A 
ATOM     26  C   UNL     1       1.056   9.560  19.421  0.00  0.00    +0.000 A 
BRANCH  25  27
ATOM     27  C   UNL     1      -0.361  11.242  20.625  0.00  0.00    +0.000 C 
ATOM     28  F   UNL     1       0.014  12.147  21.573  0.00  0.00    +0.000 F 
ATOM     29  F   UNL     1      -1.502  11.737  20.067  0.00  0.00    +0.000 F 
ATOM     30  F   UNL     1      -0.752  10.139  21.331  0.00  0.00    +0.000 F 
ENDBRANCH  25  27
BRANCH  24  31
ATOM     31  N   UNL     1       0.940  13.193  18.796  0.00  0.00    +0.000 N 
ATOM     32  H   UNL     1       0.616  13.451  19.724  0.00  0.00    +0.000 HD
ATOM     33  H   UNL     1       0.287  13.446  18.062  0.00  0.00    +0.000 HD
ENDBRANCH  24  31
ENDBRANCH   3  21
TORSDOF 4
ENDMDL
MODEL 2
REMARK VINA RESULT:      -7.9      1.552      4.455
REMARK  Name = 
REMARK  5 active torsions:
REMARK  status: ('A' for Active; 'I' for Inactive)
REMARK    1  A    between atoms: C_1  and  C_2
REMARK    2  A    between atoms: N_7  and  C_8
REMARK    3  A    between atoms: C_10  and  C_11
REMARK    4  A    between atoms: C_14  and  N_15
REMARK    5  A    between atoms: C_16  and  C_17
REMARK                            x       y       z     vdW  Elec       q    Type
REMARK                         _______ _______ _______ _____ _____    ______ ____
ROOT
ATOM      1  C   UNL     1       2.701   5.154  18.391  0.00  0.00    +0.000 A 
ATOM      2  N   UNL     1       2.060   6.102  19.100  0.00  0.00    +0.000 NA
ATOM      3  C   UNL     1       2.499   7.379  18.968  0.00  0.00    +0.000 A 
ATOM      4  N   UNL     1       3.620   7.744  18.322  0.00  0.00    +0.000 NA
ATOM      5  C   UNL     1       4.159   6.801  17.561  0.00  0.00    +0.000 A 
ATOM      6  C   UNL     1       3.656   5.531  17.484  0.00  0.00    +0.000 A 
ATOM      7  C   UNL     1       4.241   4.815  16.314  0.00  0.00    +0.000 C 
ATOM      8  C   UNL     1       5.315   5.821  15.824  0.00  0.00    +0.000 C 
ATOM      9  C   UNL     1       6.710   5.177  15.781  0.00  0.00    +0.000 C 
ATOM     10  O   UNL     1       7.773   6.126  15.900  0.00  0.00    +0.000 OA
ATOM     11  C   UNL     1       7.649   6.812  17.152  0.00  0.00    +0.000 C 
ATOM     12  C   UNL     1       6.404   7.709  17.173  0.00  0.00    +0.000 C 
ATOM     13  N   UNL     1       5.214   7.026  16.671  0.00  0.00    +0.000 N 
ENDROOT
BRANCH   1  20
ATOM     14  C   UNL     1       4.729   3.325  19.517  0.00  0.00    +0.000 C 
ATOM     15  C   UNL     1       3.225   3.067  19.566  0.00  0.00    +0.000 C 
ATOM     16  C   UNL     1       2.937   1.556  19.371  0.00  0.00    +0.000 C 
ATOM     17  O   UNL     1       1.546   1.262  19.594  0.00  0.00    +0.000 OA
ATOM     18  C   UNL     1       0.707   2.034  18.714  0.00  0.00    +0.000 C 
ATOM     19  C   UNL     1       0.970   3.547  18.846  0.00  0.00    +0.000 C 
ATOM     20  N   UNL     1       2.401   3.794  18.539  0.00  0.00    +0.000 N 
ENDBRANCH   1  20
BRANCH   3  21
ATOM     21  C   UNL     1       1.615   8.479  19.391  0.00  0.00    +0.000 A 
ATOM     22  C   UNL     1       1.220   9.494  18.532  0.00  0.00    +0.000 A 
ATOM     23  N   UNL     1       0.433  10.548  18.882  0.00  0.00    +0.000 NA
ATOM     24  C   UNL     1       0.009  10.638  20.157  0.00  0.00    +0.000 A 
ATOM     25  C   UNL     1       0.371   9.713  21.122  0.00  0.00    +0.000 A 
ATOM     26  C   UNL     1       1.182   8.632  20.718  0.00  0.00    +0.000 A 
BRANCH  25  27
ATOM     27  C   UNL     1      -0.048   9.813  22.556  0.00  0.00    +0.000 C 
ATOM     28  F   UNL     1      -0.421  11.056  22.975  0.00  0.00    +0.000 F 
ATOM     29  F   UNL     1      -1.092   8.989  22.856  0.00  0.00    +0.000 F 
ATOM     30  F   UNL     1       0.957   9.447  23.406  0.00  0.00    +0.000 F 
ENDBRANCH  25  27
BRANCH  24  31
ATOM     31  N   UNL     1      -0.893  11.663  20.387  0.00  0.00    +0.000 N 
ATOM     32  H   UNL     1      -1.780  11.253  20.667  0.00  0.00    +0.000 HD
ATOM     33  H   UNL     1      -0.985  12.332  19.630  0.00  0.00    +0.000 HD
ENDBRANCH  24  31
ENDBRANCH   3  21
TORSDOF 4
ENDMDL
MODEL 3
REMARK VINA RESULT:      -7.8      1.902      4.724
REMARK  Name = 
REMARK  5 active torsions:
REMARK  status: ('A' for Active; 'I' for Inactive)
REMARK    1  A    between atoms: C_1  and  C_2
REMARK    2  A    between atoms: N_7  and  C_8
REMARK    3  A    between atoms: C_10  and  C_11
REMARK    4  A    between atoms: C_14  and  N_15
REMARK    5  A    between atoms: C_16  and  C_17
REMARK                            x       y       z     vdW  Elec       q    Type
REMARK                         _______ _______ _______ _____ _____    ______ ____
ROOT
ATOM      1  C   UNL     1       2.454   5.648  18.498  0.00  0.00    +0.000 A 
ATOM      2  N   UNL     1       1.774   6.751  18.862  0.00  0.00    +0.000 NA
ATOM      3  C   UNL     1       2.264   7.947  18.450  0.00  0.00    +0.000 A 
ATOM      4  N   UNL     1       3.456   8.126  17.856  0.00  0.00    +0.000 NA
ATOM      5  C   UNL     1       4.042   7.015  17.429  0.00  0.00    +0.000 A 
ATOM      6  C   UNL     1       3.509   5.771  17.632  0.00  0.00    +0.000 A 
ATOM      7  C   UNL     1       4.189   4.771  16.759  0.00  0.00    +0.000 C 
ATOM      8  C   UNL     1       5.339   5.610  16.142  0.00  0.00    +0.000 C 
ATOM      9  C   UNL     1       6.710   4.973  16.419  0.00  0.00    +0.000 C 
ATOM     10  O   UNL     1       7.785   5.917  16.401  0.00  0.00    +0.000 OA
ATOM     11  C   UNL     1       7.553   6.907  17.411  0.00  0.00    +0.000 C 
ATOM     12  C   UNL     1       6.342   7.782  17.064  0.00  0.00    +0.000 C 
ATOM     13  N   UNL     1       5.188   6.996  16.631  0.00  0.00    +0.000 N 
ENDROOT
BRANCH   1  20
ATOM     14  C   UNL     1       2.353   5.127  21.404  0.00  0.00    +0.000 C 
ATOM     15  C   UNL     1       1.561   4.334  20.366  0.00  0.00    +0.000 C 
ATOM     16  C   UNL     1       1.501   2.839  20.770  0.00  0.00    +0.000 C 
ATOM     17  O   UNL     1       0.611   2.106  19.908  0.00  0.00    +0.000 OA
ATOM     18  C   UNL     1       1.015   2.221  18.531  0.00  0.00    +0.000 C 
ATOM     19  C   UNL     1       1.119   3.692  18.080  0.00  0.00    +0.000 C 
ATOM     20  N   UNL     1       2.098   4.375  18.961  0.00  0.00    +0.000 N 
ENDBRANCH   1  20
BRANCH   3  21
ATOM     21  C   UNL     1       1.376   9.122  18.475  0.00  0.00    +0.000 A 
ATOM     22  C   UNL     1       1.638  10.241  19.253  0.00  0.00    +0.000 A 
ATOM     23  N   UNL     1       0.836  11.337  19.336  0.00  0.00    +0.000 NA
ATOM     24  C   UNL     1      -0.312  11.348  18.630  0.00  0.00    +0.000 A 
ATOM     25  C   UNL     1      -0.710  10.274  17.852  0.00  0.00    +0.000 A 
ATOM     26  C   UNL     1       0.153   9.160  17.787  0.00  0.00    +0.000 A 
BRANCH  25  27
ATOM     27  C   UNL     1      -2.001  10.240  17.095  0.00  0.00    +0.000 C 
ATOM     28  F   UNL     1      -2.262  11.337  16.327  0.00  0.00    +0.000 F 
ATOM     29  F   UNL     1      -2.088   9.169  16.256  0.00  0.00    +0.000 F 
ATOM     30  F   UNL     1      -3.078  10.135  17.929  0.00  0.00    +0.000 F 
ENDBRANCH  25  27
BRANCH  24  31
ATOM     31  N   UNL     1      -0.994  12.552  18.670  0.00  0.00    +0.000 N 
ATOM     32  H   UNL     1      -0.660  13.082  19.471  0.00  0.00    +0.000 HD
ATOM     33  H   UNL     1      -2.004  12.476  18.637  0.00  0.00    +0.000 HD
ENDBRANCH  24  31
ENDBRANCH   3  21
TORSDOF 4
ENDMDL
MODEL 4
REMARK VINA RESULT:      -7.8      0.876      1.047
REMARK  Name = 
REMARK  5 active torsions:
REMARK  status: ('A' for Active; 'I' for Inactive)
REMARK    1  A    between atoms: C_1  and  C_2
REMARK    2  A    between atoms: N_7  and  C_8
REMARK    3  A    between atoms: C_10  and  C_11
REMARK    4  A    between atoms: C_14  and  N_15
REMARK    5  A    between atoms: C_16  and  C_17
REMARK                            x       y       z     vdW  Elec       q    Type
REMARK                         _______ _______ _______ _____ _____    ______ ____
ROOT
ATOM      1  C   UNL     1       4.076   6.385  17.420  0.00  0.00    +0.000 A 
ATOM      2  N   UNL     1       3.387   7.520  17.203  0.00  0.00    +0.000 NA
ATOM      3  C   UNL     1       2.375   7.806  18.059  0.00  0.00    +0.000 A 
ATOM      4  N   UNL     1       1.902   6.967  18.998  0.00  0.00    +0.000 NA
ATOM      5  C   UNL     1       2.668   5.912  19.242  0.00  0.00    +0.000 A 
ATOM      6  C   UNL     1       3.820   5.656  18.551  0.00  0.00    +0.000 A 
ATOM      7  C   UNL     1       4.629   4.625  19.263  0.00  0.00    +0.000 C 
ATOM      8  C   UNL     1       3.666   4.185  20.396  0.00  0.00    +0.000 C 
ATOM      9  C   UNL     1       3.409   2.670  20.359  0.00  0.00    +0.000 C 
ATOM     10  O   UNL     1       2.162   2.294  20.952  0.00  0.00    +0.000 OA
ATOM     11  C   UNL     1       1.095   2.934  20.243  0.00  0.00    +0.000 C 
ATOM     12  C   UNL     1       1.117   4.453  20.458  0.00  0.00    +0.000 C 
ATOM     13  N   UNL     1       2.453   5.023  20.298  0.00  0.00    +0.000 N 
ENDROOT
BRANCH   1  20
ATOM     14  C   UNL     1       6.808   7.495  17.604  0.00  0.00    +0.000 C 
ATOM     15  C   UNL     1       6.480   6.127  17.010  0.00  0.00    +0.000 C 
ATOM     16  C   UNL     1       7.396   5.842  15.792  0.00  0.00    +0.000 C 
ATOM     17  O   UNL     1       7.232   4.489  15.328  0.00  0.00    +0.000 OA
ATOM     18  C   UNL     1       5.861   4.226  14.977  0.00  0.00    +0.000 C 
ATOM     19  C   UNL     1       4.899   4.519  16.146  0.00  0.00    +0.000 C 
ATOM     20  N   UNL     1       5.066   5.942  16.533  0.00  0.00    +0.000 N 
ENDBRANCH   1  20
BRANCH   3  21
ATOM     21  C   UNL     1       1.861   9.186  18.113  0.00  0.00    +0.000 A 
ATOM     22  C   UNL     1       2.692  10.296  18.081  0.00  0.00    +0.000 A 
ATOM     23  N   UNL     1       2.270  11.587  18.159  0.00  0.00    +0.000 NA
ATOM     24  C   UNL     1       0.951  11.825  18.296  0.00  0.00    +0.000 A 
ATOM     25  C   UNL     1       0.022  10.802  18.387  0.00  0.00    +0.000 A 
ATOM     26  C   UNL     1       0.499   9.477  18.293  0.00  0.00    +0.000 A 
BRANCH  25  27
ATOM     27  C   UNL     1      -1.443  11.036  18.584  0.00  0.00    +0.000 C 
ATOM     28  F   UNL     1      -1.792  11.625  19.764  0.00  0.00    +0.000 F 
ATOM     29  F   UNL     1      -1.986  11.813  17.604  0.00  0.00    +0.000 F 
ATOM     30  F   UNL     1      -2.153   9.868  18.555  0.00  0.00    +0.000 F 
ENDBRANCH  25  27
BRANCH  24  31
ATOM     31  N   UNL     1       0.604  13.164  18.232  0.00  0.00    +0.000 N 
ATOM     32  H   UNL     1       0.788  13.497  17.289  0.00  0.00    +0.000 HD
ATOM     33  H   UNL     1       1.018  13.750  18.948  0.00  0.00    +0.000 HD
ENDBRANCH  24  31
ENDBRANCH   3  21
TORSDOF 4
ENDMDL
MODEL 5
REMARK VINA RESULT:      -7.8      4.625      7.382
REMARK  Name = 
REMARK  5 active torsions:
REMARK  status: ('A' for Active; 'I' for Inactive)
REMARK    1  A    between atoms: C_1  and  C_2
REMARK    2  A    between atoms: N_7  and  C_8
REMARK    3  A    between atoms: C_10  and  C_11
REMARK    4  A    between atoms: C_14  and  N_15
REMARK    5  A    between atoms: C_16  and  C_17
REMARK                            x       y       z     vdW  Elec       q    Type
REMARK                         _______ _______ _______ _____ _____    ______ ____
ROOT
ATOM      1  C   UNL     1       2.770   6.284  18.193  0.00  0.00    +0.000 A 
ATOM      2  N   UNL     1       3.868   6.353  17.417  0.00  0.00    +0.000 NA
ATOM      3  C   UNL     1       4.604   5.222  17.280  0.00  0.00    +0.000 A 
ATOM      4  N   UNL     1       4.418   4.094  17.987  0.00  0.00    +0.000 NA
ATOM      5  C   UNL     1       3.276   4.035  18.658  0.00  0.00    +0.000 A 
ATOM      6  C   UNL     1       2.378   5.067  18.686  0.00  0.00    +0.000 A 
ATOM      7  C   UNL     1       1.066   4.595  19.214  0.00  0.00    +0.000 C 
ATOM      8  C   UNL     1       1.401   3.149  19.666  0.00  0.00    +0.000 C 
ATOM      9  C   UNL     1       1.066   2.931  21.150  0.00  0.00    +0.000 C 
ATOM     10  O   UNL     1       1.836   1.889  21.755  0.00  0.00    +0.000 OA
ATOM     11  C   UNL     1       3.226   2.225  21.669  0.00  0.00    +0.000 C 
ATOM     12  C   UNL     1       3.716   2.192  20.215  0.00  0.00    +0.000 C 
ATOM     13  N   UNL     1       2.809   2.886  19.303  0.00  0.00    +0.000 N 
ENDROOT
BRANCH   1  20
ATOM     14  C   UNL     1       1.983   6.824  20.988  0.00  0.00    +0.000 C 
ATOM     15  C   UNL     1       2.102   7.900  19.911  0.00  0.00    +0.000 C 
ATOM     16  C   UNL     1       0.986   8.961  20.094  0.00  0.00    +0.000 C 
ATOM     17  O   UNL     1       1.186  10.078  19.207  0.00  0.00    +0.000 OA
ATOM     18  C   UNL     1       1.226   9.645  17.834  0.00  0.00    +0.000 C 
ATOM     19  C   UNL     1       2.302   8.567  17.599  0.00  0.00    +0.000 C 
ATOM     20  N   UNL     1       2.004   7.418  18.490  0.00  0.00    +0.000 N 
ENDBRANCH   1  20
BRANCH   3  21
ATOM     21  C   UNL     1       5.559   5.130  16.162  0.00  0.00    +0.000 A 
ATOM     22  C   UNL     1       6.782   5.786  16.167  0.00  0.00    +0.000 A 
ATOM     23  N   UNL     1       7.684   5.759  15.149  0.00  0.00    +0.000 NA
ATOM     24  C   UNL     1       7.378   5.062  14.038  0.00  0.00    +0.000 A 
ATOM     25  C   UNL     1       6.170   4.401  13.890  0.00  0.00    +0.000 A 
ATOM     26  C   UNL     1       5.265   4.447  14.971  0.00  0.00    +0.000 A 
BRANCH  25  27
ATOM     27  C   UNL     1       5.785   3.657  12.650  0.00  0.00    +0.000 C 
ATOM     28  F   UNL     1       6.166   2.348  12.606  0.00  0.00    +0.000 F 
ATOM     29  F   UNL     1       4.439   3.661  12.433  0.00  0.00    +0.000 F 
ATOM     30  F   UNL     1       6.333   4.217  11.530  0.00  0.00    +0.000 F 
ENDBRANCH  25  27
BRANCH  24  31
ATOM     31  N   UNL     1       8.407   4.981  13.115  0.00  0.00    +0.000 N 
ATOM     32  H   UNL     1       8.299   5.740  12.448  0.00  0.00    +0.000 HD
ATOM     33  H   UNL     1       8.518   4.076  12.672  0.00  0.00    +0.000 HD
ENDBRANCH  24  31
ENDBRANCH   3  21
TORSDOF 4
ENDMDL
MODEL 6
REMARK VINA RESULT:      -7.7      0.926      1.639
REMARK  Name = 
REMARK  5 active torsions:
REMARK  status: ('A' for Active; 'I' for Inactive)
REMARK    1  A    between atoms: C_1  and  C_2
REMARK    2  A    between atoms: N_7  and  C_8
REMARK    3  A    between atoms: C_10  and  C_11
REMARK    4  A    between atoms: C_14  and  N_15
REMARK    5  A    between atoms: C_16  and  C_17
REMARK                            x       y       z     vdW  Elec       q    Type
REMARK                         _______ _______ _______ _____ _____    ______ ____
ROOT
ATOM      1  C   UNL     1       4.290   6.258  18.100  0.00  0.00    +0.000 A 
ATOM      2  N   UNL     1       3.643   7.431  17.972  0.00  0.00    +0.000 NA
ATOM      3  C   UNL     1       2.408   7.522  18.527  0.00  0.00    +0.000 A 
ATOM      4  N   UNL     1       1.719   6.490  19.042  0.00  0.00    +0.000 NA
ATOM      5  C   UNL     1       2.427   5.386  19.238  0.00  0.00    +0.000 A 
ATOM      6  C   UNL     1       3.744   5.277  18.885  0.00  0.00    +0.000 A 
ATOM      7  C   UNL     1       4.353   4.078  19.530  0.00  0.00    +0.000 C 
ATOM      8  C   UNL     1       3.119   3.397  20.176  0.00  0.00    +0.000 C 
ATOM      9  C   UNL     1       2.959   1.947  19.691  0.00  0.00    +0.000 C 
ATOM     10  O   UNL     1       1.612   1.471  19.770  0.00  0.00    +0.000 OA
ATOM     11  C   UNL     1       0.775   2.298  18.953  0.00  0.00    +0.000 C 
ATOM     12  C   UNL     1       0.657   3.714  19.532  0.00  0.00    +0.000 C 
ATOM     13  N   UNL     1       1.951   4.267  19.927  0.00  0.00    +0.000 N 
ENDROOT
BRANCH   1  20
ATOM     14  C   UNL     1       4.484   4.185  16.004  0.00  0.00    +0.000 C 
ATOM     15  C   UNL     1       5.429   5.380  16.113  0.00  0.00    +0.000 C 
ATOM     16  C   UNL     1       6.870   4.956  15.730  0.00  0.00    +0.000 C 
ATOM     17  O   UNL     1       7.741   6.101  15.650  0.00  0.00    +0.000 OA
ATOM     18  C   UNL     1       7.761   6.822  16.896  0.00  0.00    +0.000 C 
ATOM     19  C   UNL     1       6.347   7.246  17.341  0.00  0.00    +0.000 C 
ATOM     20  N   UNL     1       5.520   6.022  17.471  0.00  0.00    +0.000 N 
ENDBRANCH   1  20
BRANCH   3  21
ATOM     21  C   UNL     1       1.834   8.859  18.761  0.00  0.00    +0.000 A 
ATOM     22  C   UNL     1       2.155   9.958  17.978  0.00  0.00    +0.000 A 
ATOM     23  N   UNL     1       1.678  11.218  18.172  0.00  0.00    +0.000 NA
ATOM     24  C   UNL     1       0.844  11.437  19.207  0.00  0.00    +0.000 A 
ATOM     25  C   UNL     1       0.484  10.433  20.089  0.00  0.00    +0.000 A 
ATOM     26  C   UNL     1       0.993   9.139  19.849  0.00  0.00    +0.000 A 
BRANCH  25  27
ATOM     27  C   UNL     1      -0.405  10.657  21.273  0.00  0.00    +0.000 C 
ATOM     28  F   UNL     1      -1.615  11.225  21.002  0.00  0.00    +0.000 F 
ATOM     29  F   UNL     1      -0.676   9.506  21.950  0.00  0.00    +0.000 F 
ATOM     30  F   UNL     1       0.172  11.489  22.191  0.00  0.00    +0.000 F 
ENDBRANCH  25  27
BRANCH  24  31
ATOM     31  N   UNL     1       0.307  12.712  19.245  0.00  0.00    +0.000 N 
ATOM     32  H   UNL     1       0.362  13.111  18.312  0.00  0.00    +0.000 HD
ATOM     33  H   UNL     1       0.691  13.320  19.960  0.00  0.00    +0.000 HD
ENDBRANCH  24  31
ENDBRANCH   3  21
TORSDOF 4
ENDMDL
MODEL 7
REMARK VINA RESULT:      -7.7      1.277      1.982
REMARK  Name = 
REMARK  5 active torsions:
REMARK  status: ('A' for Active; 'I' for Inactive)
REMARK    1  A    between atoms: C_1  and  C_2
REMARK    2  A    between atoms: N_7  and  C_8
REMARK    3  A    between atoms: C_10  and  C_11
REMARK    4  A    between atoms: C_14  and  N_15
REMARK    5  A    between atoms: C_16  and  C_17
REMARK                            x       y       z     vdW  Elec       q    Type
REMARK                         _______ _______ _______ _____ _____    ______ ____
ROOT
ATOM      1  C   UNL     1       4.203   6.523  18.064  0.00  0.00    +0.000 A 
ATOM      2  N   UNL     1       3.510   7.621  17.712  0.00  0.00    +0.000 NA
ATOM      3  C   UNL     1       2.284   7.787  18.268  0.00  0.00    +0.000 A 
ATOM      4  N   UNL     1       1.644   6.864  19.007  0.00  0.00    +0.000 NA
ATOM      5  C   UNL     1       2.396   5.849  19.410  0.00  0.00    +0.000 A 
ATOM      6  C   UNL     1       3.709   5.711  19.051  0.00  0.00    +0.000 A 
ATOM      7  C   UNL     1       4.375   4.695  19.916  0.00  0.00    +0.000 C 
ATOM      8  C   UNL     1       3.180   4.125  20.723  0.00  0.00    +0.000 C 
ATOM      9  C   UNL     1       3.065   2.601  20.556  0.00  0.00    +0.000 C 
ATOM     10  O   UNL     1       1.738   2.109  20.770  0.00  0.00    +0.000 OA
ATOM     11  C   UNL     1       0.855   2.719  19.820  0.00  0.00    +0.000 C 
ATOM     12  C   UNL     1       0.696   4.220  20.094  0.00  0.00    +0.000 C 
ATOM     13  N   UNL     1       1.976   4.885  20.330  0.00  0.00    +0.000 N 
ENDROOT
BRANCH   1  20
ATOM     14  C   UNL     1       4.354   4.253  16.179  0.00  0.00    +0.000 C 
ATOM     15  C   UNL     1       5.325   5.432  16.176  0.00  0.00    +0.000 C 
ATOM     16  C   UNL     1       6.757   4.941  15.841  0.00  0.00    +0.000 C 
ATOM     17  O   UNL     1       7.653   6.053  15.653  0.00  0.00    +0.000 OA
ATOM     18  C   UNL     1       7.688   6.891  16.823  0.00  0.00    +0.000 C 
ATOM     19  C   UNL     1       6.283   7.387  17.221  0.00  0.00    +0.000 C 
ATOM     20  N   UNL     1       5.428   6.200  17.465  0.00  0.00    +0.000 N 
ENDBRANCH   1  20
BRANCH   3  21
ATOM     21  C   UNL     1       1.666   9.124  18.233  0.00  0.00    +0.000 A 
ATOM     22  C   UNL     1       2.404  10.293  18.347  0.00  0.00    +0.000 A 
ATOM     23  N   UNL     1       1.879  11.548  18.354  0.00  0.00    +0.000 NA
ATOM     24  C   UNL     1       0.542  11.686  18.259  0.00  0.00    +0.000 A 
ATOM     25  C   UNL     1      -0.308  10.595  18.186  0.00  0.00    +0.000 A 
ATOM     26  C   UNL     1       0.276   9.311  18.175  0.00  0.00    +0.000 A 
BRANCH  25  27
ATOM     27  C   UNL     1      -1.799  10.717  18.127  0.00  0.00    +0.000 C 
ATOM     28  F   UNL     1      -2.487   9.539  18.131  0.00  0.00    +0.000 F 
ATOM     29  F   UNL     1      -2.307  11.450  19.158  0.00  0.00    +0.000 F 
ATOM     30  F   UNL     1      -2.212  11.356  16.992  0.00  0.00    +0.000 F 
ENDBRANCH  25  27
BRANCH  24  31
ATOM     31  N   UNL     1       0.112  12.996  18.138  0.00  0.00    +0.000 N 
ATOM     32  H   UNL     1       0.906  13.610  18.298  0.00  0.00    +0.000 HD
ATOM     33  H   UNL     1      -0.697  13.237  18.700  0.00  0.00    +0.000 HD
ENDBRANCH  24  31
ENDBRANCH   3  21
TORSDOF 4
ENDMDL
MODEL 8
REMARK VINA RESULT:      -7.7      4.731      9.244
REMARK  Name = 
REMARK  5 active torsions:
REMARK  status: ('A' for Active; 'I' for Inactive)
REMARK    1  A    between atoms: C_1  and  C_2
REMARK    2  A    between atoms: N_7  and  C_8
REMARK    3  A    between atoms: C_10  and  C_11
REMARK    4  A    between atoms: C_14  and  N_15
REMARK    5  A    between atoms: C_16  and  C_17
REMARK                            x       y       z     vdW  Elec       q    Type
REMARK                         _______ _______ _______ _____ _____    ______ ____
ROOT
ATOM      1  C   UNL     1      -0.962  11.698  18.709  0.00  0.00    +0.000 A 
ATOM      2  N   UNL     1      -0.452  10.455  18.643  0.00  0.00    +0.000 NA
ATOM      3  C   UNL     1       0.892  10.326  18.779  0.00  0.00    +0.000 A 
ATOM      4  N   UNL     1       1.763  11.350  18.805  0.00  0.00    +0.000 NA
ATOM      5  C   UNL     1       1.216  12.547  18.968  0.00  0.00    +0.000 A 
ATOM      6  C   UNL     1      -0.136  12.741  19.040  0.00  0.00    +0.000 A 
ATOM      7  C   UNL     1      -0.434  14.105  19.564  0.00  0.00    +0.000 C 
ATOM      8  C   UNL     1       0.977  14.747  19.613  0.00  0.00    +0.000 C 
ATOM      9  C   UNL     1       1.032  16.046  18.794  0.00  0.00    +0.000 C 
ATOM     10  O   UNL     1       2.347  16.366  18.330  0.00  0.00    +0.000 OA
ATOM     11  C   UNL     1       2.818  15.304  17.492  0.00  0.00    +0.000 C 
ATOM     12  C   UNL     1       3.058  14.022  18.302  0.00  0.00    +0.000 C 
ATOM     13  N   UNL     1       1.949  13.713  19.202  0.00  0.00    +0.000 N 
ENDROOT
BRANCH   1  20
ATOM     14  C   UNL     1      -2.245  10.622  16.275  0.00  0.00    +0.000 C 
ATOM     15  C   UNL     1      -3.001  10.973  17.556  0.00  0.00    +0.000 C 
ATOM     16  C   UNL     1      -4.382  11.585  17.208  0.00  0.00    +0.000 C 
ATOM     17  O   UNL     1      -5.184  11.756  18.391  0.00  0.00    +0.000 OA
ATOM     18  C   UNL     1      -4.512  12.589  19.355  0.00  0.00    +0.000 C 
ATOM     19  C   UNL     1      -3.117  12.042  19.718  0.00  0.00    +0.000 C 
ATOM     20  N   UNL     1      -2.319  11.953  18.471  0.00  0.00    +0.000 N 
ENDBRANCH   1  20
BRANCH   3  21
ATOM     21  C   UNL     1       1.447   9.002  19.107  0.00  0.00    +0.000 A 
ATOM     22  C   UNL     1       1.219   8.375  20.324  0.00  0.00    +0.000 A 
ATOM     23  N   UNL     1       1.734   7.169  20.687  0.00  0.00    +0.000 NA
ATOM     24  C   UNL     1       2.541   6.528  19.820  0.00  0.00    +0.000 A 
ATOM     25  C   UNL     1       2.883   7.069  18.592  0.00  0.00    +0.000 A 
ATOM     26  C   UNL     1       2.323   8.317  18.250  0.00  0.00    +0.000 A 
BRANCH  25  27
ATOM     27  C   UNL     1       3.814   6.400  17.629  0.00  0.00    +0.000 C 
ATOM     28  F   UNL     1       3.395   5.194  17.146  0.00  0.00    +0.000 F 
ATOM     29  F   UNL     1       4.077   7.168  16.534  0.00  0.00    +0.000 F 
ATOM     30  F   UNL     1       5.032   6.144  18.193  0.00  0.00    +0.000 F 
ENDBRANCH  25  27
BRANCH  24  31
ATOM     31  N   UNL     1       2.907   5.253  20.219  0.00  0.00    +0.000 N 
ATOM     32  H   UNL     1       2.815   4.630  19.422  0.00  0.00    +0.000 HD
ATOM     33  H   UNL     1       2.436   4.910  21.048  0.00  0.00    +0.000 HD
ENDBRANCH  24  31
ENDBRANCH   3  21
TORSDOF 4
ENDMDL
MODEL 9
REMARK VINA RESULT:      -7.6      1.834      4.664
REMARK  Name = 
REMARK  5 active torsions:
REMARK  status: ('A' for Active; 'I' for Inactive)
REMARK    1  A    between atoms: C_1  and  C_2
REMARK    2  A    between atoms: N_7  and  C_8
REMARK    3  A    between atoms: C_10  and  C_11
REMARK    4  A    between atoms: C_14  and  N_15
REMARK    5  A    between atoms: C_16  and  C_17
REMARK                            x       y       z     vdW  Elec       q    Type
REMARK                         _______ _______ _______ _____ _____    ______ ____
ROOT
ATOM      1  C   UNL     1       2.305   5.997  18.997  0.00  0.00    +0.000 A 
ATOM      2  N   UNL     1       1.682   7.179  19.154  0.00  0.00    +0.000 NA
ATOM      3  C   UNL     1       2.207   8.249  18.508  0.00  0.00    +0.000 A 
ATOM      4  N   UNL     1       3.388   8.255  17.865  0.00  0.00    +0.000 NA
ATOM      5  C   UNL     1       3.914   7.057  17.649  0.00  0.00    +0.000 A 
ATOM      6  C   UNL     1       3.338   5.902  18.101  0.00  0.00    +0.000 A 
ATOM      7  C   UNL     1       3.950   4.722  17.424  0.00  0.00    +0.000 C 
ATOM      8  C   UNL     1       5.114   5.373  16.632  0.00  0.00    +0.000 C 
ATOM      9  C   UNL     1       6.466   4.739  16.997  0.00  0.00    +0.000 C 
ATOM     10  O   UNL     1       7.577   5.612  16.773  0.00  0.00    +0.000 OA
ATOM     11  C   UNL     1       7.417   6.788  17.576  0.00  0.00    +0.000 C 
ATOM     12  C   UNL     1       6.232   7.634  17.092  0.00  0.00    +0.000 C 
ATOM     13  N   UNL     1       5.035   6.832  16.845  0.00  0.00    +0.000 N 
ENDROOT
BRANCH   1  20
ATOM     14  C   UNL     1       0.821   3.854  17.607  0.00  0.00    +0.000 C 
ATOM     15  C   UNL     1       1.662   3.634  18.862  0.00  0.00    +0.000 C 
ATOM     16  C   UNL     1       0.979   2.593  19.786  0.00  0.00    +0.000 C 
ATOM     17  O   UNL     1       1.838   2.235  20.885  0.00  0.00    +0.000 OA
ATOM     18  C   UNL     1       2.207   3.397  21.651  0.00  0.00    +0.000 C 
ATOM     19  C   UNL     1       2.869   4.480  20.776  0.00  0.00    +0.000 C 
ATOM     20  N   UNL     1       1.912   4.854  19.706  0.00  0.00    +0.000 N 
ENDBRANCH   1  20
BRANCH   3  21
ATOM     21  C   UNL     1       1.369   9.447  18.324  0.00  0.00    +0.000 A 
ATOM     22  C   UNL     1       1.819  10.727  18.613  0.00  0.00    +0.000 A 
ATOM     23  N   UNL     1       1.076  11.860  18.491  0.00  0.00    +0.000 NA
ATOM     24  C   UNL     1      -0.201  11.749  18.075  0.00  0.00    +0.000 A 
ATOM     25  C   UNL     1      -0.782  10.524  17.797  0.00  0.00    +0.000 A 
ATOM     26  C   UNL     1       0.024   9.373  17.929  0.00  0.00    +0.000 A 
BRANCH  25  27
ATOM     27  C   UNL     1      -2.211  10.367  17.377  0.00  0.00    +0.000 C 
ATOM     28  F   UNL     1      -3.048  11.379  17.746  0.00  0.00    +0.000 F 
ATOM     29  F   UNL     1      -2.349  10.244  16.026  0.00  0.00    +0.000 F 
ATOM     30  F   UNL     1      -2.775   9.239  17.903  0.00  0.00    +0.000 F 
ENDBRANCH  25  27
BRANCH  24  31
ATOM     31  N   UNL     1      -0.834  12.960  17.852  0.00  0.00    +0.000 N 
ATOM     32  H   UNL     1      -1.829  12.785  17.743  0.00  0.00    +0.000 HD
ATOM     33  H   UNL     1      -0.444  13.518  17.101  0.00  0.00    +0.000 HD
ENDBRANCH  24  31
ENDBRANCH   3  21
TORSDOF 4
ENDMDL
