MODEL 1
REMARK VINA RESULT:      -7.3      0.000      0.000
REMARK  Name = 
REMARK  7 active torsions:
REMARK  status: ('A' for Active; 'I' for Inactive)
REMARK    1  A    between atoms: C_2  and  C_3
REMARK    2  A    between atoms: C_3  and  C_4
REMARK    3  A    between atoms: C_4  and  N_5
REMARK    4  A    between atoms: N_5  and  C_6
REMARK    5  A    between atoms: C_6  and  C_7
REMARK    6  A    between atoms: N_13  and  C_14
REMARK    7  A    between atoms: C_14  and  C_15
REMARK                            x       y       z     vdW  Elec       q    Type
REMARK                         _______ _______ _______ _____ _____    ______ ____
ROOT
ATOM      1  O   UNL     1       7.736   7.187  16.677  0.00  0.00    +0.000 OA
ATOM      2  C   UNL     1       7.897   7.252  17.891  0.00  0.00    +0.000 C 
ATOM      3  N   UNL     1       8.257   8.407  18.547  0.00  0.00    +0.000 N 
ATOM      4  H   UNL     1       8.335   8.407  19.554  0.00  0.00    +0.000 HD
ENDROOT
BRANCH   2   5
ATOM      5  C   UNL     1       7.717   6.064  18.818  0.00  0.00    +0.000 C 
BRANCH   5   6
ATOM      6  C   UNL     1       7.679   4.760  18.024  0.00  0.00    +0.000 C 
BRANCH   6   7
ATOM      7  N   UNL     1       6.333   4.174  18.047  0.00  0.00    +0.000 NA
ATOM      8  H   UNL     1       6.397   3.175  18.243  0.00  0.00    +0.000 HD
BRANCH   7   9
ATOM      9  C   UNL     1       5.522   4.803  19.094  0.00  0.00    +0.000 C 
BRANCH   9  10
ATOM     10  C   UNL     1       4.063   4.477  18.922  0.00  0.00    +0.000 A 
ATOM     11  C   UNL     1       3.506   4.235  17.663  0.00  0.00    +0.000 A 
ATOM     12  C   UNL     1       2.156   3.915  17.554  0.00  0.00    +0.000 A 
ATOM     13  C   UNL     1       1.401   3.854  18.713  0.00  0.00    +0.000 A 
ATOM     14  N   UNL     1       1.895   4.099  19.946  0.00  0.00    +0.000 NA
ATOM     15  C   UNL     1       3.210   4.407  20.020  0.00  0.00    +0.000 A 
ENDBRANCH   9  10
ENDBRANCH   7   9
ENDBRANCH   6   7
ENDBRANCH   5   6
ENDBRANCH   2   5
BRANCH   3  16
ATOM     16  C   UNL     1       8.457   9.661  17.852  0.00  0.00    +0.000 C 
BRANCH  16  17
ATOM     17  C   UNL     1       9.403  10.552  18.613  0.00  0.00    +0.000 A 
ATOM     18  C   UNL     1      10.432  11.240  17.954  0.00  0.00    +0.000 A 
ATOM     19  C   UNL     1      11.317  12.048  18.673  0.00  0.00    +0.000 A 
ATOM     20  C   UNL     1      11.179  12.181  20.053  0.00  0.00    +0.000 A 
ATOM     21  C   UNL     1      10.162  11.501  20.718  0.00  0.00    +0.000 A 
ATOM     22  C   UNL     1       9.283  10.683  20.004  0.00  0.00    +0.000 A 
ENDBRANCH  16  17
ENDBRANCH   3  16
TORSDOF 7
ENDMDL
MODEL 2
REMARK VINA RESULT:      -7.2      1.028      1.220
REMARK  Name = 
REMARK  7 active torsions:
REMARK  status: ('A' for Active; 'I' for Inactive)
REMARK    1  A    between atoms: C_2  and  C_3
REMARK    2  A    between atoms: C_3  and  C_4
REMARK    3  A    between atoms: C_4  and  N_5
REMARK    4  A    between atoms: N_5  and  C_6
REMARK    5  A    between atoms: C_6  and  C_7
REMARK    6  A    between atoms: N_13  and  C_14
REMARK    7  A    between atoms: C_14  and  C_15
REMARK                            x       y       z     vdW  Elec       q    Type
REMARK                         _______ _______ _______ _____ _____    ______ ____
ROOT
ATOM      1  O   UNL     1       7.122   7.573  16.992  0.00  0.00    +0.000 OA
ATOM      2  C   UNL     1       7.803   7.428  18.003  0.00  0.00    +0.000 C 
ATOM      3  N   UNL     1       8.505   8.452  18.595  0.00  0.00    +0.000 N 
ATOM      4  H   UNL     1       9.016   8.280  19.449  0.00  0.00    +0.000 HD
ENDROOT
BRANCH   2   5
ATOM      5  C   UNL     1       7.952   6.101  18.722  0.00  0.00    +0.000 C 
BRANCH   5   6
ATOM      6  C   UNL     1       6.587   5.559  19.143  0.00  0.00    +0.000 C 
BRANCH   6   7
ATOM      7  N   UNL     1       5.949   4.834  18.037  0.00  0.00    +0.000 NA
ATOM      8  H   UNL     1       5.891   3.841  18.266  0.00  0.00    +0.000 HD
BRANCH   7   9
ATOM      9  C   UNL     1       4.592   5.341  17.812  0.00  0.00    +0.000 C 
BRANCH   9  10
ATOM     10  C   UNL     1       3.569   4.250  17.981  0.00  0.00    +0.000 A 
ATOM     11  C   UNL     1       3.933   2.948  18.337  0.00  0.00    +0.000 A 
ATOM     12  C   UNL     1       2.949   1.977  18.505  0.00  0.00    +0.000 A 
ATOM     13  C   UNL     1       1.629   2.340  18.304  0.00  0.00    +0.000 A 
ATOM     14  N   UNL     1       1.236   3.581  17.942  0.00  0.00    +0.000 NA
ATOM     15  C   UNL     1       2.214   4.502  17.787  0.00  0.00    +0.000 A 
ENDBRANCH   9  10
ENDBRANCH   7   9
ENDBRANCH   6   7
ENDBRANCH   5   6
ENDBRANCH   2   5
BRANCH   3  16
ATOM     16  C   UNL     1       8.481   9.806  18.082  0.00  0.00    +0.000 C 
BRANCH  16  17
ATOM     17  C   UNL     1       9.508  10.662  18.775  0.00  0.00    +0.000 A 
ATOM     18  C   UNL     1      10.623  11.154  18.082  0.00  0.00    +0.000 A 
ATOM     19  C   UNL     1      11.580  11.931  18.740  0.00  0.00    +0.000 A 
ATOM     20  C   UNL     1      11.430  12.227  20.093  0.00  0.00    +0.000 A 
ATOM     21  C   UNL     1      10.327  11.742  20.793  0.00  0.00    +0.000 A 
ATOM     22  C   UNL     1       9.376  10.955  20.141  0.00  0.00    +0.000 A 
ENDBRANCH  16  17
ENDBRANCH   3  16
TORSDOF 7
ENDMDL
MODEL 3
REMARK VINA RESULT:      -7.1      0.993      1.566
REMARK  Name = 
REMARK  7 active torsions:
REMARK  status: ('A' for Active; 'I' for Inactive)
REMARK    1  A    between atoms: C_2  and  C_3
REMARK    2  A    between atoms: C_3  and  C_4
REMARK    3  A    between atoms: C_4  and  N_5
REMARK    4  A    between atoms: N_5  and  C_6
REMARK    5  A    between atoms: C_6  and  C_7
REMARK    6  A    between atoms: N_13  and  C_14
REMARK    7  A    between atoms: C_14  and  C_15
REMARK                            x       y       z     vdW  Elec       q    Type
REMARK                         _______ _______ _______ _____ _____    ______ ____
ROOT
ATOM      1  O   UNL     1       6.878   7.580  16.928  0.00  0.00    +0.000 OA
ATOM      2  C   UNL     1       7.599   7.389  17.902  0.00  0.00    +0.000 C 
ATOM      3  N   UNL     1       8.412   8.359  18.443  0.00  0.00    +0.000 N 
ATOM      4  H   UNL     1       8.953   8.153  19.271  0.00  0.00    +0.000 HD
ENDROOT
BRANCH   2   5
ATOM      5  C   UNL     1       7.680   6.061  18.630  0.00  0.00    +0.000 C 
BRANCH   5   6
ATOM      6  C   UNL     1       7.366   4.905  17.680  0.00  0.00    +0.000 C 
BRANCH   6   7
ATOM      7  N   UNL     1       5.937   4.879  17.344  0.00  0.00    +0.000 NA
ATOM      8  H   UNL     1       5.714   4.007  16.863  0.00  0.00    +0.000 HD
BRANCH   7   9
ATOM      9  C   UNL     1       5.126   4.959  18.564  0.00  0.00    +0.000 C 
BRANCH   9  10
ATOM     10  C   UNL     1       3.928   4.052  18.481  0.00  0.00    +0.000 A 
ATOM     11  C   UNL     1       3.942   2.763  19.023  0.00  0.00    +0.000 A 
ATOM     12  C   UNL     1       2.802   1.968  18.942  0.00  0.00    +0.000 A 
ATOM     13  C   UNL     1       1.683   2.487  18.314  0.00  0.00    +0.000 A 
ATOM     14  N   UNL     1       1.634   3.719  17.762  0.00  0.00    +0.000 NA
ATOM     15  C   UNL     1       2.756   4.468  17.855  0.00  0.00    +0.000 A 
ENDBRANCH   9  10
ENDBRANCH   7   9
ENDBRANCH   6   7
ENDBRANCH   5   6
ENDBRANCH   2   5
BRANCH   3  16
ATOM     16  C   UNL     1       8.469   9.705  17.915  0.00  0.00    +0.000 C 
BRANCH  16  17
ATOM     17  C   UNL     1       9.437  10.551  18.701  0.00  0.00    +0.000 A 
ATOM     18  C   UNL     1       9.278  10.732  20.082  0.00  0.00    +0.000 A 
ATOM     19  C   UNL     1      10.169  11.536  20.797  0.00  0.00    +0.000 A 
ATOM     20  C   UNL     1      11.229  12.160  20.142  0.00  0.00    +0.000 A 
ATOM     21  C   UNL     1      11.395  11.988  18.770  0.00  0.00    +0.000 A 
ATOM     22  C   UNL     1      10.498  11.196  18.050  0.00  0.00    +0.000 A 
ENDBRANCH  16  17
ENDBRANCH   3  16
TORSDOF 7
ENDMDL
MODEL 4
REMARK VINA RESULT:      -7.0      4.380      7.103
REMARK  Name = 
REMARK  7 active torsions:
REMARK  status: ('A' for Active; 'I' for Inactive)
REMARK    1  A    between atoms: C_2  and  C_3
REMARK    2  A    between atoms: C_3  and  C_4
REMARK    3  A    between atoms: C_4  and  N_5
REMARK    4  A    between atoms: N_5  and  C_6
REMARK    5  A    between atoms: C_6  and  C_7
REMARK    6  A    between atoms: N_13  and  C_14
REMARK    7  A    between atoms: C_14  and  C_15
REMARK                            x       y       z     vdW  Elec       q    Type
REMARK                         _______ _______ _______ _____ _____    ______ ____
ROOT
ATOM      1  O   UNL     1       1.759   3.099  21.355  0.00  0.00    +0.000 OA
ATOM      2  C   UNL     1       1.518   3.390  20.188  0.00  0.00    +0.000 C 
ATOM      3  N   UNL     1       1.609   4.671  19.694  0.00  0.00    +0.000 N 
ATOM      4  H   UNL     1       1.438   4.843  18.713  0.00  0.00    +0.000 HD
ENDROOT
BRANCH   2   5
ATOM      5  C   UNL     1       1.093   2.372  19.147  0.00  0.00    +0.000 C 
BRANCH   5   6
ATOM      6  C   UNL     1       2.223   2.113  18.152  0.00  0.00    +0.000 C 
BRANCH   6   7
ATOM      7  N   UNL     1       3.440   2.835  18.544  0.00  0.00    +0.000 NA
ATOM      8  H   UNL     1       4.079   2.197  19.020  0.00  0.00    +0.000 HD
BRANCH   7   9
ATOM      9  C   UNL     1       4.116   3.375  17.360  0.00  0.00    +0.000 C 
BRANCH   9  10
ATOM     10  C   UNL     1       5.314   4.200  17.746  0.00  0.00    +0.000 A 
ATOM     11  C   UNL     1       5.436   4.771  19.017  0.00  0.00    +0.000 A 
ATOM     12  C   UNL     1       6.573   5.508  19.336  0.00  0.00    +0.000 A 
ATOM     13  C   UNL     1       7.553   5.655  18.369  0.00  0.00    +0.000 A 
ATOM     14  N   UNL     1       7.466   5.135  17.126  0.00  0.00    +0.000 NA
ATOM     15  C   UNL     1       6.350   4.425  16.844  0.00  0.00    +0.000 A 
ENDBRANCH   9  10
ENDBRANCH   7   9
ENDBRANCH   6   7
ENDBRANCH   5   6
ENDBRANCH   2   5
BRANCH   3  16
ATOM     16  C   UNL     1       2.020   5.791  20.514  0.00  0.00    +0.000 C 
BRANCH  16  17
ATOM     17  C   UNL     1       2.006   7.072  19.723  0.00  0.00    +0.000 A 
ATOM     18  C   UNL     1       1.387   8.224  20.228  0.00  0.00    +0.000 A 
ATOM     19  C   UNL     1       1.361   9.402  19.476  0.00  0.00    +0.000 A 
ATOM     20  C   UNL     1       1.958   9.441  18.218  0.00  0.00    +0.000 A 
ATOM     21  C   UNL     1       2.574   8.302  17.705  0.00  0.00    +0.000 A 
ATOM     22  C   UNL     1       2.590   7.120  18.448  0.00  0.00    +0.000 A 
ENDBRANCH  16  17
ENDBRANCH   3  16
TORSDOF 7
ENDMDL
MODEL 5
REMARK VINA RESULT:      -7.0      3.957      6.928
REMARK  Name = 
REMARK  7 active torsions:
REMARK  status: ('A' for Active; 'I' for Inactive)
REMARK    1  A    between atoms: C_2  and  C_3
REMARK    2  A    between atoms: C_3  and  C_4
REMARK    3  A    between atoms: C_4  and  N_5
REMARK    4  A    between atoms: N_5  and  C_6
REMARK    5  A    between atoms: C_6  and  C_7
REMARK    6  A    between atoms: N_13  and  C_14
REMARK    7  A    between atoms: C_14  and  C_15
REMARK                            x       y       z     vdW  Elec       q    Type
REMARK                         _______ _______ _______ _____ _____    ______ ____
ROOT
ATOM      1  O   UNL     1       3.710   2.527  20.879  0.00  0.00    +0.000 OA
ATOM      2  C   UNL     1       2.952   2.738  19.938  0.00  0.00    +0.000 C 
ATOM      3  N   UNL     1       2.232   3.901  19.792  0.00  0.00    +0.000 N 
ATOM      4  H   UNL     1       1.654   4.033  18.974  0.00  0.00    +0.000 HD
ENDROOT
BRANCH   2   5
ATOM      5  C   UNL     1       2.718   1.741  18.819  0.00  0.00    +0.000 C 
BRANCH   5   6
ATOM      6  C   UNL     1       3.014   2.374  17.460  0.00  0.00    +0.000 C 
BRANCH   6   7
ATOM      7  N   UNL     1       4.420   2.791  17.375  0.00  0.00    +0.000 NA
ATOM      8  H   UNL     1       4.918   2.183  16.724  0.00  0.00    +0.000 HD
BRANCH   7   9
ATOM      9  C   UNL     1       4.513   4.171  16.888  0.00  0.00    +0.000 C 
BRANCH   9  10
ATOM     10  C   UNL     1       5.642   4.909  17.556  0.00  0.00    +0.000 A 
ATOM     11  C   UNL     1       6.469   5.787  16.849  0.00  0.00    +0.000 A 
ATOM     12  C   UNL     1       7.487   6.464  17.514  0.00  0.00    +0.000 A 
ATOM     13  C   UNL     1       7.650   6.236  18.869  0.00  0.00    +0.000 A 
ATOM     14  N   UNL     1       6.885   5.384  19.586  0.00  0.00    +0.000 NA
ATOM     15  C   UNL     1       5.905   4.740  18.913  0.00  0.00    +0.000 A 
ENDBRANCH   9  10
ENDBRANCH   7   9
ENDBRANCH   6   7
ENDBRANCH   5   6
ENDBRANCH   2   5
BRANCH   3  16
ATOM     16  C   UNL     1       2.325   4.993  20.738  0.00  0.00    +0.000 C 
BRANCH  16  17
ATOM     17  C   UNL     1       2.132   6.319  20.049  0.00  0.00    +0.000 A 
ATOM     18  C   UNL     1       2.499   6.495  18.707  0.00  0.00    +0.000 A 
ATOM     19  C   UNL     1       2.334   7.735  18.085  0.00  0.00    +0.000 A 
ATOM     20  C   UNL     1       1.798   8.807  18.794  0.00  0.00    +0.000 A 
ATOM     21  C   UNL     1       1.432   8.646  20.128  0.00  0.00    +0.000 A 
ATOM     22  C   UNL     1       1.607   7.411  20.757  0.00  0.00    +0.000 A 
ENDBRANCH  16  17
ENDBRANCH   3  16
TORSDOF 7
ENDMDL
MODEL 6
REMARK VINA RESULT:      -6.9      3.874      6.983
REMARK  Name = 
REMARK  7 active torsions:
REMARK  status: ('A' for Active; 'I' for Inactive)
REMARK    1  A    between atoms: C_2  and  C_3
REMARK    2  A    between atoms: C_3  and  C_4
REMARK    3  A    between atoms: C_4  and  N_5
REMARK    4  A    between atoms: N_5  and  C_6
REMARK    5  A    between atoms: C_6  and  C_7
REMARK    6  A    between atoms: N_13  and  C_14
REMARK    7  A    between atoms: C_14  and  C_15
REMARK                            x       y       z     vdW  Elec       q    Type
REMARK                         _______ _______ _______ _____ _____    ______ ____
ROOT
ATOM      1  O   UNL     1       1.092   3.774  19.630  0.00  0.00    +0.000 OA
ATOM      2  C   UNL     1       1.872   4.115  18.747  0.00  0.00    +0.000 C 
ATOM      3  N   UNL     1       2.626   5.265  18.806  0.00  0.00    +0.000 N 
ATOM      4  H   UNL     1       3.281   5.472  18.066  0.00  0.00    +0.000 HD
ENDROOT
BRANCH   2   5
ATOM      5  C   UNL     1       2.100   3.309  17.482  0.00  0.00    +0.000 C 
BRANCH   5   6
ATOM      6  C   UNL     1       3.204   2.274  17.694  0.00  0.00    +0.000 C 
BRANCH   6   7
ATOM      7  N   UNL     1       4.483   2.929  17.997  0.00  0.00    +0.000 NA
ATOM      8  H   UNL     1       5.171   2.226  18.269  0.00  0.00    +0.000 HD
BRANCH   7   9
ATOM      9  C   UNL     1       4.983   3.640  16.817  0.00  0.00    +0.000 C 
BRANCH   9  10
ATOM     10  C   UNL     1       5.939   4.735  17.207  0.00  0.00    +0.000 A 
ATOM     11  C   UNL     1       6.326   4.936  18.535  0.00  0.00    +0.000 A 
ATOM     12  C   UNL     1       7.230   5.949  18.846  0.00  0.00    +0.000 A 
ATOM     13  C   UNL     1       7.716   6.733  17.814  0.00  0.00    +0.000 A 
ATOM     14  N   UNL     1       7.354   6.584  16.521  0.00  0.00    +0.000 NA
ATOM     15  C   UNL     1       6.474   5.593  16.250  0.00  0.00    +0.000 A 
ENDBRANCH   9  10
ENDBRANCH   7   9
ENDBRANCH   6   7
ENDBRANCH   5   6
ENDBRANCH   2   5
BRANCH   3  16
ATOM     16  C   UNL     1       2.577   6.166  19.938  0.00  0.00    +0.000 C 
BRANCH  16  17
ATOM     17  C   UNL     1       2.099   7.532  19.517  0.00  0.00    +0.000 A 
ATOM     18  C   UNL     1       1.385   8.350  20.404  0.00  0.00    +0.000 A 
ATOM     19  C   UNL     1       0.929   9.606  19.997  0.00  0.00    +0.000 A 
ATOM     20  C   UNL     1       1.187  10.059  18.705  0.00  0.00    +0.000 A 
ATOM     21  C   UNL     1       1.894   9.254  17.814  0.00  0.00    +0.000 A 
ATOM     22  C   UNL     1       2.340   7.992  18.215  0.00  0.00    +0.000 A 
ENDBRANCH  16  17
ENDBRANCH   3  16
TORSDOF 7
ENDMDL
MODEL 7
REMARK VINA RESULT:      -6.9      4.518      5.716
REMARK  Name = 
REMARK  7 active torsions:
REMARK  status: ('A' for Active; 'I' for Inactive)
REMARK    1  A    between atoms: C_2  and  C_3
REMARK    2  A    between atoms: C_3  and  C_4
REMARK    3  A    between atoms: C_4  and  N_5
REMARK    4  A    between atoms: N_5  and  C_6
REMARK    5  A    between atoms: C_6  and  C_7
REMARK    6  A    between atoms: N_13  and  C_14
REMARK    7  A    between atoms: C_14  and  C_15
REMARK                            x       y       z     vdW  Elec       q    Type
REMARK                         _______ _______ _______ _____ _____    ______ ____
ROOT
ATOM      1  O   UNL     1       5.202   6.802  15.787  0.00  0.00    +0.000 OA
ATOM      2  C   UNL     1       5.135   6.514  16.978  0.00  0.00    +0.000 C 
ATOM      3  N   UNL     1       4.115   6.933  17.801  0.00  0.00    +0.000 N 
ATOM      4  H   UNL     1       4.093   6.630  18.765  0.00  0.00    +0.000 HD
ENDROOT
BRANCH   2   5
ATOM      5  C   UNL     1       6.168   5.659  17.686  0.00  0.00    +0.000 C 
BRANCH   5   6
ATOM      6  C   UNL     1       5.590   4.289  18.034  0.00  0.00    +0.000 C 
BRANCH   6   7
ATOM      7  N   UNL     1       4.370   4.025  17.259  0.00  0.00    +0.000 NA
ATOM      8  H   UNL     1       4.611   3.897  16.275  0.00  0.00    +0.000 HD
BRANCH   7   9
ATOM      9  C   UNL     1       3.714   2.806  17.741  0.00  0.00    +0.000 C 
BRANCH   9  10
ATOM     10  C   UNL     1       2.940   3.068  19.005  0.00  0.00    +0.000 A 
ATOM     11  C   UNL     1       1.798   3.874  19.015  0.00  0.00    +0.000 A 
ATOM     12  C   UNL     1       1.101   4.071  20.204  0.00  0.00    +0.000 A 
ATOM     13  C   UNL     1       1.575   3.457  21.351  0.00  0.00    +0.000 A 
ATOM     14  N   UNL     1       2.684   2.686  21.388  0.00  0.00    +0.000 NA
ATOM     15  C   UNL     1       3.339   2.514  20.218  0.00  0.00    +0.000 A 
ENDBRANCH   9  10
ENDBRANCH   7   9
ENDBRANCH   6   7
ENDBRANCH   5   6
ENDBRANCH   2   5
BRANCH   3  16
ATOM     16  C   UNL     1       3.014   7.740  17.321  0.00  0.00    +0.000 C 
BRANCH  16  17
ATOM     17  C   UNL     1       2.178   8.247  18.467  0.00  0.00    +0.000 A 
ATOM     18  C   UNL     1       1.423   9.422  18.344  0.00  0.00    +0.000 A 
ATOM     19  C   UNL     1       0.668   9.895  19.420  0.00  0.00    +0.000 A 
ATOM     20  C   UNL     1       0.656   9.197  20.626  0.00  0.00    +0.000 A 
ATOM     21  C   UNL     1       1.405   8.030  20.761  0.00  0.00    +0.000 A 
ATOM     22  C   UNL     1       2.170   7.562  19.691  0.00  0.00    +0.000 A 
ENDBRANCH  16  17
ENDBRANCH   3  16
TORSDOF 7
ENDMDL
MODEL 8
REMARK VINA RESULT:      -6.9      3.670      6.925
REMARK  Name = 
REMARK  7 active torsions:
REMARK  status: ('A' for Active; 'I' for Inactive)
REMARK    1  A    between atoms: C_2  and  C_3
REMARK    2  A    between atoms: C_3  and  C_4
REMARK    3  A    between atoms: C_4  and  N_5
REMARK    4  A    between atoms: N_5  and  C_6
REMARK    5  A    between atoms: C_6  and  C_7
REMARK    6  A    between atoms: N_13  and  C_14
REMARK    7  A    between atoms: C_14  and  C_15
REMARK                            x       y       z     vdW  Elec       q    Type
REMARK                         _______ _______ _______ _____ _____    ______ ____
ROOT
ATOM      1  O   UNL     1       3.297   5.030  20.033  0.00  0.00    +0.000 OA
ATOM      2  C   UNL     1       2.675   4.904  18.983  0.00  0.00    +0.000 C 
ATOM      3  N   UNL     1       2.513   5.923  18.073  0.00  0.00    +0.000 N 
ATOM      4  H   UNL     1       2.025   5.748  17.206  0.00  0.00    +0.000 HD
ENDROOT
BRANCH   2   5
ATOM      5  C   UNL     1       2.010   3.608  18.560  0.00  0.00    +0.000 C 
BRANCH   5   6
ATOM      6  C   UNL     1       2.834   2.904  17.483  0.00  0.00    +0.000 C 
BRANCH   6   7
ATOM      7  N   UNL     1       4.271   3.066  17.737  0.00  0.00    +0.000 NA
ATOM      8  H   UNL     1       4.702   2.149  17.862  0.00  0.00    +0.000 HD
BRANCH   7   9
ATOM      9  C   UNL     1       4.917   3.734  16.603  0.00  0.00    +0.000 C 
BRANCH   9  10
ATOM     10  C   UNL     1       5.830   4.835  17.069  0.00  0.00    +0.000 A 
ATOM     11  C   UNL     1       6.517   4.758  18.284  0.00  0.00    +0.000 A 
ATOM     12  C   UNL     1       7.368   5.792  18.664  0.00  0.00    +0.000 A 
ATOM     13  C   UNL     1       7.503   6.876  17.814  0.00  0.00    +0.000 A 
ATOM     14  N   UNL     1       6.845   6.998  16.640  0.00  0.00    +0.000 NA
ATOM     15  C   UNL     1       6.024   5.979  16.299  0.00  0.00    +0.000 A 
ENDBRANCH   9  10
ENDBRANCH   7   9
ENDBRANCH   6   7
ENDBRANCH   5   6
ENDBRANCH   2   5
BRANCH   3  16
ATOM     16  C   UNL     1       3.088   7.237  18.271  0.00  0.00    +0.000 C 
BRANCH  16  17
ATOM     17  C   UNL     1       2.058   8.201  18.799  0.00  0.00    +0.000 A 
ATOM     18  C   UNL     1       1.693   8.196  20.153  0.00  0.00    +0.000 A 
ATOM     19  C   UNL     1       0.722   9.081  20.628  0.00  0.00    +0.000 A 
ATOM     20  C   UNL     1       0.110   9.981  19.757  0.00  0.00    +0.000 A 
ATOM     21  C   UNL     1       0.462   9.993  18.410  0.00  0.00    +0.000 A 
ATOM     22  C   UNL     1       1.424   9.101  17.930  0.00  0.00    +0.000 A 
ENDBRANCH  16  17
ENDBRANCH   3  16
TORSDOF 7
ENDMDL
MODEL 9
REMARK VINA RESULT:      -6.9      4.011      5.460
REMARK  Name = 
REMARK  7 active torsions:
REMARK  status: ('A' for Active; 'I' for Inactive)
REMARK    1  A    between atoms: C_2  and  C_3
REMARK    2  A    between atoms: C_3  and  C_4
REMARK    3  A    between atoms: C_4  and  N_5
REMARK    4  A    between atoms: N_5  and  C_6
REMARK    5  A    between atoms: C_6  and  C_7
REMARK    6  A    between atoms: N_13  and  C_14
REMARK    7  A    between atoms: C_14  and  C_15
REMARK                            x       y       z     vdW  Elec       q    Type
REMARK                         _______ _______ _______ _____ _____    ______ ____
ROOT
ATOM      1  O   UNL     1       5.289   5.650  15.697  0.00  0.00    +0.000 OA
ATOM      2  C   UNL     1       5.608   6.224  16.733  0.00  0.00    +0.000 C 
ATOM      3  N   UNL     1       4.741   7.004  17.464  0.00  0.00    +0.000 N 
ATOM      4  H   UNL     1       5.052   7.419  18.332  0.00  0.00    +0.000 HD
ENDROOT
BRANCH   2   5
ATOM      5  C   UNL     1       6.998   6.143  17.335  0.00  0.00    +0.000 C 
BRANCH   5   6
ATOM      6  C   UNL     1       7.136   4.899  18.211  0.00  0.00    +0.000 C 
BRANCH   6   7
ATOM      7  N   UNL     1       5.966   4.024  18.062  0.00  0.00    +0.000 NA
ATOM      8  H   UNL     1       6.272   3.079  17.828  0.00  0.00    +0.000 HD
BRANCH   7   9
ATOM      9  C   UNL     1       5.206   3.971  19.316  0.00  0.00    +0.000 C 
BRANCH   9  10
ATOM     10  C   UNL     1       3.761   3.638  19.063  0.00  0.00    +0.000 A 
ATOM     11  C   UNL     1       2.858   3.431  20.110  0.00  0.00    +0.000 A 
ATOM     12  C   UNL     1       1.525   3.147  19.828  0.00  0.00    +0.000 A 
ATOM     13  C   UNL     1       1.137   3.072  18.501  0.00  0.00    +0.000 A 
ATOM     14  N   UNL     1       1.980   3.247  17.460  0.00  0.00    +0.000 NA
ATOM     15  C   UNL     1       3.269   3.521  17.766  0.00  0.00    +0.000 A 
ENDBRANCH   9  10
ENDBRANCH   7   9
ENDBRANCH   6   7
ENDBRANCH   5   6
ENDBRANCH   2   5
BRANCH   3  16
ATOM     16  C   UNL     1       3.360   7.196  17.079  0.00  0.00    +0.000 C 
BRANCH  16  17
ATOM     17  C   UNL     1       2.559   7.776  18.216  0.00  0.00    +0.000 A 
ATOM     18  C   UNL     1       1.931   9.023  18.093  0.00  0.00    +0.000 A 
ATOM     19  C   UNL     1       1.208   9.560  19.161  0.00  0.00    +0.000 A 
ATOM     20  C   UNL     1       1.101   8.855  20.358  0.00  0.00    +0.000 A 
ATOM     21  C   UNL     1       1.723   7.616  20.493  0.00  0.00    +0.000 A 
ATOM     22  C   UNL     1       2.457   7.082  19.431  0.00  0.00    +0.000 A 
ENDBRANCH  16  17
ENDBRANCH   3  16
TORSDOF 7
ENDMDL
