MODEL 1
REMARK VINA RESULT:      -6.4      0.000      0.000
REMARK  Name = 
REMARK  7 active torsions:
REMARK  status: ('A' for Active; 'I' for Inactive)
REMARK    1  A    between atoms: C_1  and  C_2
REMARK    2  A    between atoms: C_8  and  S_9
REMARK    3  A    between atoms: S_9  and  C_10
REMARK    4  A    between atoms: C_10  and  C_11
REMARK    5  A    between atoms: N_13  and  S_14
REMARK    6  A    between atoms: S_14  and  C_15
REMARK    7  A    between atoms: C_19  and  C_20
REMARK                            x       y       z     vdW  Elec       q    Type
REMARK                         _______ _______ _______ _____ _____    ______ ____
ROOT
ATOM      1  C   UNL     1       5.213   4.088  15.921  0.00  0.00    +0.000 C 
ATOM      2  C   UNL     1       4.280   4.141  17.090  0.00  0.00    +0.000 A 
ATOM      3  S   UNL     1       3.662   2.695  17.737  0.00  0.00    +0.000 S 
ATOM      4  C   UNL     1       2.775   3.527  18.921  0.00  0.00    +0.000 A 
ATOM      5  N   UNL     1       2.033   2.824  19.790  0.00  0.00    +0.000 NA
ATOM      6  C   UNL     1       1.393   3.586  20.667  0.00  0.00    +0.000 A 
ATOM      7  N   UNL     1       1.439   4.925  20.759  0.00  0.00    +0.000 NA
ATOM      8  C   UNL     1       2.174   5.602  19.843  0.00  0.00    +0.000 A 
ATOM      9  C   UNL     1       2.917   4.910  18.859  0.00  0.00    +0.000 A 
ATOM     10  C   UNL     1       3.821   5.268  17.765  0.00  0.00    +0.000 A 
ATOM     11  C   UNL     1       4.264   6.640  17.348  0.00  0.00    +0.000 C 
ENDROOT
BRANCH   8  12
ATOM     12  S   UNL     1       2.124   7.371  19.894  0.00  0.00    +0.000 S 
BRANCH  12  13
ATOM     13  C   UNL     1       0.888   7.702  21.187  0.00  0.00    +0.000 C 
BRANCH  13  14
ATOM     14  C   UNL     1       1.020   9.107  21.732  0.00  0.00    +0.000 C 
ATOM     15  O   UNL     1       1.788   9.395  22.639  0.00  0.00    +0.000 OA
ATOM     16  N   UNL     1       0.129  10.034  21.173  0.00  0.00    +0.000 N 
ATOM     17  H   UNL     1      -0.620   9.697  20.569  0.00  0.00    +0.000 HD
BRANCH  16  18
ATOM     18  S   UNL     1      -0.025  11.618  21.608  0.00  0.00    +0.000 S 
ATOM     19  C   UNL     1      -1.291  12.222  20.505  0.00  0.00    +0.000 C 
ATOM     20  O   UNL     1      -0.492  11.688  22.974  0.00  0.00    +0.000 OA
ATOM     21  O   UNL     1       1.228  12.232  21.216  0.00  0.00    +0.000 OA
ENDBRANCH  16  18
ENDBRANCH  13  14
ENDBRANCH  12  13
ENDBRANCH   8  12
TORSDOF 4
ENDMDL
MODEL 2
REMARK VINA RESULT:      -6.4      5.732      8.679
REMARK  Name = 
REMARK  7 active torsions:
REMARK  status: ('A' for Active; 'I' for Inactive)
REMARK    1  A    between atoms: C_1  and  C_2
REMARK    2  A    between atoms: C_8  and  S_9
REMARK    3  A    between atoms: S_9  and  C_10
REMARK    4  A    between atoms: C_10  and  C_11
REMARK    5  A    between atoms: N_13  and  S_14
REMARK    6  A    between atoms: S_14  and  C_15
REMARK    7  A    between atoms: C_19  and  C_20
REMARK                            x       y       z     vdW  Elec       q    Type
REMARK                         _______ _______ _______ _____ _____    ______ ____
ROOT
ATOM      1  C   UNL     1       1.635   2.587  21.228  0.00  0.00    +0.000 C 
ATOM      2  C   UNL     1       2.226   3.566  20.262  0.00  0.00    +0.000 A 
ATOM      3  S   UNL     1       1.834   5.215  20.391  0.00  0.00    +0.000 S 
ATOM      4  C   UNL     1       2.813   5.620  19.066  0.00  0.00    +0.000 A 
ATOM      5  N   UNL     1       2.891   6.904  18.684  0.00  0.00    +0.000 NA
ATOM      6  C   UNL     1       3.691   7.091  17.642  0.00  0.00    +0.000 A 
ATOM      7  N   UNL     1       4.399   6.157  16.989  0.00  0.00    +0.000 NA
ATOM      8  C   UNL     1       4.270   4.866  17.384  0.00  0.00    +0.000 A 
ATOM      9  C   UNL     1       3.457   4.529  18.490  0.00  0.00    +0.000 A 
ATOM     10  C   UNL     1       3.104   3.305  19.213  0.00  0.00    +0.000 A 
ATOM     11  C   UNL     1       3.578   1.907  18.944  0.00  0.00    +0.000 C 
ENDROOT
BRANCH   8  12
ATOM     12  S   UNL     1       5.107   3.628  16.436  0.00  0.00    +0.000 S 
BRANCH  12  13
ATOM     13  C   UNL     1       6.691   4.428  16.037  0.00  0.00    +0.000 C 
BRANCH  13  14
ATOM     14  C   UNL     1       6.901   4.527  14.542  0.00  0.00    +0.000 C 
ATOM     15  O   UNL     1       7.596   5.393  14.028  0.00  0.00    +0.000 OA
ATOM     16  N   UNL     1       6.165   3.602  13.789  0.00  0.00    +0.000 N 
ATOM     17  H   UNL     1       5.453   3.040  14.255  0.00  0.00    +0.000 HD
BRANCH  16  18
ATOM     18  S   UNL     1       6.120   3.505  12.143  0.00  0.00    +0.000 S 
ATOM     19  C   UNL     1       6.473   1.786  11.826  0.00  0.00    +0.000 C 
ATOM     20  O   UNL     1       4.784   3.823  11.689  0.00  0.00    +0.000 OA
ATOM     21  O   UNL     1       7.262   4.278  11.696  0.00  0.00    +0.000 OA
ENDBRANCH  16  18
ENDBRANCH  13  14
ENDBRANCH  12  13
ENDBRANCH   8  12
TORSDOF 4
ENDMDL
MODEL 3
REMARK VINA RESULT:      -6.0      2.692      3.475
REMARK  Name = 
REMARK  7 active torsions:
REMARK  status: ('A' for Active; 'I' for Inactive)
REMARK    1  A    between atoms: C_1  and  C_2
REMARK    2  A    between atoms: C_8  and  S_9
REMARK    3  A    between atoms: S_9  and  C_10
REMARK    4  A    between atoms: C_10  and  C_11
REMARK    5  A    between atoms: N_13  and  S_14
REMARK    6  A    between atoms: S_14  and  C_15
REMARK    7  A    between atoms: C_19  and  C_20
REMARK                            x       y       z     vdW  Elec       q    Type
REMARK                         _______ _______ _______ _____ _____    ______ ____
ROOT
ATOM      1  C   UNL     1       1.523   1.837  18.955  0.00  0.00    +0.000 C 
ATOM      2  C   UNL     1       2.642   2.826  18.854  0.00  0.00    +0.000 A 
ATOM      3  S   UNL     1       4.177   2.421  19.463  0.00  0.00    +0.000 S 
ATOM      4  C   UNL     1       4.826   3.921  19.006  0.00  0.00    +0.000 A 
ATOM      5  N   UNL     1       6.118   4.176  19.264  0.00  0.00    +0.000 NA
ATOM      6  C   UNL     1       6.506   5.376  18.855  0.00  0.00    +0.000 A 
ATOM      7  N   UNL     1       5.758   6.296  18.226  0.00  0.00    +0.000 NA
ATOM      8  C   UNL     1       4.449   6.015  18.012  0.00  0.00    +0.000 A 
ATOM      9  C   UNL     1       3.908   4.765  18.388  0.00  0.00    +0.000 A 
ATOM     10  C   UNL     1       2.606   4.101  18.297  0.00  0.00    +0.000 A 
ATOM     11  C   UNL     1       1.340   4.636  17.696  0.00  0.00    +0.000 C 
ENDROOT
BRANCH   8  12
ATOM     12  S   UNL     1       3.442   7.285  17.298  0.00  0.00    +0.000 S 
BRANCH  12  13
ATOM     13  C   UNL     1       2.395   7.801  18.694  0.00  0.00    +0.000 C 
BRANCH  13  14
ATOM     14  C   UNL     1       1.757   9.149  18.437  0.00  0.00    +0.000 C 
ATOM     15  O   UNL     1       1.979   9.805  17.429  0.00  0.00    +0.000 OA
ATOM     16  N   UNL     1       0.959   9.624  19.488  0.00  0.00    +0.000 N 
ATOM     17  H   UNL     1       0.972   9.130  20.381  0.00  0.00    +0.000 HD
BRANCH  16  18
ATOM     18  S   UNL     1       0.194  11.084  19.544  0.00  0.00    +0.000 S 
ATOM     19  C   UNL     1      -0.604  11.065  21.139  0.00  0.00    +0.000 C 
ATOM     20  O   UNL     1       1.184  12.137  19.504  0.00  0.00    +0.000 OA
ATOM     21  O   UNL     1      -0.842  10.997  18.534  0.00  0.00    +0.000 OA
ENDBRANCH  16  18
ENDBRANCH  13  14
ENDBRANCH  12  13
ENDBRANCH   8  12
TORSDOF 4
ENDMDL
MODEL 4
REMARK VINA RESULT:      -6.0      4.622      6.927
REMARK  Name = 
REMARK  7 active torsions:
REMARK  status: ('A' for Active; 'I' for Inactive)
REMARK    1  A    between atoms: C_1  and  C_2
REMARK    2  A    between atoms: C_8  and  S_9
REMARK    3  A    between atoms: S_9  and  C_10
REMARK    4  A    between atoms: C_10  and  C_11
REMARK    5  A    between atoms: N_13  and  S_14
REMARK    6  A    between atoms: S_14  and  C_15
REMARK    7  A    between atoms: C_19  and  C_20
REMARK                            x       y       z     vdW  Elec       q    Type
REMARK                         _______ _______ _______ _____ _____    ______ ____
ROOT
ATOM      1  C   UNL     1       1.956   1.666  18.947  0.00  0.00    +0.000 C 
ATOM      2  C   UNL     1       1.998   3.144  19.178  0.00  0.00    +0.000 A 
ATOM      3  S   UNL     1       1.207   3.807  20.529  0.00  0.00    +0.000 S 
ATOM      4  C   UNL     1       1.682   5.383  20.117  0.00  0.00    +0.000 A 
ATOM      5  N   UNL     1       1.304   6.402  20.905  0.00  0.00    +0.000 NA
ATOM      6  C   UNL     1       1.741   7.580  20.480  0.00  0.00    +0.000 A 
ATOM      7  N   UNL     1       2.500   7.819  19.399  0.00  0.00    +0.000 NA
ATOM      8  C   UNL     1       2.834   6.767  18.610  0.00  0.00    +0.000 A 
ATOM      9  C   UNL     1       2.443   5.454  18.954  0.00  0.00    +0.000 A 
ATOM     10  C   UNL     1       2.630   4.111  18.401  0.00  0.00    +0.000 A 
ATOM     11  C   UNL     1       3.393   3.721  17.169  0.00  0.00    +0.000 C 
ENDROOT
BRANCH   8  12
ATOM     12  S   UNL     1       3.724   7.110  17.118  0.00  0.00    +0.000 S 
BRANCH  12  13
ATOM     13  C   UNL     1       5.319   7.731  17.734  0.00  0.00    +0.000 C 
BRANCH  13  14
ATOM     14  C   UNL     1       6.481   7.003  17.094  0.00  0.00    +0.000 C 
ATOM     15  O   UNL     1       7.620   7.449  17.093  0.00  0.00    +0.000 OA
ATOM     16  N   UNL     1       6.130   5.821  16.428  0.00  0.00    +0.000 N 
ATOM     17  H   UNL     1       5.143   5.605  16.290  0.00  0.00    +0.000 HD
BRANCH  16  18
ATOM     18  S   UNL     1       7.152   4.848  15.573  0.00  0.00    +0.000 S 
ATOM     19  C   UNL     1       6.055   3.643  14.847  0.00  0.00    +0.000 C 
ATOM     20  O   UNL     1       7.783   5.627  14.531  0.00  0.00    +0.000 OA
ATOM     21  O   UNL     1       7.945   4.169  16.580  0.00  0.00    +0.000 OA
ENDBRANCH  16  18
ENDBRANCH  13  14
ENDBRANCH  12  13
ENDBRANCH   8  12
TORSDOF 4
ENDMDL
MODEL 5
REMARK VINA RESULT:      -5.9      2.713      3.400
REMARK  Name = 
REMARK  7 active torsions:
REMARK  status: ('A' for Active; 'I' for Inactive)
REMARK    1  A    between atoms: C_1  and  C_2
REMARK    2  A    between atoms: C_8  and  S_9
REMARK    3  A    between atoms: S_9  and  C_10
REMARK    4  A    between atoms: C_10  and  C_11
REMARK    5  A    between atoms: N_13  and  S_14
REMARK    6  A    between atoms: S_14  and  C_15
REMARK    7  A    between atoms: C_19  and  C_20
REMARK                            x       y       z     vdW  Elec       q    Type
REMARK                         _______ _______ _______ _____ _____    ______ ____
ROOT
ATOM      1  C   UNL     1       1.642   1.765  18.907  0.00  0.00    +0.000 C 
ATOM      2  C   UNL     1       2.726   2.793  18.816  0.00  0.00    +0.000 A 
ATOM      3  S   UNL     1       4.273   2.439  19.429  0.00  0.00    +0.000 S 
ATOM      4  C   UNL     1       4.869   3.964  18.985  0.00  0.00    +0.000 A 
ATOM      5  N   UNL     1       6.151   4.263  19.249  0.00  0.00    +0.000 NA
ATOM      6  C   UNL     1       6.497   5.479  18.850  0.00  0.00    +0.000 A 
ATOM      7  N   UNL     1       5.719   6.377  18.224  0.00  0.00    +0.000 NA
ATOM      8  C   UNL     1       4.421   6.051  18.003  0.00  0.00    +0.000 A 
ATOM      9  C   UNL     1       3.925   4.779  18.369  0.00  0.00    +0.000 A 
ATOM     10  C   UNL     1       2.647   4.070  18.268  0.00  0.00    +0.000 A 
ATOM     11  C   UNL     1       1.364   4.564  17.666  0.00  0.00    +0.000 C 
ENDROOT
BRANCH   8  12
ATOM     12  S   UNL     1       3.373   7.288  17.295  0.00  0.00    +0.000 S 
BRANCH  12  13
ATOM     13  C   UNL     1       2.394   7.852  18.721  0.00  0.00    +0.000 C 
BRANCH  13  14
ATOM     14  C   UNL     1       1.680   9.153  18.423  0.00  0.00    +0.000 C 
ATOM     15  O   UNL     1       1.956   9.852  17.458  0.00  0.00    +0.000 OA
ATOM     16  N   UNL     1       0.739   9.534  19.389  0.00  0.00    +0.000 N 
ATOM     17  H   UNL     1       0.695   9.018  20.267  0.00  0.00    +0.000 HD
BRANCH  16  18
ATOM     18  S   UNL     1      -0.143  10.928  19.389  0.00  0.00    +0.000 S 
ATOM     19  C   UNL     1      -1.277  10.693  18.033  0.00  0.00    +0.000 C 
ATOM     20  O   UNL     1      -0.877  11.021  20.632  0.00  0.00    +0.000 OA
ATOM     21  O   UNL     1       0.798  11.961  19.001  0.00  0.00    +0.000 OA
ENDBRANCH  16  18
ENDBRANCH  13  14
ENDBRANCH  12  13
ENDBRANCH   8  12
TORSDOF 4
ENDMDL
MODEL 6
REMARK VINA RESULT:      -5.8      5.591      8.511
REMARK  Name = 
REMARK  7 active torsions:
REMARK  status: ('A' for Active; 'I' for Inactive)
REMARK    1  A    between atoms: C_1  and  C_2
REMARK    2  A    between atoms: C_8  and  S_9
REMARK    3  A    between atoms: S_9  and  C_10
REMARK    4  A    between atoms: C_10  and  C_11
REMARK    5  A    between atoms: N_13  and  S_14
REMARK    6  A    between atoms: S_14  and  C_15
REMARK    7  A    between atoms: C_19  and  C_20
REMARK                            x       y       z     vdW  Elec       q    Type
REMARK                         _______ _______ _______ _____ _____    ______ ____
ROOT
ATOM      1  C   UNL     1       1.974   8.566  18.130  0.00  0.00    +0.000 C 
ATOM      2  C   UNL     1       2.631   7.271  18.492  0.00  0.00    +0.000 A 
ATOM      3  S   UNL     1       1.973   6.314  19.734  0.00  0.00    +0.000 S 
ATOM      4  C   UNL     1       3.174   5.130  19.549  0.00  0.00    +0.000 A 
ATOM      5  N   UNL     1       3.147   4.047  20.341  0.00  0.00    +0.000 NA
ATOM      6  C   UNL     1       4.134   3.195  20.095  0.00  0.00    +0.000 A 
ATOM      7  N   UNL     1       5.091   3.315  19.162  0.00  0.00    +0.000 NA
ATOM      8  C   UNL     1       5.104   4.439  18.403  0.00  0.00    +0.000 A 
ATOM      9  C   UNL     1       4.102   5.423  18.554  0.00  0.00    +0.000 A 
ATOM     10  C   UNL     1       3.768   6.703  17.924  0.00  0.00    +0.000 A 
ATOM     11  C   UNL     1       4.487   7.393  16.803  0.00  0.00    +0.000 C 
ENDROOT
BRANCH   8  12
ATOM     12  S   UNL     1       6.445   4.646  17.265  0.00  0.00    +0.000 S 
BRANCH  12  13
ATOM     13  C   UNL     1       6.070   3.422  15.973  0.00  0.00    +0.000 C 
BRANCH  13  14
ATOM     14  C   UNL     1       6.266   4.000  14.589  0.00  0.00    +0.000 C 
ATOM     15  O   UNL     1       6.465   5.191  14.392  0.00  0.00    +0.000 OA
ATOM     16  N   UNL     1       6.114   3.076  13.545  0.00  0.00    +0.000 N 
ATOM     17  H   UNL     1       5.752   2.147  13.757  0.00  0.00    +0.000 HD
BRANCH  16  18
ATOM     18  S   UNL     1       6.191   3.411  11.932  0.00  0.00    +0.000 S 
ATOM     19  C   UNL     1       6.823   1.898  11.231  0.00  0.00    +0.000 C 
ATOM     20  O   UNL     1       4.855   3.660  11.438  0.00  0.00    +0.000 OA
ATOM     21  O   UNL     1       7.228   4.417  11.812  0.00  0.00    +0.000 OA
ENDBRANCH  16  18
ENDBRANCH  13  14
ENDBRANCH  12  13
ENDBRANCH   8  12
TORSDOF 4
ENDMDL
MODEL 7
REMARK VINA RESULT:      -5.7      2.742      3.699
REMARK  Name = 
REMARK  7 active torsions:
REMARK  status: ('A' for Active; 'I' for Inactive)
REMARK    1  A    between atoms: C_1  and  C_2
REMARK    2  A    between atoms: C_8  and  S_9
REMARK    3  A    between atoms: S_9  and  C_10
REMARK    4  A    between atoms: C_10  and  C_11
REMARK    5  A    between atoms: N_13  and  S_14
REMARK    6  A    between atoms: S_14  and  C_15
REMARK    7  A    between atoms: C_19  and  C_20
REMARK                            x       y       z     vdW  Elec       q    Type
REMARK                         _______ _______ _______ _____ _____    ______ ____
ROOT
ATOM      1  C   UNL     1       1.861   1.919  19.725  0.00  0.00    +0.000 C 
ATOM      2  C   UNL     1       2.499   3.084  19.036  0.00  0.00    +0.000 A 
ATOM      3  S   UNL     1       3.752   2.815  17.918  0.00  0.00    +0.000 S 
ATOM      4  C   UNL     1       3.920   4.475  17.608  0.00  0.00    +0.000 A 
ATOM      5  N   UNL     1       4.845   4.881  16.725  0.00  0.00    +0.000 NA
ATOM      6  C   UNL     1       4.874   6.197  16.566  0.00  0.00    +0.000 A 
ATOM      7  N   UNL     1       4.088   7.102  17.170  0.00  0.00    +0.000 NA
ATOM      8  C   UNL     1       3.186   6.656  18.080  0.00  0.00    +0.000 A 
ATOM      9  C   UNL     1       3.043   5.274  18.336  0.00  0.00    +0.000 A 
ATOM     10  C   UNL     1       2.195   4.434  19.185  0.00  0.00    +0.000 A 
ATOM     11  C   UNL     1       1.107   4.872  20.121  0.00  0.00    +0.000 C 
ENDROOT
BRANCH   8  12
ATOM     12  S   UNL     1       2.245   7.866  18.965  0.00  0.00    +0.000 S 
BRANCH  12  13
ATOM     13  C   UNL     1       1.826   9.075  17.672  0.00  0.00    +0.000 C 
BRANCH  13  14
ATOM     14  C   UNL     1       1.138  10.292  18.253  0.00  0.00    +0.000 C 
ATOM     15  O   UNL     1       1.730  11.130  18.919  0.00  0.00    +0.000 OA
ATOM     16  N   UNL     1      -0.247  10.334  18.040  0.00  0.00    +0.000 N 
ATOM     17  H   UNL     1      -0.713   9.513  17.655  0.00  0.00    +0.000 HD
BRANCH  16  18
ATOM     18  S   UNL     1      -1.283  11.484  18.610  0.00  0.00    +0.000 S 
ATOM     19  C   UNL     1      -1.108  11.348  20.380  0.00  0.00    +0.000 C 
ATOM     20  O   UNL     1      -0.830  12.785  18.172  0.00  0.00    +0.000 OA
ATOM     21  O   UNL     1      -2.603  10.998  18.261  0.00  0.00    +0.000 OA
ENDBRANCH  16  18
ENDBRANCH  13  14
ENDBRANCH  12  13
ENDBRANCH   8  12
TORSDOF 4
ENDMDL
MODEL 8
REMARK VINA RESULT:      -5.7      6.094      7.991
REMARK  Name = 
REMARK  7 active torsions:
REMARK  status: ('A' for Active; 'I' for Inactive)
REMARK    1  A    between atoms: C_1  and  C_2
REMARK    2  A    between atoms: C_8  and  S_9
REMARK    3  A    between atoms: S_9  and  C_10
REMARK    4  A    between atoms: C_10  and  C_11
REMARK    5  A    between atoms: N_13  and  S_14
REMARK    6  A    between atoms: S_14  and  C_15
REMARK    7  A    between atoms: C_19  and  C_20
REMARK                            x       y       z     vdW  Elec       q    Type
REMARK                         _______ _______ _______ _____ _____    ______ ____
ROOT
ATOM      1  C   UNL     1       1.038   9.720  18.188  0.00  0.00    +0.000 C 
ATOM      2  C   UNL     1      -0.287  10.364  18.453  0.00  0.00    +0.000 A 
ATOM      3  S   UNL     1      -1.581  10.094  17.385  0.00  0.00    +0.000 S 
ATOM      4  C   UNL     1      -2.625  11.073  18.297  0.00  0.00    +0.000 A 
ATOM      5  N   UNL     1      -3.891  11.234  17.883  0.00  0.00    +0.000 NA
ATOM      6  C   UNL     1      -4.606  12.015  18.682  0.00  0.00    +0.000 A 
ATOM      7  N   UNL     1      -4.193  12.609  19.813  0.00  0.00    +0.000 NA
ATOM      8  C   UNL     1      -2.898  12.448  20.181  0.00  0.00    +0.000 A 
ATOM      9  C   UNL     1      -2.029  11.630  19.424  0.00  0.00    +0.000 A 
ATOM     10  C   UNL     1      -0.633  11.198  19.513  0.00  0.00    +0.000 A 
ATOM     11  C   UNL     1       0.374  11.546  20.569  0.00  0.00    +0.000 C 
ENDROOT
BRANCH   8  12
ATOM     12  S   UNL     1      -2.331  13.338  21.602  0.00  0.00    +0.000 S 
BRANCH  12  13
ATOM     13  C   UNL     1      -2.691  12.191  22.967  0.00  0.00    +0.000 C 
BRANCH  13  14
ATOM     14  C   UNL     1      -3.986  12.550  23.664  0.00  0.00    +0.000 C 
ATOM     15  O   UNL     1      -4.054  12.754  24.868  0.00  0.00    +0.000 OA
ATOM     16  N   UNL     1      -5.115  12.542  22.833  0.00  0.00    +0.000 N 
ATOM     17  H   UNL     1      -5.030  12.170  21.887  0.00  0.00    +0.000 HD
BRANCH  16  18
ATOM     18  S   UNL     1      -6.672  12.814  23.306  0.00  0.00    +0.000 S 
ATOM     19  C   UNL     1      -7.546  12.973  21.759  0.00  0.00    +0.000 C 
ATOM     20  O   UNL     1      -7.155  11.657  24.025  0.00  0.00    +0.000 OA
ATOM     21  O   UNL     1      -6.645  14.122  23.931  0.00  0.00    +0.000 OA
ENDBRANCH  16  18
ENDBRANCH  13  14
ENDBRANCH  12  13
ENDBRANCH   8  12
TORSDOF 4
ENDMDL
MODEL 9
REMARK VINA RESULT:      -5.7      2.050      2.240
REMARK  Name = 
REMARK  7 active torsions:
REMARK  status: ('A' for Active; 'I' for Inactive)
REMARK    1  A    between atoms: C_1  and  C_2
REMARK    2  A    between atoms: C_8  and  S_9
REMARK    3  A    between atoms: S_9  and  C_10
REMARK    4  A    between atoms: C_10  and  C_11
REMARK    5  A    between atoms: N_13  and  S_14
REMARK    6  A    between atoms: S_14  and  C_15
REMARK    7  A    between atoms: C_19  and  C_20
REMARK                            x       y       z     vdW  Elec       q    Type
REMARK                         _______ _______ _______ _____ _____    ______ ____
ROOT
ATOM      1  C   UNL     1       5.768   3.662  15.676  0.00  0.00    +0.000 C 
ATOM      2  C   UNL     1       4.859   4.256  16.707  0.00  0.00    +0.000 A 
ATOM      3  S   UNL     1       4.172   3.254  17.897  0.00  0.00    +0.000 S 
ATOM      4  C   UNL     1       3.353   4.556  18.614  0.00  0.00    +0.000 A 
ATOM      5  N   UNL     1       2.587   4.328  19.692  0.00  0.00    +0.000 NA
ATOM      6  C   UNL     1       2.006   5.424  20.162  0.00  0.00    +0.000 A 
ATOM      7  N   UNL     1       2.129   6.672  19.683  0.00  0.00    +0.000 NA
ATOM      8  C   UNL     1       2.887   6.858  18.574  0.00  0.00    +0.000 A 
ATOM      9  C   UNL     1       3.572   5.775  17.979  0.00  0.00    +0.000 A 
ATOM     10  C   UNL     1       4.476   5.587  16.842  0.00  0.00    +0.000 A 
ATOM     11  C   UNL     1       4.989   6.628  15.891  0.00  0.00    +0.000 C 
ENDROOT
BRANCH   8  12
ATOM     12  S   UNL     1       2.938   8.484  17.877  0.00  0.00    +0.000 S 
BRANCH  12  13
ATOM     13  C   UNL     1       1.183   8.960  17.833  0.00  0.00    +0.000 C 
BRANCH  13  14
ATOM     14  C   UNL     1       0.869  10.017  18.869  0.00  0.00    +0.000 C 
ATOM     15  O   UNL     1       0.960   9.812  20.071  0.00  0.00    +0.000 OA
ATOM     16  N   UNL     1       0.383  11.222  18.341  0.00  0.00    +0.000 N 
ATOM     17  H   UNL     1       0.139  11.266  17.352  0.00  0.00    +0.000 HD
BRANCH  16  18
ATOM     18  S   UNL     1      -0.116  12.532  19.211  0.00  0.00    +0.000 S 
ATOM     19  C   UNL     1      -1.616  11.958  19.988  0.00  0.00    +0.000 C 
ATOM     20  O   UNL     1       0.874  12.833  20.220  0.00  0.00    +0.000 OA
ATOM     21  O   UNL     1      -0.488  13.517  18.214  0.00  0.00    +0.000 OA
ENDBRANCH  16  18
ENDBRANCH  13  14
ENDBRANCH  12  13
ENDBRANCH   8  12
TORSDOF 4
ENDMDL
