MODEL 1
REMARK VINA RESULT:      -7.6      0.000      0.000
REMARK  Name = 
REMARK  13 active torsions:
REMARK  status: ('A' for Active; 'I' for Inactive)
REMARK    1  A    between atoms: C_1  and  C_2
REMARK    2  A    between atoms: C_2  and  O_4
REMARK    3  A    between atoms: O_4  and  C_5
REMARK    4  A    between atoms: C_8  and  C_9
REMARK    5  A    between atoms: C_8  and  C_10
REMARK    6  A    between atoms: C_10  and  C_11
REMARK    7  A    between atoms: C_11  and  C_12
REMARK    8  A    between atoms: C_13  and  C_14
REMARK    9  A    between atoms: C_13  and  C_15
REMARK   10  A    between atoms: C_18  and  C_19
REMARK   11  A    between atoms: C_19  and  O_20
REMARK   12  A    between atoms: C_25  and  C_26
REMARK   13  A    between atoms: C_25  and  O_27
REMARK                            x       y       z     vdW  Elec       q    Type
REMARK                         _______ _______ _______ _____ _____    ______ ____
ROOT
ATOM      1  C   UNL     1       3.982   2.813  20.111  0.00  0.00    +0.000 C 
ATOM      2  C   UNL     1       5.006   3.383  18.844  0.00  0.00    +0.000 C 
ATOM      3  C   UNL     1       5.573   4.231  17.902  0.00  0.00    +0.000 C 
ATOM      4  C   UNL     1       5.693   5.740  17.170  0.00  0.00    +0.000 C 
ATOM      5  C   UNL     1       7.158   6.237  17.414  0.00  0.00    +0.000 C 
ATOM      6  C   UNL     1       4.722   6.743  17.819  0.00  0.00    +0.000 C 
ATOM      7  C   UNL     1       3.334   6.388  17.340  0.00  0.00    +0.000 C 
ATOM      8  C   UNL     1       2.557   5.575  18.069  0.00  0.00    +0.000 C 
ATOM      9  C   UNL     1       2.502   5.979  19.519  0.00  0.00    +0.000 C 
ATOM     10  O   UNL     1       2.979   7.034  19.940  0.00  0.00    +0.000 OA
ATOM     11  C   UNL     1       1.963   5.103  20.560  0.00  0.00    +0.000 C 
ATOM     12  C   UNL     1       1.485   3.930  20.166  0.00  0.00    +0.000 C 
ATOM     13  C   UNL     1       2.282   2.730  20.524  0.00  0.00    +0.000 C 
ATOM     14  C   UNL     1       1.762   2.431  21.956  0.00  0.00    +0.000 C 
ENDROOT
BRANCH  13  15
ATOM     15  O   UNL     1       1.697   1.666  19.727  0.00  0.00    +0.000 OA
ATOM     16  H   UNL     1       1.892   0.825  20.179  0.00  0.00    +0.000 HD
ENDBRANCH  13  15
BRANCH   1  17
ATOM     17  O   UNL     1       4.797   2.146  21.167  0.00  0.00    +0.000 OA
BRANCH  17  19
ATOM     18  C   UNL     1       6.068   0.444  22.198  0.00  0.00    +0.000 C 
ATOM     19  C   UNL     1       5.293   0.898  20.981  0.00  0.00    +0.000 C 
ATOM     20  O   UNL     1       5.222   0.264  19.941  0.00  0.00    +0.000 OA
ENDBRANCH  17  19
ENDBRANCH   1  17
BRANCH   4  21
ATOM     21  C   UNL     1       5.543   5.882  15.523  0.00  0.00    +0.000 C 
BRANCH  21  22
ATOM     22  C   UNL     1       5.102   4.569  14.739  0.00  0.00    +0.000 C 
BRANCH  22  23
ATOM     23  C   UNL     1       6.131   3.992  13.761  0.00  0.00    +0.000 C 
ATOM     24  C   UNL     1       5.969   3.498  12.508  0.00  0.00    +0.000 C 
ATOM     25  C   UNL     1       4.649   3.314  11.843  0.00  0.00    +0.000 C 
ATOM     26  C   UNL     1       7.138   3.039  11.673  0.00  0.00    +0.000 C 
ENDBRANCH  22  23
ENDBRANCH  21  22
ENDBRANCH   4  21
BRANCH   8  27
ATOM     27  C   UNL     1       2.075   4.284  17.426  0.00  0.00    +0.000 C 
BRANCH  27  28
ATOM     28  O   UNL     1       0.702   4.336  17.042  0.00  0.00    +0.000 OA
ATOM     29  H   UNL     1       0.317   3.476  17.254  0.00  0.00    +0.000 HD
ENDBRANCH  27  28
ENDBRANCH   8  27
TORSDOF 8
ENDMDL
MODEL 2
REMARK VINA RESULT:      -6.3      9.340     13.109
REMARK  Name = 
REMARK  13 active torsions:
REMARK  status: ('A' for Active; 'I' for Inactive)
REMARK    1  A    between atoms: C_1  and  C_2
REMARK    2  A    between atoms: C_2  and  O_4
REMARK    3  A    between atoms: O_4  and  C_5
REMARK    4  A    between atoms: C_8  and  C_9
REMARK    5  A    between atoms: C_8  and  C_10
REMARK    6  A    between atoms: C_10  and  C_11
REMARK    7  A    between atoms: C_11  and  C_12
REMARK    8  A    between atoms: C_13  and  C_14
REMARK    9  A    between atoms: C_13  and  C_15
REMARK   10  A    between atoms: C_18  and  C_19
REMARK   11  A    between atoms: C_19  and  O_20
REMARK   12  A    between atoms: C_25  and  C_26
REMARK   13  A    between atoms: C_25  and  O_27
REMARK                            x       y       z     vdW  Elec       q    Type
REMARK                         _______ _______ _______ _____ _____    ______ ____
ROOT
ATOM      1  C   UNL     1      -1.707  11.954  19.406  0.00  0.00    +0.000 C 
ATOM      2  C   UNL     1      -3.097  12.644  20.161  0.00  0.00    +0.000 C 
ATOM      3  C   UNL     1      -3.874  13.417  21.013  0.00  0.00    +0.000 C 
ATOM      4  C   UNL     1      -4.015  14.571  22.227  0.00  0.00    +0.000 C 
ATOM      5  C   UNL     1      -4.817  15.767  21.611  0.00  0.00    +0.000 C 
ATOM      6  C   UNL     1      -2.630  15.084  22.661  0.00  0.00    +0.000 C 
ATOM      7  C   UNL     1      -1.992  13.990  23.485  0.00  0.00    +0.000 C 
ATOM      8  C   UNL     1      -1.182  13.094  22.906  0.00  0.00    +0.000 C 
ATOM      9  C   UNL     1      -0.139  13.741  22.034  0.00  0.00    +0.000 C 
ATOM     10  O   UNL     1       0.049  14.958  22.003  0.00  0.00    +0.000 OA
ATOM     11  C   UNL     1       0.672  12.981  21.081  0.00  0.00    +0.000 C 
ATOM     12  C   UNL     1       0.471  11.671  21.037  0.00  0.00    +0.000 C 
ATOM     13  C   UNL     1      -0.215  11.140  19.832  0.00  0.00    +0.000 C 
ATOM     14  C   UNL     1       0.976  10.965  18.852  0.00  0.00    +0.000 C 
ENDROOT
BRANCH  13  15
ATOM     15  O   UNL     1      -0.557   9.775  20.191  0.00  0.00    +0.000 OA
ATOM     16  H   UNL     1      -1.230   9.820  20.893  0.00  0.00    +0.000 HD
ENDBRANCH  13  15
BRANCH   1  17
ATOM     17  O   UNL     1      -1.834  12.041  17.922  0.00  0.00    +0.000 OA
BRANCH  17  19
ATOM     18  C   UNL     1      -2.050   9.921  16.906  0.00  0.00    +0.000 C 
ATOM     19  C   UNL     1      -2.699  11.244  17.248  0.00  0.00    +0.000 C 
ATOM     20  O   UNL     1      -3.810  11.578  16.869  0.00  0.00    +0.000 OA
ENDBRANCH  17  19
ENDBRANCH   1  17
BRANCH   4  21
ATOM     21  C   UNL     1      -4.885  14.235  23.601  0.00  0.00    +0.000 C 
BRANCH  21  22
ATOM     22  C   UNL     1      -6.459  14.093  23.422  0.00  0.00    +0.000 C 
BRANCH  22  23
ATOM     23  C   UNL     1      -6.951  12.772  22.821  0.00  0.00    +0.000 C 
ATOM     24  C   UNL     1      -7.400  12.490  21.572  0.00  0.00    +0.000 C 
ATOM     25  C   UNL     1      -7.615  13.510  20.508  0.00  0.00    +0.000 C 
ATOM     26  C   UNL     1      -7.774  11.090  21.154  0.00  0.00    +0.000 C 
ENDBRANCH  22  23
ENDBRANCH  21  22
ENDBRANCH   4  21
BRANCH   8  27
ATOM     27  C   UNL     1      -1.565  11.624  22.994  0.00  0.00    +0.000 C 
BRANCH  27  28
ATOM     28  O   UNL     1      -2.833  11.419  23.614  0.00  0.00    +0.000 OA
ATOM     29  H   UNL     1      -2.689  11.454  24.569  0.00  0.00    +0.000 HD
ENDBRANCH  27  28
ENDBRANCH   8  27
TORSDOF 8
ENDMDL
MODEL 3
REMARK VINA RESULT:      -6.3      8.827     12.425
REMARK  Name = 
REMARK  13 active torsions:
REMARK  status: ('A' for Active; 'I' for Inactive)
REMARK    1  A    between atoms: C_1  and  C_2
REMARK    2  A    between atoms: C_2  and  O_4
REMARK    3  A    between atoms: O_4  and  C_5
REMARK    4  A    between atoms: C_8  and  C_9
REMARK    5  A    between atoms: C_8  and  C_10
REMARK    6  A    between atoms: C_10  and  C_11
REMARK    7  A    between atoms: C_11  and  C_12
REMARK    8  A    between atoms: C_13  and  C_14
REMARK    9  A    between atoms: C_13  and  C_15
REMARK   10  A    between atoms: C_18  and  C_19
REMARK   11  A    between atoms: C_19  and  O_20
REMARK   12  A    between atoms: C_25  and  C_26
REMARK   13  A    between atoms: C_25  and  O_27
REMARK                            x       y       z     vdW  Elec       q    Type
REMARK                         _______ _______ _______ _____ _____    ______ ____
ROOT
ATOM      1  C   UNL     1      -0.737  10.766  21.164  0.00  0.00    +0.000 C 
ATOM      2  C   UNL     1      -1.388  11.506  22.580  0.00  0.00    +0.000 C 
ATOM      3  C   UNL     1      -2.246  12.219  23.407  0.00  0.00    +0.000 C 
ATOM      4  C   UNL     1      -3.675  13.068  23.655  0.00  0.00    +0.000 C 
ATOM      5  C   UNL     1      -4.481  12.276  24.739  0.00  0.00    +0.000 C 
ATOM      6  C   UNL     1      -4.514  13.119  22.364  0.00  0.00    +0.000 C 
ATOM      7  C   UNL     1      -3.842  14.106  21.439  0.00  0.00    +0.000 C 
ATOM      8  C   UNL     1      -2.956  13.681  20.528  0.00  0.00    +0.000 C 
ATOM      9  C   UNL     1      -3.468  12.511  19.730  0.00  0.00    +0.000 C 
ATOM     10  O   UNL     1      -4.632  12.112  19.797  0.00  0.00    +0.000 OA
ATOM     11  C   UNL     1      -2.598  11.694  18.883  0.00  0.00    +0.000 C 
ATOM     12  C   UNL     1      -1.322  12.050  18.820  0.00  0.00    +0.000 C 
ATOM     13  C   UNL     1      -0.346  11.164  19.503  0.00  0.00    +0.000 C 
ATOM     14  C   UNL     1      -0.077  10.098  18.407  0.00  0.00    +0.000 C 
ENDROOT
BRANCH  13  15
ATOM     15  O   UNL     1       0.882  11.939  19.524  0.00  0.00    +0.000 OA
ATOM     16  H   UNL     1       0.735  12.729  18.974  0.00  0.00    +0.000 HD
ENDBRANCH  13  15
BRANCH   1  17
ATOM     17  O   UNL     1      -0.347   9.356  21.455  0.00  0.00    +0.000 OA
BRANCH  17  19
ATOM     18  C   UNL     1       1.476   7.925  21.004  0.00  0.00    +0.000 C 
ATOM     19  C   UNL     1       0.913   9.048  21.848  0.00  0.00    +0.000 C 
ATOM     20  O   UNL     1       1.483   9.527  22.814  0.00  0.00    +0.000 OA
ENDBRANCH  17  19
ENDBRANCH   1  17
BRANCH   4  21
ATOM     21  C   UNL     1      -3.636  14.599  24.295  0.00  0.00    +0.000 C 
BRANCH  21  22
ATOM     22  C   UNL     1      -2.321  14.994  25.099  0.00  0.00    +0.000 C 
BRANCH  22  23
ATOM     23  C   UNL     1      -1.088  15.322  24.252  0.00  0.00    +0.000 C 
ATOM     24  C   UNL     1      -0.841  16.376  23.435  0.00  0.00    +0.000 C 
ATOM     25  C   UNL     1      -1.837  17.431  23.101  0.00  0.00    +0.000 C 
ATOM     26  C   UNL     1       0.485  16.553  22.737  0.00  0.00    +0.000 C 
ENDBRANCH  22  23
ENDBRANCH  21  22
ENDBRANCH   4  21
BRANCH   8  27
ATOM     27  C   UNL     1      -1.541  14.236  20.595  0.00  0.00    +0.000 C 
BRANCH  27  28
ATOM     28  O   UNL     1      -1.357  15.384  19.769  0.00  0.00    +0.000 OA
ATOM     29  H   UNL     1      -1.300  15.068  18.857  0.00  0.00    +0.000 HD
ENDBRANCH  27  28
ENDBRANCH   8  27
TORSDOF 8
ENDMDL
MODEL 4
REMARK VINA RESULT:      -6.2      9.182     12.868
REMARK  Name = 
REMARK  13 active torsions:
REMARK  status: ('A' for Active; 'I' for Inactive)
REMARK    1  A    between atoms: C_1  and  C_2
REMARK    2  A    between atoms: C_2  and  O_4
REMARK    3  A    between atoms: O_4  and  C_5
REMARK    4  A    between atoms: C_8  and  C_9
REMARK    5  A    between atoms: C_8  and  C_10
REMARK    6  A    between atoms: C_10  and  C_11
REMARK    7  A    between atoms: C_11  and  C_12
REMARK    8  A    between atoms: C_13  and  C_14
REMARK    9  A    between atoms: C_13  and  C_15
REMARK   10  A    between atoms: C_18  and  C_19
REMARK   11  A    between atoms: C_19  and  O_20
REMARK   12  A    between atoms: C_25  and  C_26
REMARK   13  A    between atoms: C_25  and  O_27
REMARK                            x       y       z     vdW  Elec       q    Type
REMARK                         _______ _______ _______ _____ _____    ______ ____
ROOT
ATOM      1  C   UNL     1      -0.525  10.610  20.901  0.00  0.00    +0.000 C 
ATOM      2  C   UNL     1      -1.097  11.463  22.288  0.00  0.00    +0.000 C 
ATOM      3  C   UNL     1      -1.897  12.260  23.095  0.00  0.00    +0.000 C 
ATOM      4  C   UNL     1      -3.282  13.183  23.333  0.00  0.00    +0.000 C 
ATOM      5  C   UNL     1      -4.081  12.494  24.490  0.00  0.00    +0.000 C 
ATOM      6  C   UNL     1      -4.161  13.191  22.069  0.00  0.00    +0.000 C 
ATOM      7  C   UNL     1      -3.481  14.089  21.063  0.00  0.00    +0.000 C 
ATOM      8  C   UNL     1      -2.645  13.572  20.153  0.00  0.00    +0.000 C 
ATOM      9  C   UNL     1      -3.230  12.378  19.447  0.00  0.00    +0.000 C 
ATOM     10  O   UNL     1      -4.407  12.033  19.575  0.00  0.00    +0.000 OA
ATOM     11  C   UNL     1      -2.423  11.474  18.626  0.00  0.00    +0.000 C 
ATOM     12  C   UNL     1      -1.137  11.771  18.501  0.00  0.00    +0.000 C 
ATOM     13  C   UNL     1      -0.175  10.888  19.207  0.00  0.00    +0.000 C 
ATOM     14  C   UNL     1       0.014   9.746  18.173  0.00  0.00    +0.000 C 
ENDROOT
BRANCH  13  15
ATOM     15  O   UNL     1       1.084  11.610  19.141  0.00  0.00    +0.000 OA
ATOM     16  H   UNL     1       1.644  11.282  19.866  0.00  0.00    +0.000 HD
ENDBRANCH  13  15
BRANCH   1  17
ATOM     17  O   UNL     1      -0.183   9.205  21.269  0.00  0.00    +0.000 OA
BRANCH  17  19
ATOM     18  C   UNL     1       1.593   7.714  20.828  0.00  0.00    +0.000 C 
ATOM     19  C   UNL     1       1.074   8.870  21.652  0.00  0.00    +0.000 C 
ATOM     20  O   UNL     1       1.670   9.356  22.600  0.00  0.00    +0.000 OA
ENDBRANCH  17  19
ENDBRANCH   1  17
BRANCH   4  21
ATOM     21  C   UNL     1      -3.159  14.748  23.874  0.00  0.00    +0.000 C 
BRANCH  21  22
ATOM     22  C   UNL     1      -4.407  15.315  24.682  0.00  0.00    +0.000 C 
BRANCH  22  23
ATOM     23  C   UNL     1      -5.514  15.962  23.843  0.00  0.00    +0.000 C 
ATOM     24  C   UNL     1      -6.781  15.548  23.594  0.00  0.00    +0.000 C 
ATOM     25  C   UNL     1      -7.338  14.239  24.036  0.00  0.00    +0.000 C 
ATOM     26  C   UNL     1      -7.750  16.378  22.790  0.00  0.00    +0.000 C 
ENDBRANCH  22  23
ENDBRANCH  21  22
ENDBRANCH   4  21
BRANCH   8  27
ATOM     27  C   UNL     1      -1.207  14.069  20.141  0.00  0.00    +0.000 C 
BRANCH  27  28
ATOM     28  O   UNL     1      -1.056  15.306  19.448  0.00  0.00    +0.000 OA
ATOM     29  H   UNL     1      -0.953  15.994  20.120  0.00  0.00    +0.000 HD
ENDBRANCH  27  28
ENDBRANCH   8  27
TORSDOF 8
ENDMDL
MODEL 5
REMARK VINA RESULT:      -6.1      9.073     12.835
REMARK  Name = 
REMARK  13 active torsions:
REMARK  status: ('A' for Active; 'I' for Inactive)
REMARK    1  A    between atoms: C_1  and  C_2
REMARK    2  A    between atoms: C_2  and  O_4
REMARK    3  A    between atoms: O_4  and  C_5
REMARK    4  A    between atoms: C_8  and  C_9
REMARK    5  A    between atoms: C_8  and  C_10
REMARK    6  A    between atoms: C_10  and  C_11
REMARK    7  A    between atoms: C_11  and  C_12
REMARK    8  A    between atoms: C_13  and  C_14
REMARK    9  A    between atoms: C_13  and  C_15
REMARK   10  A    between atoms: C_18  and  C_19
REMARK   11  A    between atoms: C_19  and  O_20
REMARK   12  A    between atoms: C_25  and  C_26
REMARK   13  A    between atoms: C_25  and  O_27
REMARK                            x       y       z     vdW  Elec       q    Type
REMARK                         _______ _______ _______ _____ _____    ______ ____
ROOT
ATOM      1  C   UNL     1      -0.736  10.783  21.073  0.00  0.00    +0.000 C 
ATOM      2  C   UNL     1      -1.352  11.538  22.497  0.00  0.00    +0.000 C 
ATOM      3  C   UNL     1      -2.190  12.257  23.338  0.00  0.00    +0.000 C 
ATOM      4  C   UNL     1      -3.617  13.102  23.615  0.00  0.00    +0.000 C 
ATOM      5  C   UNL     1      -4.386  12.320  24.733  0.00  0.00    +0.000 C 
ATOM      6  C   UNL     1      -4.492  13.131  22.349  0.00  0.00    +0.000 C 
ATOM      7  C   UNL     1      -3.852  14.109  21.391  0.00  0.00    +0.000 C 
ATOM      8  C   UNL     1      -2.990  13.677  20.461  0.00  0.00    +0.000 C 
ATOM      9  C   UNL     1      -3.518  12.493  19.694  0.00  0.00    +0.000 C 
ATOM     10  O   UNL     1      -4.677  12.088  19.799  0.00  0.00    +0.000 OA
ATOM     11  C   UNL     1      -2.667  11.669  18.834  0.00  0.00    +0.000 C 
ATOM     12  C   UNL     1      -1.395  12.031  18.729  0.00  0.00    +0.000 C 
ATOM     13  C   UNL     1      -0.395  11.160  19.396  0.00  0.00    +0.000 C 
ATOM     14  C   UNL     1      -0.151  10.081  18.308  0.00  0.00    +0.000 C 
ENDROOT
BRANCH  13  15
ATOM     15  O   UNL     1       0.828  11.942  19.372  0.00  0.00    +0.000 OA
ATOM     16  H   UNL     1       1.227  11.883  20.258  0.00  0.00    +0.000 HD
ENDBRANCH  13  15
BRANCH   1  17
ATOM     17  O   UNL     1      -0.330   9.379  21.372  0.00  0.00    +0.000 OA
BRANCH  17  19
ATOM     18  C   UNL     1       1.497   7.964  20.888  0.00  0.00    +0.000 C 
ATOM     19  C   UNL     1       0.941   9.083  21.740  0.00  0.00    +0.000 C 
ATOM     20  O   UNL     1       1.525   9.571  22.694  0.00  0.00    +0.000 OA
ENDBRANCH  17  19
ENDBRANCH   1  17
BRANCH   4  21
ATOM     21  C   UNL     1      -3.568  14.642  24.233  0.00  0.00    +0.000 C 
BRANCH  21  22
ATOM     22  C   UNL     1      -2.197  15.430  24.057  0.00  0.00    +0.000 C 
BRANCH  22  23
ATOM     23  C   UNL     1      -1.247  15.404  25.259  0.00  0.00    +0.000 C 
ATOM     24  C   UNL     1      -0.947  16.372  26.160  0.00  0.00    +0.000 C 
ATOM     25  C   UNL     1      -1.439  17.776  26.079  0.00  0.00    +0.000 C 
ATOM     26  C   UNL     1      -0.028  16.119  27.329  0.00  0.00    +0.000 C 
ENDBRANCH  22  23
ENDBRANCH  21  22
ENDBRANCH   4  21
BRANCH   8  27
ATOM     27  C   UNL     1      -1.577  14.240  20.481  0.00  0.00    +0.000 C 
BRANCH  27  28
ATOM     28  O   UNL     1      -1.456  15.456  19.746  0.00  0.00    +0.000 OA
ATOM     29  H   UNL     1      -2.182  16.029  20.028  0.00  0.00    +0.000 HD
ENDBRANCH  27  28
ENDBRANCH   8  27
TORSDOF 8
ENDMDL
MODEL 6
REMARK VINA RESULT:      -6.1     10.095     12.919
REMARK  Name = 
REMARK  13 active torsions:
REMARK  status: ('A' for Active; 'I' for Inactive)
REMARK    1  A    between atoms: C_1  and  C_2
REMARK    2  A    between atoms: C_2  and  O_4
REMARK    3  A    between atoms: O_4  and  C_5
REMARK    4  A    between atoms: C_8  and  C_9
REMARK    5  A    between atoms: C_8  and  C_10
REMARK    6  A    between atoms: C_10  and  C_11
REMARK    7  A    between atoms: C_11  and  C_12
REMARK    8  A    between atoms: C_13  and  C_14
REMARK    9  A    between atoms: C_13  and  C_15
REMARK   10  A    between atoms: C_18  and  C_19
REMARK   11  A    between atoms: C_19  and  O_20
REMARK   12  A    between atoms: C_25  and  C_26
REMARK   13  A    between atoms: C_25  and  O_27
REMARK                            x       y       z     vdW  Elec       q    Type
REMARK                         _______ _______ _______ _____ _____    ______ ____
ROOT
ATOM      1  C   UNL     1      -4.763  12.142  19.177  0.00  0.00    +0.000 C 
ATOM      2  C   UNL     1      -3.234  12.227  19.974  0.00  0.00    +0.000 C 
ATOM      3  C   UNL     1      -2.292  12.353  20.985  0.00  0.00    +0.000 C 
ATOM      4  C   UNL     1      -1.899  12.530  22.610  0.00  0.00    +0.000 C 
ATOM      5  C   UNL     1      -1.072  11.262  23.009  0.00  0.00    +0.000 C 
ATOM      6  C   UNL     1      -3.169  12.578  23.480  0.00  0.00    +0.000 C 
ATOM      7  C   UNL     1      -3.800  13.934  23.267  0.00  0.00    +0.000 C 
ATOM      8  C   UNL     1      -4.753  14.097  22.340  0.00  0.00    +0.000 C 
ATOM      9  C   UNL     1      -5.830  13.050  22.432  0.00  0.00    +0.000 C 
ATOM     10  O   UNL     1      -5.907  12.247  23.364  0.00  0.00    +0.000 OA
ATOM     11  C   UNL     1      -6.817  12.839  21.372  0.00  0.00    +0.000 C 
ATOM     12  C   UNL     1      -6.744  13.644  20.320  0.00  0.00    +0.000 C 
ATOM     13  C   UNL     1      -6.260  13.043  19.052  0.00  0.00    +0.000 C 
ATOM     14  C   UNL     1      -7.572  12.447  18.473  0.00  0.00    +0.000 C 
ENDROOT
BRANCH  13  15
ATOM     15  O   UNL     1      -6.004  14.186  18.193  0.00  0.00    +0.000 OA
ATOM     16  H   UNL     1      -6.500  14.940  18.559  0.00  0.00    +0.000 HD
ENDBRANCH  13  15
BRANCH   1  17
ATOM     17  O   UNL     1      -4.809  10.949  18.283  0.00  0.00    +0.000 OA
BRANCH  17  19
ATOM     18  C   UNL     1      -3.091   9.873  17.072  0.00  0.00    +0.000 C 
ATOM     19  C   UNL     1      -4.159  10.943  17.093  0.00  0.00    +0.000 C 
ATOM     20  O   UNL     1      -4.331  11.755  16.197  0.00  0.00    +0.000 OA
ENDBRANCH  17  19
ENDBRANCH   1  17
BRANCH   4  21
ATOM     21  C   UNL     1      -0.904  13.767  23.098  0.00  0.00    +0.000 C 
BRANCH  21  22
ATOM     22  C   UNL     1      -0.212  14.613  21.942  0.00  0.00    +0.000 C 
BRANCH  22  23
ATOM     23  C   UNL     1       0.892  13.898  21.155  0.00  0.00    +0.000 C 
ATOM     24  C   UNL     1       1.046  13.729  19.819  0.00  0.00    +0.000 C 
ATOM     25  C   UNL     1       0.044  14.145  18.799  0.00  0.00    +0.000 C 
ATOM     26  C   UNL     1       2.259  13.048  19.234  0.00  0.00    +0.000 C 
ENDBRANCH  22  23
ENDBRANCH  21  22
ENDBRANCH   4  21
BRANCH   8  27
ATOM     27  C   UNL     1      -4.499  15.100  21.225  0.00  0.00    +0.000 C 
BRANCH  27  28
ATOM     28  O   UNL     1      -3.393  15.959  21.495  0.00  0.00    +0.000 OA
ATOM     29  H   UNL     1      -2.608  15.398  21.556  0.00  0.00    +0.000 HD
ENDBRANCH  27  28
ENDBRANCH   8  27
TORSDOF 8
ENDMDL
MODEL 7
REMARK VINA RESULT:      -6.0      8.912     11.994
REMARK  Name = 
REMARK  13 active torsions:
REMARK  status: ('A' for Active; 'I' for Inactive)
REMARK    1  A    between atoms: C_1  and  C_2
REMARK    2  A    between atoms: C_2  and  O_4
REMARK    3  A    between atoms: O_4  and  C_5
REMARK    4  A    between atoms: C_8  and  C_9
REMARK    5  A    between atoms: C_8  and  C_10
REMARK    6  A    between atoms: C_10  and  C_11
REMARK    7  A    between atoms: C_11  and  C_12
REMARK    8  A    between atoms: C_13  and  C_14
REMARK    9  A    between atoms: C_13  and  C_15
REMARK   10  A    between atoms: C_18  and  C_19
REMARK   11  A    between atoms: C_19  and  O_20
REMARK   12  A    between atoms: C_25  and  C_26
REMARK   13  A    between atoms: C_25  and  O_27
REMARK                            x       y       z     vdW  Elec       q    Type
REMARK                         _______ _______ _______ _____ _____    ______ ____
ROOT
ATOM      1  C   UNL     1       7.738  15.597  21.385  0.00  0.00    +0.000 C 
ATOM      2  C   UNL     1       8.173  13.963  21.040  0.00  0.00    +0.000 C 
ATOM      3  C   UNL     1       8.813  12.874  20.464  0.00  0.00    +0.000 C 
ATOM      4  C   UNL     1       9.967  12.232  19.423  0.00  0.00    +0.000 C 
ATOM      5  C   UNL     1      10.957  11.405  20.311  0.00  0.00    +0.000 C 
ATOM      6  C   UNL     1      10.758  13.352  18.723  0.00  0.00    +0.000 C 
ATOM      7  C   UNL     1       9.845  13.953  17.680  0.00  0.00    +0.000 C 
ATOM      8  C   UNL     1       9.102  15.028  17.973  0.00  0.00    +0.000 C 
ATOM      9  C   UNL     1       9.903  16.121  18.629  0.00  0.00    +0.000 C 
ATOM     10  O   UNL     1      11.132  16.088  18.722  0.00  0.00    +0.000 OA
ATOM     11  C   UNL     1       9.279  17.265  19.295  0.00  0.00    +0.000 C 
ATOM     12  C   UNL     1       7.954  17.319  19.270  0.00  0.00    +0.000 C 
ATOM     13  C   UNL     1       7.250  17.059  20.551  0.00  0.00    +0.000 C 
ATOM     14  C   UNL     1       7.271  18.466  21.207  0.00  0.00    +0.000 C 
ENDROOT
BRANCH  13  15
ATOM     15  O   UNL     1       5.861  16.890  20.165  0.00  0.00    +0.000 OA
ATOM     16  H   UNL     1       5.839  16.794  19.196  0.00  0.00    +0.000 HD
ENDBRANCH  13  15
BRANCH   1  17
ATOM     17  O   UNL     1       7.738  15.826  22.859  0.00  0.00    +0.000 OA
BRANCH  17  19
ATOM     18  C   UNL     1      10.012  16.457  22.882  0.00  0.00    +0.000 C 
ATOM     19  C   UNL     1       8.882  15.733  23.580  0.00  0.00    +0.000 C 
ATOM     20  O   UNL     1       9.019  15.070  24.595  0.00  0.00    +0.000 OA
ENDBRANCH  17  19
ENDBRANCH   1  17
BRANCH   4  21
ATOM     21  C   UNL     1       9.524  11.126  18.267  0.00  0.00    +0.000 C 
BRANCH  21  22
ATOM     22  C   UNL     1       8.981   9.728  18.799  0.00  0.00    +0.000 C 
BRANCH  22  23
ATOM     23  C   UNL     1       8.076   8.949  17.840  0.00  0.00    +0.000 C 
ATOM     24  C   UNL     1       7.682   7.651  17.865  0.00  0.00    +0.000 C 
ATOM     25  C   UNL     1       8.179   6.642  18.841  0.00  0.00    +0.000 C 
ATOM     26  C   UNL     1       6.715   7.089  16.852  0.00  0.00    +0.000 C 
ENDBRANCH  22  23
ENDBRANCH  21  22
ENDBRANCH   4  21
BRANCH   8  27
ATOM     27  C   UNL     1       7.590  14.906  17.848  0.00  0.00    +0.000 C 
BRANCH  27  28
ATOM     28  O   UNL     1       7.182  13.674  17.257  0.00  0.00    +0.000 OA
ATOM     29  H   UNL     1       6.506  13.295  17.834  0.00  0.00    +0.000 HD
ENDBRANCH  27  28
ENDBRANCH   8  27
TORSDOF 8
ENDMDL
MODEL 8
REMARK VINA RESULT:      -6.0      7.482     10.372
REMARK  Name = 
REMARK  13 active torsions:
REMARK  status: ('A' for Active; 'I' for Inactive)
REMARK    1  A    between atoms: C_1  and  C_2
REMARK    2  A    between atoms: C_2  and  O_4
REMARK    3  A    between atoms: O_4  and  C_5
REMARK    4  A    between atoms: C_8  and  C_9
REMARK    5  A    between atoms: C_8  and  C_10
REMARK    6  A    between atoms: C_10  and  C_11
REMARK    7  A    between atoms: C_11  and  C_12
REMARK    8  A    between atoms: C_13  and  C_14
REMARK    9  A    between atoms: C_13  and  C_15
REMARK   10  A    between atoms: C_18  and  C_19
REMARK   11  A    between atoms: C_19  and  O_20
REMARK   12  A    between atoms: C_25  and  C_26
REMARK   13  A    between atoms: C_25  and  O_27
REMARK                            x       y       z     vdW  Elec       q    Type
REMARK                         _______ _______ _______ _____ _____    ______ ____
ROOT
ATOM      1  C   UNL     1      -2.052  13.185  21.780  0.00  0.00    +0.000 C 
ATOM      2  C   UNL     1      -1.585  11.692  21.051  0.00  0.00    +0.000 C 
ATOM      3  C   UNL     1      -0.802  10.729  20.429  0.00  0.00    +0.000 C 
ATOM      4  C   UNL     1       0.674  10.212  19.813  0.00  0.00    +0.000 C 
ATOM      5  C   UNL     1       1.083   8.948  20.641  0.00  0.00    +0.000 C 
ATOM      6  C   UNL     1       1.756  11.291  20.002  0.00  0.00    +0.000 C 
ATOM      7  C   UNL     1       1.476  12.379  18.992  0.00  0.00    +0.000 C 
ATOM      8  C   UNL     1       0.736  13.443  19.333  0.00  0.00    +0.000 C 
ATOM      9  C   UNL     1       1.184  14.063  20.630  0.00  0.00    +0.000 C 
ATOM     10  O   UNL     1       2.219  13.730  21.211  0.00  0.00    +0.000 OA
ATOM     11  C   UNL     1       0.375  15.044  21.355  0.00  0.00    +0.000 C 
ATOM     12  C   UNL     1      -0.776  15.397  20.797  0.00  0.00    +0.000 C 
ATOM     13  C   UNL     1      -2.014  14.906  21.452  0.00  0.00    +0.000 C 
ATOM     14  C   UNL     1      -2.238  15.990  22.541  0.00  0.00    +0.000 C 
ENDROOT
BRANCH  13  15
ATOM     15  O   UNL     1      -3.061  15.182  20.485  0.00  0.00    +0.000 OA
ATOM     16  H   UNL     1      -3.481  16.021  20.744  0.00  0.00    +0.000 HD
ENDBRANCH  13  15
BRANCH   1  17
ATOM     17  O   UNL     1      -2.739  12.928  23.079  0.00  0.00    +0.000 OA
BRANCH  17  19
ATOM     18  C   UNL     1      -4.535  12.525  24.557  0.00  0.00    +0.000 C 
ATOM     19  C   UNL     1      -4.070  12.676  23.125  0.00  0.00    +0.000 C 
ATOM     20  O   UNL     1      -4.782  12.487  22.152  0.00  0.00    +0.000 OA
ENDBRANCH  17  19
ENDBRANCH   1  17
BRANCH   4  21
ATOM     21  C   UNL     1       0.778   9.658  18.251  0.00  0.00    +0.000 C 
BRANCH  21  22
ATOM     22  C   UNL     1       2.146   8.957  17.841  0.00  0.00    +0.000 C 
BRANCH  22  23
ATOM     23  C   UNL     1       2.216   7.441  18.055  0.00  0.00    +0.000 C 
ATOM     24  C   UNL     1       3.229   6.569  17.828  0.00  0.00    +0.000 C 
ATOM     25  C   UNL     1       4.521   6.933  17.181  0.00  0.00    +0.000 C 
ATOM     26  C   UNL     1       3.119   5.106  18.179  0.00  0.00    +0.000 C 
ENDBRANCH  22  23
ENDBRANCH  21  22
ENDBRANCH   4  21
BRANCH   8  27
ATOM     27  C   UNL     1      -0.539  13.705  18.547  0.00  0.00    +0.000 C 
BRANCH  27  28
ATOM     28  O   UNL     1      -0.740  12.770  17.489  0.00  0.00    +0.000 OA
ATOM     29  H   UNL     1      -0.199  11.995  17.693  0.00  0.00    +0.000 HD
ENDBRANCH  27  28
ENDBRANCH   8  27
TORSDOF 8
ENDMDL
MODEL 9
REMARK VINA RESULT:      -6.0      9.269     12.505
REMARK  Name = 
REMARK  13 active torsions:
REMARK  status: ('A' for Active; 'I' for Inactive)
REMARK    1  A    between atoms: C_1  and  C_2
REMARK    2  A    between atoms: C_2  and  O_4
REMARK    3  A    between atoms: O_4  and  C_5
REMARK    4  A    between atoms: C_8  and  C_9
REMARK    5  A    between atoms: C_8  and  C_10
REMARK    6  A    between atoms: C_10  and  C_11
REMARK    7  A    between atoms: C_11  and  C_12
REMARK    8  A    between atoms: C_13  and  C_14
REMARK    9  A    between atoms: C_13  and  C_15
REMARK   10  A    between atoms: C_18  and  C_19
REMARK   11  A    between atoms: C_19  and  O_20
REMARK   12  A    between atoms: C_25  and  C_26
REMARK   13  A    between atoms: C_25  and  O_27
REMARK                            x       y       z     vdW  Elec       q    Type
REMARK                         _______ _______ _______ _____ _____    ______ ____
ROOT
ATOM      1  C   UNL     1      -4.293  12.486  19.538  0.00  0.00    +0.000 C 
ATOM      2  C   UNL     1      -2.621  12.094  19.362  0.00  0.00    +0.000 C 
ATOM      3  C   UNL     1      -1.309  11.785  19.692  0.00  0.00    +0.000 C 
ATOM      4  C   UNL     1      -0.123  11.454  20.837  0.00  0.00    +0.000 C 
ATOM      5  C   UNL     1       0.389  10.004  20.541  0.00  0.00    +0.000 C 
ATOM      6  C   UNL     1      -0.711  11.484  22.260  0.00  0.00    +0.000 C 
ATOM      7  C   UNL     1      -0.943  12.935  22.612  0.00  0.00    +0.000 C 
ATOM      8  C   UNL     1      -2.139  13.498  22.395  0.00  0.00    +0.000 C 
ATOM      9  C   UNL     1      -3.274  12.663  22.927  0.00  0.00    +0.000 C 
ATOM     10  O   UNL     1      -3.100  11.666  23.631  0.00  0.00    +0.000 OA
ATOM     11  C   UNL     1      -4.671  12.912  22.570  0.00  0.00    +0.000 C 
ATOM     12  C   UNL     1      -4.907  13.943  21.770  0.00  0.00    +0.000 C 
ATOM     13  C   UNL     1      -5.320  13.628  20.379  0.00  0.00    +0.000 C 
ATOM     14  C   UNL     1      -6.852  13.440  20.548  0.00  0.00    +0.000 C 
ENDROOT
BRANCH  13  15
ATOM     15  O   UNL     1      -5.214  14.897  19.681  0.00  0.00    +0.000 OA
ATOM     16  H   UNL     1      -6.095  15.106  19.324  0.00  0.00    +0.000 HD
ENDBRANCH  13  15
BRANCH   1  17
ATOM     17  O   UNL     1      -5.120  11.599  18.669  0.00  0.00    +0.000 OA
BRANCH  17  19
ATOM     18  C   UNL     1      -4.418  11.120  16.467  0.00  0.00    +0.000 C 
ATOM     19  C   UNL     1      -5.343  11.907  17.368  0.00  0.00    +0.000 C 
ATOM     20  O   UNL     1      -6.105  12.776  16.974  0.00  0.00    +0.000 OA
ENDBRANCH  17  19
ENDBRANCH   1  17
BRANCH   4  21
ATOM     21  C   UNL     1       1.288  12.328  20.853  0.00  0.00    +0.000 C 
BRANCH  21  22
ATOM     22  C   UNL     1       1.723  12.991  19.473  0.00  0.00    +0.000 C 
BRANCH  22  23
ATOM     23  C   UNL     1       0.801  14.089  18.934  0.00  0.00    +0.000 C 
ATOM     24  C   UNL     1       0.661  15.383  19.318  0.00  0.00    +0.000 C 
ATOM     25  C   UNL     1       1.351  15.991  20.489  0.00  0.00    +0.000 C 
ATOM     26  C   UNL     1      -0.265  16.334  18.600  0.00  0.00    +0.000 C 
ENDBRANCH  22  23
ENDBRANCH  21  22
ENDBRANCH   4  21
BRANCH   8  27
ATOM     27  C   UNL     1      -2.203  14.702  21.468  0.00  0.00    +0.000 C 
BRANCH  27  28
ATOM     28  O   UNL     1      -1.820  15.916  22.112  0.00  0.00    +0.000 OA
ATOM     29  H   UNL     1      -2.136  16.642  21.556  0.00  0.00    +0.000 HD
ENDBRANCH  27  28
ENDBRANCH   8  27
TORSDOF 8
ENDMDL
