MODEL 1
REMARK VINA RESULT:      -5.1      0.000      0.000
REMARK  Name = 
REMARK  10 active torsions:
REMARK  status: ('A' for Active; 'I' for Inactive)
REMARK    1  A    between atoms: C_1  and  C_2
REMARK    2  A    between atoms: C_2  and  N_3
REMARK    3  A    between atoms: N_3  and  C_4
REMARK    4  A    between atoms: C_4  and  C_5
REMARK    5  A    between atoms: C_6  and  C_8
REMARK    6  A    between atoms: C_8  and  C_9
REMARK    7  A    between atoms: C_13  and  C_14
REMARK    8  A    between atoms: C_14  and  N_15
REMARK    9  A    between atoms: N_15  and  C_16
REMARK   10  A    between atoms: N_15  and  C_17
REMARK                            x       y       z     vdW  Elec       q    Type
REMARK                         _______ _______ _______ _____ _____    ______ ____
ROOT
ATOM      1  C   UNL     1       4.867   5.706  17.699  0.00  0.00    +0.000 C 
ATOM      2  S   UNL     1       5.789   6.607  16.359  0.00  0.00    +0.000 S 
ATOM      3  C   UNL     1       6.975   5.334  15.827  0.00  0.00    +0.000 C 
ATOM      4  C   UNL     1       6.348   4.040  15.297  0.00  0.00    +0.000 C 
ATOM      5  C   UNL     1       5.614   3.290  16.414  0.00  0.00    +0.000 C 
ATOM      6  S   UNL     1       4.116   4.122  17.003  0.00  0.00    +0.000 S 
ENDROOT
BRANCH   1   8
ATOM      7  N   UNL     1       2.794   6.346  19.176  0.00  0.00    +0.000 N 
ATOM      8  C   UNL     1       3.666   6.652  18.108  0.00  0.00    +0.000 C 
ATOM      9  O   UNL     1       3.511   7.740  17.528  0.00  0.00    +0.000 OA
BRANCH   7  11
ATOM     10  C   UNL     1       1.694   7.886  20.796  0.00  0.00    +0.000 C 
ATOM     11  C   UNL     1       1.690   7.294  19.393  0.00  0.00    +0.000 C 
ENDBRANCH   7  11
BRANCH   7  12
ATOM     12  C   UNL     1       2.859   5.110  19.970  0.00  0.00    +0.000 C 
ATOM     13  C   UNL     1       1.594   4.286  20.158  0.00  0.00    +0.000 C 
ENDBRANCH   7  12
ENDBRANCH   1   8
BRANCH   1  14
ATOM     14  C   UNL     1       5.719   5.331  18.844  0.00  0.00    +0.000 C 
ATOM     15  N   UNL     1       6.425   5.077  19.734  0.00  0.00    +0.000 NA
ENDBRANCH   1  14
BRANCH   4  16
ATOM     16  C   UNL     1       5.446   4.235  14.052  0.00  0.00    +0.000 C 
BRANCH  16  17
ATOM     17  N   UNL     1       5.822   3.442  12.868  0.00  0.00    +0.000 NA
ATOM     18  C   UNL     1       4.729   3.330  11.903  0.00  0.00    +0.000 C 
ATOM     19  C   UNL     1       6.987   4.065  12.225  0.00  0.00    +0.000 C 
ENDBRANCH  16  17
ENDBRANCH   4  16
TORSDOF 6
ENDMDL
MODEL 2
REMARK VINA RESULT:      -4.9      2.267      3.495
REMARK  Name = 
REMARK  10 active torsions:
REMARK  status: ('A' for Active; 'I' for Inactive)
REMARK    1  A    between atoms: C_1  and  C_2
REMARK    2  A    between atoms: C_2  and  N_3
REMARK    3  A    between atoms: N_3  and  C_4
REMARK    4  A    between atoms: C_4  and  C_5
REMARK    5  A    between atoms: C_6  and  C_8
REMARK    6  A    between atoms: C_8  and  C_9
REMARK    7  A    between atoms: C_13  and  C_14
REMARK    8  A    between atoms: C_14  and  N_15
REMARK    9  A    between atoms: N_15  and  C_16
REMARK   10  A    between atoms: N_15  and  C_17
REMARK                            x       y       z     vdW  Elec       q    Type
REMARK                         _______ _______ _______ _____ _____    ______ ____
ROOT
ATOM      1  C   UNL     1       2.561   5.110  19.609  0.00  0.00    +0.000 C 
ATOM      2  S   UNL     1       4.412   5.245  19.502  0.00  0.00    +0.000 S 
ATOM      3  C   UNL     1       4.855   3.579  18.919  0.00  0.00    +0.000 C 
ATOM      4  C   UNL     1       4.248   3.177  17.571  0.00  0.00    +0.000 C 
ATOM      5  C   UNL     1       2.726   3.042  17.675  0.00  0.00    +0.000 C 
ATOM      6  S   UNL     1       1.859   4.613  17.931  0.00  0.00    +0.000 S 
ENDROOT
BRANCH   1   8
ATOM      7  N   UNL     1       2.044   7.597  18.947  0.00  0.00    +0.000 N 
ATOM      8  C   UNL     1       2.039   6.572  19.919  0.00  0.00    +0.000 C 
ATOM      9  O   UNL     1       1.539   6.828  21.027  0.00  0.00    +0.000 OA
BRANCH   7  11
ATOM     10  C   UNL     1       0.948   9.736  18.291  0.00  0.00    +0.000 C 
ATOM     11  C   UNL     1       1.584   8.916  19.406  0.00  0.00    +0.000 C 
ENDBRANCH   7  11
BRANCH   7  12
ATOM     12  C   UNL     1       2.583   7.445  17.587  0.00  0.00    +0.000 C 
ATOM     13  C   UNL     1       4.043   7.786  17.330  0.00  0.00    +0.000 C 
ENDBRANCH   7  12
ENDBRANCH   1   8
BRANCH   1  14
ATOM     14  C   UNL     1       2.102   4.115  20.597  0.00  0.00    +0.000 C 
ATOM     15  N   UNL     1       1.688   3.348  21.368  0.00  0.00    +0.000 NA
ENDBRANCH   1  14
BRANCH   4  16
ATOM     16  C   UNL     1       4.661   4.094  16.391  0.00  0.00    +0.000 C 
BRANCH  16  17
ATOM     17  N   UNL     1       6.069   3.983  15.967  0.00  0.00    +0.000 NA
ATOM     18  C   UNL     1       6.204   3.855  14.516  0.00  0.00    +0.000 C 
ATOM     19  C   UNL     1       6.803   5.169  16.429  0.00  0.00    +0.000 C 
ENDBRANCH  16  17
ENDBRANCH   4  16
TORSDOF 6
ENDMDL
MODEL 3
REMARK VINA RESULT:      -4.9      1.587      2.054
REMARK  Name = 
REMARK  10 active torsions:
REMARK  status: ('A' for Active; 'I' for Inactive)
REMARK    1  A    between atoms: C_1  and  C_2
REMARK    2  A    between atoms: C_2  and  N_3
REMARK    3  A    between atoms: N_3  and  C_4
REMARK    4  A    between atoms: C_4  and  C_5
REMARK    5  A    between atoms: C_6  and  C_8
REMARK    6  A    between atoms: C_8  and  C_9
REMARK    7  A    between atoms: C_13  and  C_14
REMARK    8  A    between atoms: C_14  and  N_15
REMARK    9  A    between atoms: N_15  and  C_16
REMARK   10  A    between atoms: N_15  and  C_17
REMARK                            x       y       z     vdW  Elec       q    Type
REMARK                         _______ _______ _______ _____ _____    ______ ____
ROOT
ATOM      1  C   UNL     1       4.795   5.096  17.824  0.00  0.00    +0.000 C 
ATOM      2  S   UNL     1       4.816   6.541  16.653  0.00  0.00    +0.000 S 
ATOM      3  C   UNL     1       6.450   6.342  15.875  0.00  0.00    +0.000 C 
ATOM      4  C   UNL     1       6.661   5.019  15.131  0.00  0.00    +0.000 C 
ATOM      5  C   UNL     1       6.669   3.838  16.106  0.00  0.00    +0.000 C 
ATOM      6  S   UNL     1       5.060   3.494  16.865  0.00  0.00    +0.000 S 
ENDROOT
BRANCH   1   8
ATOM      7  N   UNL     1       2.817   3.900  19.067  0.00  0.00    +0.000 N 
ATOM      8  C   UNL     1       3.330   5.046  18.421  0.00  0.00    +0.000 C 
ATOM      9  O   UNL     1       2.616   6.063  18.393  0.00  0.00    +0.000 OA
BRANCH   7  11
ATOM     10  C   UNL     1       0.644   2.699  19.282  0.00  0.00    +0.000 C 
ATOM     11  C   UNL     1       1.418   3.989  19.514  0.00  0.00    +0.000 C 
ENDBRANCH   7  11
BRANCH   7  12
ATOM     12  C   UNL     1       3.544   2.628  19.198  0.00  0.00    +0.000 C 
ATOM     13  C   UNL     1       4.266   2.323  20.501  0.00  0.00    +0.000 C 
ENDBRANCH   7  12
ENDBRANCH   1   8
BRANCH   1  14
ATOM     14  C   UNL     1       5.838   5.171  18.865  0.00  0.00    +0.000 C 
ATOM     15  N   UNL     1       6.621   5.216  19.724  0.00  0.00    +0.000 NA
ENDBRANCH   1  14
BRANCH   4  16
ATOM     16  C   UNL     1       5.672   4.787  13.959  0.00  0.00    +0.000 C 
BRANCH  16  17
ATOM     17  N   UNL     1       6.041   3.707  13.026  0.00  0.00    +0.000 NA
ATOM     18  C   UNL     1       4.936   3.331  12.145  0.00  0.00    +0.000 C 
ATOM     19  C   UNL     1       7.190   4.142  12.221  0.00  0.00    +0.000 C 
ENDBRANCH  16  17
ENDBRANCH   4  16
TORSDOF 6
ENDMDL
MODEL 4
REMARK VINA RESULT:      -4.7      1.614      2.218
REMARK  Name = 
REMARK  10 active torsions:
REMARK  status: ('A' for Active; 'I' for Inactive)
REMARK    1  A    between atoms: C_1  and  C_2
REMARK    2  A    between atoms: C_2  and  N_3
REMARK    3  A    between atoms: N_3  and  C_4
REMARK    4  A    between atoms: C_4  and  C_5
REMARK    5  A    between atoms: C_6  and  C_8
REMARK    6  A    between atoms: C_8  and  C_9
REMARK    7  A    between atoms: C_13  and  C_14
REMARK    8  A    between atoms: C_14  and  N_15
REMARK    9  A    between atoms: N_15  and  C_16
REMARK   10  A    between atoms: N_15  and  C_17
REMARK                            x       y       z     vdW  Elec       q    Type
REMARK                         _______ _______ _______ _____ _____    ______ ____
ROOT
ATOM      1  C   UNL     1       4.716   4.613  17.917  0.00  0.00    +0.000 C 
ATOM      2  S   UNL     1       4.370   6.141  16.914  0.00  0.00    +0.000 S 
ATOM      3  C   UNL     1       6.037   6.553  16.311  0.00  0.00    +0.000 C 
ATOM      4  C   UNL     1       6.708   5.469  15.460  0.00  0.00    +0.000 C 
ATOM      5  C   UNL     1       7.014   4.225  16.300  0.00  0.00    +0.000 C 
ATOM      6  S   UNL     1       5.542   3.311  16.831  0.00  0.00    +0.000 S 
ENDROOT
BRANCH   1   8
ATOM      7  N   UNL     1       2.489   4.673  19.305  0.00  0.00    +0.000 N 
ATOM      8  C   UNL     1       3.300   4.043  18.335  0.00  0.00    +0.000 C 
ATOM      9  O   UNL     1       2.837   3.048  17.752  0.00  0.00    +0.000 OA
BRANCH   7  11
ATOM     10  C   UNL     1       1.278   3.268  20.969  0.00  0.00    +0.000 C 
ATOM     11  C   UNL     1       1.228   3.989  19.628  0.00  0.00    +0.000 C 
ENDBRANCH   7  11
BRANCH   7  12
ATOM     12  C   UNL     1       2.887   5.866  20.067  0.00  0.00    +0.000 C 
ATOM     13  C   UNL     1       2.157   7.177  19.818  0.00  0.00    +0.000 C 
ENDBRANCH   7  12
ENDBRANCH   1   8
BRANCH   1  14
ATOM     14  C   UNL     1       5.601   4.859  19.071  0.00  0.00    +0.000 C 
ATOM     15  N   UNL     1       6.344   5.040  19.949  0.00  0.00    +0.000 NA
ENDBRANCH   1  14
BRANCH   4  16
ATOM     16  C   UNL     1       5.933   5.109  14.166  0.00  0.00    +0.000 C 
BRANCH  16  17
ATOM     17  N   UNL     1       6.601   4.138  13.279  0.00  0.00    +0.000 NA
ATOM     18  C   UNL     1       5.650   3.391  12.456  0.00  0.00    +0.000 C 
ATOM     19  C   UNL     1       7.549   4.853  12.415  0.00  0.00    +0.000 C 
ENDBRANCH  16  17
ENDBRANCH   4  16
TORSDOF 6
ENDMDL
MODEL 5
REMARK VINA RESULT:      -4.5      2.834      4.413
REMARK  Name = 
REMARK  10 active torsions:
REMARK  status: ('A' for Active; 'I' for Inactive)
REMARK    1  A    between atoms: C_1  and  C_2
REMARK    2  A    between atoms: C_2  and  N_3
REMARK    3  A    between atoms: N_3  and  C_4
REMARK    4  A    between atoms: C_4  and  C_5
REMARK    5  A    between atoms: C_6  and  C_8
REMARK    6  A    between atoms: C_8  and  C_9
REMARK    7  A    between atoms: C_13  and  C_14
REMARK    8  A    between atoms: C_14  and  N_15
REMARK    9  A    between atoms: N_15  and  C_16
REMARK   10  A    between atoms: N_15  and  C_17
REMARK                            x       y       z     vdW  Elec       q    Type
REMARK                         _______ _______ _______ _____ _____    ______ ____
ROOT
ATOM      1  C   UNL     1       3.529   4.245  18.303  0.00  0.00    +0.000 C 
ATOM      2  S   UNL     1       4.757   3.199  17.377  0.00  0.00    +0.000 S 
ATOM      3  C   UNL     1       5.010   4.196  15.875  0.00  0.00    +0.000 C 
ATOM      4  C   UNL     1       5.552   5.609  16.115  0.00  0.00    +0.000 C 
ATOM      5  C   UNL     1       4.524   6.472  16.854  0.00  0.00    +0.000 C 
ATOM      6  S   UNL     1       4.238   5.972  18.572  0.00  0.00    +0.000 S 
ENDROOT
BRANCH   1   8
ATOM      7  N   UNL     1       2.336   3.913  20.616  0.00  0.00    +0.000 N 
ATOM      8  C   UNL     1       3.380   3.574  19.728  0.00  0.00    +0.000 C 
ATOM      9  O   UNL     1       4.156   2.664  20.068  0.00  0.00    +0.000 OA
BRANCH   7  11
ATOM     10  C   UNL     1       1.253   2.221  22.091  0.00  0.00    +0.000 C 
ATOM     11  C   UNL     1       2.367   3.246  21.927  0.00  0.00    +0.000 C 
ENDBRANCH   7  11
BRANCH   7  12
ATOM     12  C   UNL     1       1.329   4.953  20.352  0.00  0.00    +0.000 C 
ATOM     13  C   UNL     1       1.562   6.358  20.885  0.00  0.00    +0.000 C 
ENDBRANCH   7  12
ENDBRANCH   1   8
BRANCH   1  14
ATOM     14  C   UNL     1       2.241   4.396  17.600  0.00  0.00    +0.000 C 
ATOM     15  N   UNL     1       1.208   4.465  17.067  0.00  0.00    +0.000 NA
ENDBRANCH   1  14
BRANCH   4  16
ATOM     16  C   UNL     1       6.937   5.647  16.812  0.00  0.00    +0.000 C 
BRANCH  16  17
ATOM     17  N   UNL     1       7.059   6.609  17.923  0.00  0.00    +0.000 NA
ATOM     18  C   UNL     1       7.842   6.075  19.037  0.00  0.00    +0.000 C 
ATOM     19  C   UNL     1       7.684   7.840  17.423  0.00  0.00    +0.000 C 
ENDBRANCH  16  17
ENDBRANCH   4  16
TORSDOF 6
ENDMDL
MODEL 6
REMARK VINA RESULT:      -4.5      1.714      2.209
REMARK  Name = 
REMARK  10 active torsions:
REMARK  status: ('A' for Active; 'I' for Inactive)
REMARK    1  A    between atoms: C_1  and  C_2
REMARK    2  A    between atoms: C_2  and  N_3
REMARK    3  A    between atoms: N_3  and  C_4
REMARK    4  A    between atoms: C_4  and  C_5
REMARK    5  A    between atoms: C_6  and  C_8
REMARK    6  A    between atoms: C_8  and  C_9
REMARK    7  A    between atoms: C_13  and  C_14
REMARK    8  A    between atoms: C_14  and  N_15
REMARK    9  A    between atoms: N_15  and  C_16
REMARK   10  A    between atoms: N_15  and  C_17
REMARK                            x       y       z     vdW  Elec       q    Type
REMARK                         _______ _______ _______ _____ _____    ______ ____
ROOT
ATOM      1  C   UNL     1       4.774   5.128  17.876  0.00  0.00    +0.000 C 
ATOM      2  S   UNL     1       4.850   6.634  16.788  0.00  0.00    +0.000 S 
ATOM      3  C   UNL     1       6.539   6.506  16.123  0.00  0.00    +0.000 C 
ATOM      4  C   UNL     1       6.830   5.229  15.326  0.00  0.00    +0.000 C 
ATOM      5  C   UNL     1       6.792   3.996  16.235  0.00  0.00    +0.000 C 
ATOM      6  S   UNL     1       5.140   3.585  16.855  0.00  0.00    +0.000 S 
ENDROOT
BRANCH   1   8
ATOM      7  N   UNL     1       2.806   3.946  19.149  0.00  0.00    +0.000 N 
ATOM      8  C   UNL     1       3.271   5.022  18.360  0.00  0.00    +0.000 C 
ATOM      9  O   UNL     1       2.473   5.941  18.109  0.00  0.00    +0.000 OA
BRANCH   7  11
ATOM     10  C   UNL     1       1.067   3.350  20.830  0.00  0.00    +0.000 C 
ATOM     11  C   UNL     1       1.371   3.959  19.468  0.00  0.00    +0.000 C 
ENDBRANCH   7  11
BRANCH   7  12
ATOM     12  C   UNL     1       3.630   2.794  19.546  0.00  0.00    +0.000 C 
ATOM     13  C   UNL     1       3.440   1.468  18.826  0.00  0.00    +0.000 C 
ENDBRANCH   7  12
ENDBRANCH   1   8
BRANCH   1  14
ATOM     14  C   UNL     1       5.737   5.163  18.993  0.00  0.00    +0.000 C 
ATOM     15  N   UNL     1       6.500   5.134  19.872  0.00  0.00    +0.000 NA
ENDBRANCH   1  14
BRANCH   4  16
ATOM     16  C   UNL     1       5.934   5.044  14.075  0.00  0.00    +0.000 C 
BRANCH  16  17
ATOM     17  N   UNL     1       6.655   4.852  12.803  0.00  0.00    +0.000 NA
ATOM     18  C   UNL     1       8.073   5.193  12.911  0.00  0.00    +0.000 C 
ATOM     19  C   UNL     1       6.513   3.453  12.380  0.00  0.00    +0.000 C 
ENDBRANCH  16  17
ENDBRANCH   4  16
TORSDOF 6
ENDMDL
MODEL 7
REMARK VINA RESULT:      -4.4      2.236      3.177
REMARK  Name = 
REMARK  10 active torsions:
REMARK  status: ('A' for Active; 'I' for Inactive)
REMARK    1  A    between atoms: C_1  and  C_2
REMARK    2  A    between atoms: C_2  and  N_3
REMARK    3  A    between atoms: N_3  and  C_4
REMARK    4  A    between atoms: C_4  and  C_5
REMARK    5  A    between atoms: C_6  and  C_8
REMARK    6  A    between atoms: C_8  and  C_9
REMARK    7  A    between atoms: C_13  and  C_14
REMARK    8  A    between atoms: C_14  and  N_15
REMARK    9  A    between atoms: N_15  and  C_16
REMARK   10  A    between atoms: N_15  and  C_17
REMARK                            x       y       z     vdW  Elec       q    Type
REMARK                         _______ _______ _______ _____ _____    ______ ____
ROOT
ATOM      1  C   UNL     1       4.484   4.879  18.371  0.00  0.00    +0.000 C 
ATOM      2  S   UNL     1       4.108   4.014  16.768  0.00  0.00    +0.000 S 
ATOM      3  C   UNL     1       4.609   5.278  15.558  0.00  0.00    +0.000 C 
ATOM      4  C   UNL     1       6.080   5.701  15.629  0.00  0.00    +0.000 C 
ATOM      5  C   UNL     1       6.374   6.437  16.940  0.00  0.00    +0.000 C 
ATOM      6  S   UNL     1       6.301   5.382  18.412  0.00  0.00    +0.000 S 
ENDROOT
BRANCH   1   8
ATOM      7  N   UNL     1       2.991   3.352  19.896  0.00  0.00    +0.000 N 
ATOM      8  C   UNL     1       4.274   3.795  19.505  0.00  0.00    +0.000 C 
ATOM      9  O   UNL     1       5.259   3.251  20.032  0.00  0.00    +0.000 OA
BRANCH   7  11
ATOM     10  C   UNL     1       1.758   2.585  21.921  0.00  0.00    +0.000 C 
ATOM     11  C   UNL     1       2.958   2.386  21.005  0.00  0.00    +0.000 C 
ENDBRANCH   7  11
BRANCH   7  12
ATOM     12  C   UNL     1       1.731   3.883  19.354  0.00  0.00    +0.000 C 
ATOM     13  C   UNL     1       0.841   2.967  18.528  0.00  0.00    +0.000 C 
ENDBRANCH   7  12
ENDBRANCH   1   8
BRANCH   1  14
ATOM     14  C   UNL     1       3.678   6.096  18.582  0.00  0.00    +0.000 C 
ATOM     15  N   UNL     1       3.048   7.069  18.693  0.00  0.00    +0.000 NA
ENDBRANCH   1  14
BRANCH   4  16
ATOM     16  C   UNL     1       7.085   4.547  15.383  0.00  0.00    +0.000 C 
BRANCH  16  17
ATOM     17  N   UNL     1       7.347   4.228  13.967  0.00  0.00    +0.000 NA
ATOM     18  C   UNL     1       6.161   3.712  13.285  0.00  0.00    +0.000 C 
ATOM     19  C   UNL     1       7.824   5.437  13.285  0.00  0.00    +0.000 C 
ENDBRANCH  16  17
ENDBRANCH   4  16
TORSDOF 6
ENDMDL
MODEL 8
REMARK VINA RESULT:      -4.3      2.477      3.570
REMARK  Name = 
REMARK  10 active torsions:
REMARK  status: ('A' for Active; 'I' for Inactive)
REMARK    1  A    between atoms: C_1  and  C_2
REMARK    2  A    between atoms: C_2  and  N_3
REMARK    3  A    between atoms: N_3  and  C_4
REMARK    4  A    between atoms: C_4  and  C_5
REMARK    5  A    between atoms: C_6  and  C_8
REMARK    6  A    between atoms: C_8  and  C_9
REMARK    7  A    between atoms: C_13  and  C_14
REMARK    8  A    between atoms: C_14  and  N_15
REMARK    9  A    between atoms: N_15  and  C_16
REMARK   10  A    between atoms: N_15  and  C_17
REMARK                            x       y       z     vdW  Elec       q    Type
REMARK                         _______ _______ _______ _____ _____    ______ ____
ROOT
ATOM      1  C   UNL     1       2.495   4.802  19.927  0.00  0.00    +0.000 C 
ATOM      2  S   UNL     1       4.245   5.302  19.545  0.00  0.00    +0.000 S 
ATOM      3  C   UNL     1       4.916   3.751  18.870  0.00  0.00    +0.000 C 
ATOM      4  C   UNL     1       4.203   3.221  17.621  0.00  0.00    +0.000 C 
ATOM      5  C   UNL     1       2.772   2.786  17.951  0.00  0.00    +0.000 C 
ATOM      6  S   UNL     1       1.660   4.156  18.365  0.00  0.00    +0.000 S 
ENDROOT
BRANCH   1   8
ATOM      7  N   UNL     1       1.909   7.343  19.627  0.00  0.00    +0.000 N 
ATOM      8  C   UNL     1       1.747   6.135  20.340  0.00  0.00    +0.000 C 
ATOM      9  O   UNL     1       0.930   6.121  21.277  0.00  0.00    +0.000 OA
BRANCH   7  11
ATOM     10  C   UNL     1       1.720   8.938  21.532  0.00  0.00    +0.000 C 
ATOM     11  C   UNL     1       1.193   8.508  20.170  0.00  0.00    +0.000 C 
ENDBRANCH   7  11
BRANCH   7  12
ATOM     12  C   UNL     1       2.821   7.515  18.486  0.00  0.00    +0.000 C 
ATOM     13  C   UNL     1       2.590   8.671  17.525  0.00  0.00    +0.000 C 
ENDBRANCH   7  12
ENDBRANCH   1   8
BRANCH   1  14
ATOM     14  C   UNL     1       2.398   3.747  20.954  0.00  0.00    +0.000 C 
ATOM     15  N   UNL     1       2.293   2.951  21.796  0.00  0.00    +0.000 NA
ENDBRANCH   1  14
BRANCH   4  16
ATOM     16  C   UNL     1       4.242   4.188  16.410  0.00  0.00    +0.000 C 
BRANCH  16  17
ATOM     17  N   UNL     1       5.538   4.851  16.172  0.00  0.00    +0.000 NA
ATOM     18  C   UNL     1       6.311   4.199  15.116  0.00  0.00    +0.000 C 
ATOM     19  C   UNL     1       5.298   6.255  15.814  0.00  0.00    +0.000 C 
ENDBRANCH  16  17
ENDBRANCH   4  16
TORSDOF 6
ENDMDL
MODEL 9
REMARK VINA RESULT:      -4.3      2.281      3.264
REMARK  Name = 
REMARK  10 active torsions:
REMARK  status: ('A' for Active; 'I' for Inactive)
REMARK    1  A    between atoms: C_1  and  C_2
REMARK    2  A    between atoms: C_2  and  N_3
REMARK    3  A    between atoms: N_3  and  C_4
REMARK    4  A    between atoms: C_4  and  C_5
REMARK    5  A    between atoms: C_6  and  C_8
REMARK    6  A    between atoms: C_8  and  C_9
REMARK    7  A    between atoms: C_13  and  C_14
REMARK    8  A    between atoms: C_14  and  N_15
REMARK    9  A    between atoms: N_15  and  C_16
REMARK   10  A    between atoms: N_15  and  C_17
REMARK                            x       y       z     vdW  Elec       q    Type
REMARK                         _______ _______ _______ _____ _____    ______ ____
ROOT
ATOM      1  C   UNL     1       2.885   4.849  19.523  0.00  0.00    +0.000 C 
ATOM      2  S   UNL     1       4.697   5.253  19.414  0.00  0.00    +0.000 S 
ATOM      3  C   UNL     1       5.283   3.954  18.282  0.00  0.00    +0.000 C 
ATOM      4  C   UNL     1       4.629   3.954  16.896  0.00  0.00    +0.000 C 
ATOM      5  C   UNL     1       3.143   3.594  16.992  0.00  0.00    +0.000 C 
ATOM      6  S   UNL     1       2.125   4.859  17.797  0.00  0.00    +0.000 S 
ENDROOT
BRANCH   1   8
ATOM      7  N   UNL     1       2.099   7.339  19.791  0.00  0.00    +0.000 N 
ATOM      8  C   UNL     1       2.225   6.040  20.330  0.00  0.00    +0.000 C 
ATOM      9  O   UNL     1       1.732   5.828  21.451  0.00  0.00    +0.000 OA
BRANCH   7  11
ATOM     10  C   UNL     1      -0.001   8.277  20.749  0.00  0.00    +0.000 C 
ATOM     11  C   UNL     1       1.519   8.350  20.687  0.00  0.00    +0.000 C 
ENDBRANCH   7  11
BRANCH   7  12
ATOM     12  C   UNL     1       2.613   7.741  18.473  0.00  0.00    +0.000 C 
ATOM     13  C   UNL     1       2.054   8.994  17.816  0.00  0.00    +0.000 C 
ENDBRANCH   7  12
ENDBRANCH   1   8
BRANCH   1  14
ATOM     14  C   UNL     1       2.615   3.528  20.122  0.00  0.00    +0.000 C 
ATOM     15  N   UNL     1       2.361   2.479  20.557  0.00  0.00    +0.000 NA
ENDBRANCH   1  14
BRANCH   4  16
ATOM     16  C   UNL     1       4.849   5.261  16.091  0.00  0.00    +0.000 C 
BRANCH  16  17
ATOM     17  N   UNL     1       5.866   5.184  15.027  0.00  0.00    +0.000 NA
ATOM     18  C   UNL     1       7.213   4.981  15.559  0.00  0.00    +0.000 C 
ATOM     19  C   UNL     1       5.523   4.085  14.116  0.00  0.00    +0.000 C 
ENDBRANCH  16  17
ENDBRANCH   4  16
TORSDOF 6
ENDMDL
