MODEL 1
REMARK VINA RESULT:      -6.5      0.000      0.000
REMARK  Name = 
REMARK  3 active torsions:
REMARK  status: ('A' for Active; 'I' for Inactive)
REMARK    1  A    between atoms: C_2  and  OXT_3
REMARK    2  A    between atoms: C_2  and  CA_4
REMARK    3  A    between atoms: C_7  and  O_8
REMARK                            x       y       z     vdW  Elec       q    Type
REMARK                         _______ _______ _______ _____ _____    ______ ____
ROOT
ATOM      1  CA  UNL     1       5.800   4.440  17.435  0.00  0.00    +0.000 A 
ATOM      2  C   UNL     1       4.487   4.575  17.013  0.00  0.00    +0.000 A 
ATOM      3  C   UNL     1       3.639   3.942  17.968  0.00  0.00    +0.000 A 
ATOM      4  C   UNL     1       2.248   3.748  18.096  0.00  0.00    +0.000 A 
ATOM      5  C   UNL     1       1.732   3.066  19.197  0.00  0.00    +0.000 A 
ATOM      6  C   UNL     1       2.588   2.571  20.178  0.00  0.00    +0.000 A 
ATOM      7  C   UNL     1       3.974   2.737  20.078  0.00  0.00    +0.000 A 
ATOM      8  C   UNL     1       4.470   3.421  18.960  0.00  0.00    +0.000 A 
ATOM      9  N   UNL     1       5.765   3.702  18.597  0.00  0.00    +0.000 N 
ATOM     10  H   UNL     1       6.589   3.425  19.117  0.00  0.00    +0.000 HD
ENDROOT
BRANCH   1  12
ATOM     11  O   UNL     1       7.152   5.800  16.059  0.00  0.00    +0.000 OA
ATOM     12  C   UNL     1       7.042   4.883  16.856  0.00  0.00    +0.000 C 
BRANCH  12  13
ATOM     13  OXT UNL     1       8.089   4.123  17.251  0.00  0.00    +0.000 OA
ATOM     14  HXT UNL     1       8.429   4.380  18.127  0.00  0.00    +0.000 HD
ENDBRANCH  12  13
ENDBRANCH   1  12
BRANCH   4  15
ATOM     15  O   UNL     1       1.343   4.209  17.166  0.00  0.00    +0.000 OA
ATOM     16  H   UNL     1       0.455   3.994  17.490  0.00  0.00    +0.000 HD
ENDBRANCH   4  15
TORSDOF 3
ENDMDL
MODEL 2
REMARK VINA RESULT:      -6.4      1.655      1.709
REMARK  Name = 
REMARK  3 active torsions:
REMARK  status: ('A' for Active; 'I' for Inactive)
REMARK    1  A    between atoms: C_2  and  OXT_3
REMARK    2  A    between atoms: C_2  and  CA_4
REMARK    3  A    between atoms: C_7  and  O_8
REMARK                            x       y       z     vdW  Elec       q    Type
REMARK                         _______ _______ _______ _____ _____    ______ ____
ROOT
ATOM      1  CA  UNL     1       6.098   4.736  18.120  0.00  0.00    +0.000 A 
ATOM      2  C   UNL     1       5.184   5.681  18.558  0.00  0.00    +0.000 A 
ATOM      3  C   UNL     1       4.190   5.020  19.336  0.00  0.00    +0.000 A 
ATOM      4  C   UNL     1       3.032   5.425  20.033  0.00  0.00    +0.000 A 
ATOM      5  C   UNL     1       2.261   4.489  20.720  0.00  0.00    +0.000 A 
ATOM      6  C   UNL     1       2.629   3.145  20.722  0.00  0.00    +0.000 A 
ATOM      7  C   UNL     1       3.766   2.706  20.034  0.00  0.00    +0.000 A 
ATOM      8  C   UNL     1       4.522   3.665  19.346  0.00  0.00    +0.000 A 
ATOM      9  N   UNL     1       5.652   3.516  18.578  0.00  0.00    +0.000 N 
ATOM     10  H   UNL     1       6.112   2.635  18.384  0.00  0.00    +0.000 HD
ENDROOT
BRANCH   1  12
ATOM     11  O   UNL     1       7.385   5.566  16.324  0.00  0.00    +0.000 OA
ATOM     12  C   UNL     1       7.283   4.854  17.309  0.00  0.00    +0.000 C 
BRANCH  12  13
ATOM     13  OXT UNL     1       8.272   4.031  17.728  0.00  0.00    +0.000 OA
ATOM     14  HXT UNL     1       8.083   3.094  17.544  0.00  0.00    +0.000 HD
ENDBRANCH  12  13
ENDBRANCH   1  12
BRANCH   4  15
ATOM     15  O   UNL     1       2.609   6.735  20.074  0.00  0.00    +0.000 OA
ATOM     16  H   UNL     1       2.860   7.150  19.234  0.00  0.00    +0.000 HD
ENDBRANCH   4  15
TORSDOF 3
ENDMDL
MODEL 3
REMARK VINA RESULT:      -6.3      2.077      4.464
REMARK  Name = 
REMARK  3 active torsions:
REMARK  status: ('A' for Active; 'I' for Inactive)
REMARK    1  A    between atoms: C_2  and  OXT_3
REMARK    2  A    between atoms: C_2  and  CA_4
REMARK    3  A    between atoms: C_7  and  O_8
REMARK                            x       y       z     vdW  Elec       q    Type
REMARK                         _______ _______ _______ _____ _____    ______ ____
ROOT
ATOM      1  CA  UNL     1       4.330   3.171  18.015  0.00  0.00    +0.000 A 
ATOM      2  C   UNL     1       4.333   4.124  17.009  0.00  0.00    +0.000 A 
ATOM      3  C   UNL     1       5.380   5.054  17.272  0.00  0.00    +0.000 A 
ATOM      4  C   UNL     1       5.873   6.212  16.633  0.00  0.00    +0.000 A 
ATOM      5  C   UNL     1       6.954   6.906  17.174  0.00  0.00    +0.000 A 
ATOM      6  C   UNL     1       7.554   6.462  18.351  0.00  0.00    +0.000 A 
ATOM      7  C   UNL     1       7.085   5.323  19.015  0.00  0.00    +0.000 A 
ATOM      8  C   UNL     1       5.994   4.645  18.456  0.00  0.00    +0.000 A 
ATOM      9  N   UNL     1       5.321   3.532  18.901  0.00  0.00    +0.000 N 
ATOM     10  H   UNL     1       5.530   3.028  19.754  0.00  0.00    +0.000 HD
ENDROOT
BRANCH   1  12
ATOM     11  O   UNL     1       2.277   2.050  18.334  0.00  0.00    +0.000 OA
ATOM     12  C   UNL     1       3.494   2.021  18.242  0.00  0.00    +0.000 C 
BRANCH  12  13
ATOM     13  OXT UNL     1       4.216   0.888  18.404  0.00  0.00    +0.000 OA
ATOM     14  HXT UNL     1       3.682   0.148  18.743  0.00  0.00    +0.000 HD
ENDBRANCH  12  13
ENDBRANCH   1  12
BRANCH   4  15
ATOM     15  O   UNL     1       5.330   6.708  15.470  0.00  0.00    +0.000 OA
ATOM     16  H   UNL     1       4.573   6.147  15.238  0.00  0.00    +0.000 HD
ENDBRANCH   4  15
TORSDOF 3
ENDMDL
MODEL 4
REMARK VINA RESULT:      -6.3      1.563      1.768
REMARK  Name = 
REMARK  3 active torsions:
REMARK  status: ('A' for Active; 'I' for Inactive)
REMARK    1  A    between atoms: C_2  and  OXT_3
REMARK    2  A    between atoms: C_2  and  CA_4
REMARK    3  A    between atoms: C_7  and  O_8
REMARK                            x       y       z     vdW  Elec       q    Type
REMARK                         _______ _______ _______ _____ _____    ______ ____
ROOT
ATOM      1  CA  UNL     1       5.956   4.563  17.830  0.00  0.00    +0.000 A 
ATOM      2  C   UNL     1       5.216   5.090  18.876  0.00  0.00    +0.000 A 
ATOM      3  C   UNL     1       3.979   4.387  18.952  0.00  0.00    +0.000 A 
ATOM      4  C   UNL     1       2.839   4.456  19.781  0.00  0.00    +0.000 A 
ATOM      5  C   UNL     1       1.770   3.584  19.579  0.00  0.00    +0.000 A 
ATOM      6  C   UNL     1       1.820   2.639  18.556  0.00  0.00    +0.000 A 
ATOM      7  C   UNL     1       2.931   2.548  17.710  0.00  0.00    +0.000 A 
ATOM      8  C   UNL     1       3.991   3.439  17.929  0.00  0.00    +0.000 A 
ATOM      9  N   UNL     1       5.175   3.590  17.246  0.00  0.00    +0.000 N 
ATOM     10  H   UNL     1       5.452   3.052  16.435  0.00  0.00    +0.000 HD
ENDROOT
BRANCH   1  12
ATOM     11  O   UNL     1       7.494   5.829  16.563  0.00  0.00    +0.000 OA
ATOM     12  C   UNL     1       7.259   4.897  17.315  0.00  0.00    +0.000 C 
BRANCH  12  13
ATOM     13  OXT UNL     1       8.206   4.018  17.713  0.00  0.00    +0.000 OA
ATOM     14  HXT UNL     1       9.069   4.441  17.871  0.00  0.00    +0.000 HD
ENDBRANCH  12  13
ENDBRANCH   1  12
BRANCH   4  15
ATOM     15  O   UNL     1       2.720   5.363  20.809  0.00  0.00    +0.000 OA
ATOM     16  H   UNL     1       1.990   5.070  21.376  0.00  0.00    +0.000 HD
ENDBRANCH   4  15
TORSDOF 3
ENDMDL
MODEL 5
REMARK VINA RESULT:      -6.3      2.043      2.296
REMARK  Name = 
REMARK  3 active torsions:
REMARK  status: ('A' for Active; 'I' for Inactive)
REMARK    1  A    between atoms: C_2  and  OXT_3
REMARK    2  A    between atoms: C_2  and  CA_4
REMARK    3  A    between atoms: C_7  and  O_8
REMARK                            x       y       z     vdW  Elec       q    Type
REMARK                         _______ _______ _______ _____ _____    ______ ____
ROOT
ATOM      1  CA  UNL     1       5.242   4.909  19.128  0.00  0.00    +0.000 A 
ATOM      2  C   UNL     1       4.764   3.666  18.743  0.00  0.00    +0.000 A 
ATOM      3  C   UNL     1       3.414   3.547  19.182  0.00  0.00    +0.000 A 
ATOM      4  C   UNL     1       2.418   2.551  19.095  0.00  0.00    +0.000 A 
ATOM      5  C   UNL     1       1.156   2.768  19.645  0.00  0.00    +0.000 A 
ATOM      6  C   UNL     1       0.869   3.972  20.285  0.00  0.00    +0.000 A 
ATOM      7  C   UNL     1       1.835   4.979  20.397  0.00  0.00    +0.000 A 
ATOM      8  C   UNL     1       3.098   4.735  19.842  0.00  0.00    +0.000 A 
ATOM      9  N   UNL     1       4.226   5.521  19.827  0.00  0.00    +0.000 N 
ATOM     10  H   UNL     1       4.303   6.436  20.254  0.00  0.00    +0.000 HD
ENDROOT
BRANCH   1  12
ATOM     11  O   UNL     1       6.889   6.100  17.928  0.00  0.00    +0.000 OA
ATOM     12  C   UNL     1       6.525   5.539  18.948  0.00  0.00    +0.000 C 
BRANCH  12  13
ATOM     13  OXT UNL     1       7.322   5.393  20.031  0.00  0.00    +0.000 OA
ATOM     14  HXT UNL     1       6.977   5.855  20.816  0.00  0.00    +0.000 HD
ENDBRANCH  12  13
ENDBRANCH   1  12
BRANCH   4  15
ATOM     15  O   UNL     1       2.631   1.338  18.478  0.00  0.00    +0.000 OA
ATOM     16  H   UNL     1       2.302   0.646  19.072  0.00  0.00    +0.000 HD
ENDBRANCH   4  15
TORSDOF 3
ENDMDL
MODEL 6
REMARK VINA RESULT:      -6.2      0.652      1.074
REMARK  Name = 
REMARK  3 active torsions:
REMARK  status: ('A' for Active; 'I' for Inactive)
REMARK    1  A    between atoms: C_2  and  OXT_3
REMARK    2  A    between atoms: C_2  and  CA_4
REMARK    3  A    between atoms: C_7  and  O_8
REMARK                            x       y       z     vdW  Elec       q    Type
REMARK                         _______ _______ _______ _____ _____    ______ ____
ROOT
ATOM      1  CA  UNL     1       5.489   4.281  17.998  0.00  0.00    +0.000 A 
ATOM      2  C   UNL     1       4.239   4.468  17.429  0.00  0.00    +0.000 A 
ATOM      3  C   UNL     1       3.263   3.874  18.281  0.00  0.00    +0.000 A 
ATOM      4  C   UNL     1       1.859   3.738  18.250  0.00  0.00    +0.000 A 
ATOM      5  C   UNL     1       1.194   3.082  19.284  0.00  0.00    +0.000 A 
ATOM      6  C   UNL     1       1.912   2.555  20.355  0.00  0.00    +0.000 A 
ATOM      7  C   UNL     1       3.305   2.664  20.414  0.00  0.00    +0.000 A 
ATOM      8  C   UNL     1       3.953   3.323  19.361  0.00  0.00    +0.000 A 
ATOM      9  N   UNL     1       5.292   3.549  19.148  0.00  0.00    +0.000 N 
ATOM     10  H   UNL     1       6.039   3.241  19.758  0.00  0.00    +0.000 HD
ENDROOT
BRANCH   1  12
ATOM     11  O   UNL     1       7.840   4.412  18.158  0.00  0.00    +0.000 OA
ATOM     12  C   UNL     1       6.806   4.671  17.565  0.00  0.00    +0.000 C 
BRANCH  12  13
ATOM     13  OXT UNL     1       6.773   5.418  16.437  0.00  0.00    +0.000 OA
ATOM     14  HXT UNL     1       7.648   5.767  16.193  0.00  0.00    +0.000 HD
ENDBRANCH  12  13
ENDBRANCH   1  12
BRANCH   4  15
ATOM     15  O   UNL     1       1.086   4.233  17.223  0.00  0.00    +0.000 OA
ATOM     16  H   UNL     1       0.967   5.183  17.378  0.00  0.00    +0.000 HD
ENDBRANCH   4  15
TORSDOF 3
ENDMDL
MODEL 7
REMARK VINA RESULT:      -6.1      1.894      2.078
REMARK  Name = 
REMARK  3 active torsions:
REMARK  status: ('A' for Active; 'I' for Inactive)
REMARK    1  A    between atoms: C_2  and  OXT_3
REMARK    2  A    between atoms: C_2  and  CA_4
REMARK    3  A    between atoms: C_7  and  O_8
REMARK                            x       y       z     vdW  Elec       q    Type
REMARK                         _______ _______ _______ _____ _____    ______ ____
ROOT
ATOM      1  CA  UNL     1       5.627   4.487  18.796  0.00  0.00    +0.000 A 
ATOM      2  C   UNL     1       4.746   5.463  19.235  0.00  0.00    +0.000 A 
ATOM      3  C   UNL     1       3.574   4.822  19.730  0.00  0.00    +0.000 A 
ATOM      4  C   UNL     1       2.357   5.260  20.296  0.00  0.00    +0.000 A 
ATOM      5  C   UNL     1       1.393   4.335  20.692  0.00  0.00    +0.000 A 
ATOM      6  C   UNL     1       1.624   2.970  20.532  0.00  0.00    +0.000 A 
ATOM      7  C   UNL     1       2.814   2.501  19.966  0.00  0.00    +0.000 A 
ATOM      8  C   UNL     1       3.767   3.449  19.571  0.00  0.00    +0.000 A 
ATOM      9  N   UNL     1       4.993   3.277  18.973  0.00  0.00    +0.000 N 
ATOM     10  H   UNL     1       5.393   2.384  18.712  0.00  0.00    +0.000 HD
ENDROOT
BRANCH   1  12
ATOM     11  O   UNL     1       7.924   5.029  18.769  0.00  0.00    +0.000 OA
ATOM     12  C   UNL     1       6.939   4.575  18.209  0.00  0.00    +0.000 C 
BRANCH  12  13
ATOM     13  OXT UNL     1       6.954   4.147  16.926  0.00  0.00    +0.000 OA
ATOM     14  HXT UNL     1       7.321   3.250  16.835  0.00  0.00    +0.000 HD
ENDBRANCH  12  13
ENDBRANCH   1  12
BRANCH   4  15
ATOM     15  O   UNL     1       2.062   6.591  20.484  0.00  0.00    +0.000 OA
ATOM     16  H   UNL     1       1.268   6.791  19.964  0.00  0.00    +0.000 HD
ENDBRANCH   4  15
TORSDOF 3
ENDMDL
MODEL 8
REMARK VINA RESULT:      -6.1      1.313      1.464
REMARK  Name = 
REMARK  3 active torsions:
REMARK  status: ('A' for Active; 'I' for Inactive)
REMARK    1  A    between atoms: C_2  and  OXT_3
REMARK    2  A    between atoms: C_2  and  CA_4
REMARK    3  A    between atoms: C_7  and  O_8
REMARK                            x       y       z     vdW  Elec       q    Type
REMARK                         _______ _______ _______ _____ _____    ______ ____
ROOT
ATOM      1  CA  UNL     1       5.857   4.897  17.445  0.00  0.00    +0.000 A 
ATOM      2  C   UNL     1       4.875   3.992  17.073  0.00  0.00    +0.000 A 
ATOM      3  C   UNL     1       3.753   4.166  17.933  0.00  0.00    +0.000 A 
ATOM      4  C   UNL     1       2.483   3.563  18.054  0.00  0.00    +0.000 A 
ATOM      5  C   UNL     1       1.592   3.991  19.037  0.00  0.00    +0.000 A 
ATOM      6  C   UNL     1       1.951   5.019  19.907  0.00  0.00    +0.000 A 
ATOM      7  C   UNL     1       3.206   5.633  19.822  0.00  0.00    +0.000 A 
ATOM      8  C   UNL     1       4.086   5.182  18.830  0.00  0.00    +0.000 A 
ATOM      9  N   UNL     1       5.369   5.578  18.538  0.00  0.00    +0.000 N 
ATOM     10  H   UNL     1       5.888   6.288  19.040  0.00  0.00    +0.000 HD
ENDROOT
BRANCH   1  12
ATOM     11  O   UNL     1       7.485   6.112  16.243  0.00  0.00    +0.000 OA
ATOM     12  C   UNL     1       7.176   5.147  16.923  0.00  0.00    +0.000 C 
BRANCH  12  13
ATOM     13  OXT UNL     1       8.041   4.152  17.222  0.00  0.00    +0.000 OA
ATOM     14  HXT UNL     1       8.877   4.481  17.597  0.00  0.00    +0.000 HD
ENDBRANCH  12  13
ENDBRANCH   1  12
BRANCH   4  15
ATOM     15  O   UNL     1       2.062   2.543  17.230  0.00  0.00    +0.000 OA
ATOM     16  H   UNL     1       1.475   1.971  17.749  0.00  0.00    +0.000 HD
ENDBRANCH   4  15
TORSDOF 3
ENDMDL
MODEL 9
REMARK VINA RESULT:      -6.1      1.884      1.979
REMARK  Name = 
REMARK  3 active torsions:
REMARK  status: ('A' for Active; 'I' for Inactive)
REMARK    1  A    between atoms: C_2  and  OXT_3
REMARK    2  A    between atoms: C_2  and  CA_4
REMARK    3  A    between atoms: C_7  and  O_8
REMARK                            x       y       z     vdW  Elec       q    Type
REMARK                         _______ _______ _______ _____ _____    ______ ____
ROOT
ATOM      1  CA  UNL     1       5.816   4.920  19.118  0.00  0.00    +0.000 A 
ATOM      2  C   UNL     1       4.596   5.409  19.559  0.00  0.00    +0.000 A 
ATOM      3  C   UNL     1       3.621   4.380  19.419  0.00  0.00    +0.000 A 
ATOM      4  C   UNL     1       2.240   4.267  19.688  0.00  0.00    +0.000 A 
ATOM      5  C   UNL     1       1.569   3.073  19.429  0.00  0.00    +0.000 A 
ATOM      6  C   UNL     1       2.258   1.982  18.902  0.00  0.00    +0.000 A 
ATOM      7  C   UNL     1       3.625   2.062  18.614  0.00  0.00    +0.000 A 
ATOM      8  C   UNL     1       4.277   3.274  18.878  0.00  0.00    +0.000 A 
ATOM      9  N   UNL     1       5.587   3.637  18.672  0.00  0.00    +0.000 N 
ATOM     10  H   UNL     1       6.299   3.042  18.267  0.00  0.00    +0.000 HD
ENDROOT
BRANCH   1  12
ATOM     11  O   UNL     1       7.618   5.971  18.014  0.00  0.00    +0.000 OA
ATOM     12  C   UNL     1       7.119   5.529  19.036  0.00  0.00    +0.000 C 
BRANCH  12  13
ATOM     13  OXT UNL     1       7.768   5.507  20.222  0.00  0.00    +0.000 OA
ATOM     14  HXT UNL     1       7.542   4.727  20.759  0.00  0.00    +0.000 HD
ENDBRANCH  12  13
ENDBRANCH   1  12
BRANCH   4  15
ATOM     15  O   UNL     1       1.497   5.302  20.208  0.00  0.00    +0.000 OA
ATOM     16  H   UNL     1       1.232   5.050  21.107  0.00  0.00    +0.000 HD
ENDBRANCH   4  15
TORSDOF 3
ENDMDL
