MODEL 1
REMARK VINA RESULT:      -9.2      0.000      0.000
REMARK  Name = 
REMARK  8 active torsions:
REMARK  status: ('A' for Active; 'I' for Inactive)
REMARK    1  A    between atoms: C_1  and  C_2
REMARK    2  A    between atoms: C_2  and  C_3
REMARK    3  A    between atoms: C_2  and  C_4
REMARK    4  A    between atoms: C_2  and  O_5
REMARK    5  A    between atoms: O_5  and  C_6
REMARK    6  A    between atoms: N_14  and  C_15
REMARK    7  A    between atoms: C_18  and  O_19
REMARK    8  A    between atoms: O_19  and  C_20
REMARK                            x       y       z     vdW  Elec       q    Type
REMARK                         _______ _______ _______ _____ _____    ______ ____
ROOT
ATOM      1  C   UNL     1       1.494   8.436  19.843  0.00  0.00    +0.000 A 
ATOM      2  C   UNL     1       2.194   8.345  18.636  0.00  0.00    +0.000 A 
ATOM      3  C   UNL     1       2.869   7.168  18.281  0.00  0.00    +0.000 A 
ATOM      4  C   UNL     1       2.859   6.057  19.124  0.00  0.00    +0.000 A 
ATOM      5  C   UNL     1       2.197   6.171  20.352  0.00  0.00    +0.000 A 
ATOM      6  F   UNL     1       2.173   5.163  21.238  0.00  0.00    +0.000 F 
ATOM      7  C   UNL     1       1.512   7.338  20.703  0.00  0.00    +0.000 A 
ENDROOT
BRANCH   1  16
ATOM      8  C   UNL     1      -3.480  14.080  21.705  0.00  0.00    +0.000 C 
ATOM      9  O   UNL     1      -4.442  14.448  21.060  0.00  0.00    +0.000 OA
ATOM     10  N   UNL     1      -2.702  13.022  21.277  0.00  0.00    +0.000 N 
ATOM     11  C   UNL     1      -3.008  12.379  19.999  0.00  0.00    +0.000 C 
ATOM     12  C   UNL     1      -1.716  12.119  19.217  0.00  0.00    +0.000 C 
ATOM     13  N   UNL     1      -0.739  11.373  20.031  0.00  0.00    +0.000 N 
ATOM     14  C   UNL     1      -0.086  10.306  19.430  0.00  0.00    +0.000 C 
ATOM     15  O   UNL     1      -0.310  10.012  18.258  0.00  0.00    +0.000 OA
ATOM     16  N   UNL     1       0.762   9.582  20.241  0.00  0.00    +0.000 N 
ATOM     17  C   UNL     1      -0.440  12.012  21.328  0.00  0.00    +0.000 C 
ATOM     18  C   UNL     1      -1.729  12.326  22.109  0.00  0.00    +0.000 C 
ATOM     19  H   UNL     1       0.609   9.678  21.231  0.00  0.00    +0.000 HD
BRANCH   8  20
ATOM     20  O   UNL     1      -3.008  14.649  22.870  0.00  0.00    +0.000 OA
BRANCH  20  22
ATOM     21  C   UNL     1      -2.995  14.860  25.281  0.00  0.00    +0.000 C 
ATOM     22  C   UNL     1      -3.863  14.611  24.049  0.00  0.00    +0.000 C 
ATOM     23  C   UNL     1      -4.543  13.242  24.152  0.00  0.00    +0.000 C 
ATOM     24  C   UNL     1      -4.924  15.739  24.014  0.00  0.00    +0.000 C 
ENDBRANCH  20  22
ENDBRANCH   8  20
ENDBRANCH   1  16
BRANCH   4  25
ATOM     25  O   UNL     1       3.575   4.968  18.676  0.00  0.00    +0.000 OA
BRANCH  25  26
ATOM     26  C   UNL     1       4.613   5.130  17.788  0.00  0.00    +0.000 A 
ATOM     27  C   UNL     1       5.792   5.811  18.099  0.00  0.00    +0.000 A 
ATOM     28  C   UNL     1       6.787   5.977  17.142  0.00  0.00    +0.000 A 
ATOM     29  C   UNL     1       6.630   5.403  15.880  0.00  0.00    +0.000 A 
ATOM     30  N   UNL     1       7.620   5.579  14.907  0.00  0.00    +0.000 N 
ATOM     31  C   UNL     1       7.549   5.047  13.648  0.00  0.00    +0.000 A 
ATOM     32  O   UNL     1       8.419   5.231  12.805  0.00  0.00    +0.000 OA
ATOM     33  C   UNL     1       6.358   4.219  13.340  0.00  0.00    +0.000 A 
ATOM     34  C   UNL     1       5.387   4.030  14.250  0.00  0.00    +0.000 A 
ATOM     35  C   UNL     1       5.487   4.649  15.574  0.00  0.00    +0.000 A 
ATOM     36  C   UNL     1       4.477   4.513  16.533  0.00  0.00    +0.000 A 
ATOM     37  H   UNL     1       8.440   6.139  15.104  0.00  0.00    +0.000 HD
ENDBRANCH  25  26
ENDBRANCH   4  25
TORSDOF 5
ENDMDL
MODEL 2
REMARK VINA RESULT:      -9.0      0.838      1.021
REMARK  Name = 
REMARK  8 active torsions:
REMARK  status: ('A' for Active; 'I' for Inactive)
REMARK    1  A    between atoms: C_1  and  C_2
REMARK    2  A    between atoms: C_2  and  C_3
REMARK    3  A    between atoms: C_2  and  C_4
REMARK    4  A    between atoms: C_2  and  O_5
REMARK    5  A    between atoms: O_5  and  C_6
REMARK    6  A    between atoms: N_14  and  C_15
REMARK    7  A    between atoms: C_18  and  O_19
REMARK    8  A    between atoms: O_19  and  C_20
REMARK                            x       y       z     vdW  Elec       q    Type
REMARK                         _______ _______ _______ _____ _____    ______ ____
ROOT
ATOM      1  C   UNL     1       1.437   8.034  20.295  0.00  0.00    +0.000 A 
ATOM      2  C   UNL     1       2.121   8.080  19.077  0.00  0.00    +0.000 A 
ATOM      3  C   UNL     1       2.760   6.942  18.565  0.00  0.00    +0.000 A 
ATOM      4  C   UNL     1       2.728   5.733  19.259  0.00  0.00    +0.000 A 
ATOM      5  C   UNL     1       2.083   5.705  20.500  0.00  0.00    +0.000 A 
ATOM      6  F   UNL     1       2.041   4.593  21.250  0.00  0.00    +0.000 F 
ATOM      7  C   UNL     1       1.434   6.835  21.007  0.00  0.00    +0.000 A 
ENDROOT
BRANCH   1  16
ATOM      8  C   UNL     1      -3.326  13.638  22.738  0.00  0.00    +0.000 C 
ATOM      9  O   UNL     1      -4.150  14.237  22.075  0.00  0.00    +0.000 OA
ATOM     10  N   UNL     1      -2.573  12.621  22.184  0.00  0.00    +0.000 N 
ATOM     11  C   UNL     1      -2.730  12.307  20.764  0.00  0.00    +0.000 C 
ATOM     12  C   UNL     1      -1.357  12.086  20.119  0.00  0.00    +0.000 C 
ATOM     13  N   UNL     1      -0.574  11.082  20.860  0.00  0.00    +0.000 N 
ATOM     14  C   UNL     1       0.082  10.107  20.120  0.00  0.00    +0.000 C 
ATOM     15  O   UNL     1       0.015  10.099  18.893  0.00  0.00    +0.000 OA
ATOM     16  N   UNL     1       0.740   9.138  20.847  0.00  0.00    +0.000 N 
ATOM     17  C   UNL     1      -0.427  11.389  22.297  0.00  0.00    +0.000 C 
ATOM     18  C   UNL     1      -1.792  11.661  22.954  0.00  0.00    +0.000 C 
ATOM     19  H   UNL     1       0.447   9.033  21.803  0.00  0.00    +0.000 HD
BRANCH   8  20
ATOM     20  O   UNL     1      -2.995  13.887  24.055  0.00  0.00    +0.000 OA
BRANCH  20  22
ATOM     21  C   UNL     1      -1.914  15.234  25.749  0.00  0.00    +0.000 C 
ATOM     22  C   UNL     1      -2.704  15.261  24.443  0.00  0.00    +0.000 C 
ATOM     23  C   UNL     1      -4.013  16.034  24.635  0.00  0.00    +0.000 C 
ATOM     24  C   UNL     1      -1.810  15.966  23.393  0.00  0.00    +0.000 C 
ENDBRANCH  20  22
ENDBRANCH   8  20
ENDBRANCH   1  16
BRANCH   4  25
ATOM     25  O   UNL     1       3.410   4.692  18.665  0.00  0.00    +0.000 OA
BRANCH  25  26
ATOM     26  C   UNL     1       4.488   4.938  17.847  0.00  0.00    +0.000 A 
ATOM     27  C   UNL     1       5.638   5.608  18.271  0.00  0.00    +0.000 A 
ATOM     28  C   UNL     1       6.676   5.862  17.382  0.00  0.00    +0.000 A 
ATOM     29  C   UNL     1       6.593   5.388  16.073  0.00  0.00    +0.000 A 
ATOM     30  N   UNL     1       7.628   5.654  15.169  0.00  0.00    +0.000 N 
ATOM     31  C   UNL     1       7.630   5.222  13.870  0.00  0.00    +0.000 A 
ATOM     32  O   UNL     1       8.538   5.483  13.090  0.00  0.00    +0.000 OA
ATOM     33  C   UNL     1       6.471   4.404  13.437  0.00  0.00    +0.000 A 
ATOM     34  C   UNL     1       5.459   4.131  14.278  0.00  0.00    +0.000 A 
ATOM     35  C   UNL     1       5.481   4.645  15.650  0.00  0.00    +0.000 A 
ATOM     36  C   UNL     1       4.426   4.420  16.543  0.00  0.00    +0.000 A 
ATOM     37  H   UNL     1       8.427   6.207  15.451  0.00  0.00    +0.000 HD
ENDBRANCH  25  26
ENDBRANCH   4  25
TORSDOF 5
ENDMDL
MODEL 3
REMARK VINA RESULT:      -8.8      1.232      1.676
REMARK  Name = 
REMARK  8 active torsions:
REMARK  status: ('A' for Active; 'I' for Inactive)
REMARK    1  A    between atoms: C_1  and  C_2
REMARK    2  A    between atoms: C_2  and  C_3
REMARK    3  A    between atoms: C_2  and  C_4
REMARK    4  A    between atoms: C_2  and  O_5
REMARK    5  A    between atoms: O_5  and  C_6
REMARK    6  A    between atoms: N_14  and  C_15
REMARK    7  A    between atoms: C_18  and  O_19
REMARK    8  A    between atoms: O_19  and  C_20
REMARK                            x       y       z     vdW  Elec       q    Type
REMARK                         _______ _______ _______ _____ _____    ______ ____
ROOT
ATOM      1  C   UNL     1       1.103   8.331  20.513  0.00  0.00    +0.000 A 
ATOM      2  C   UNL     1       1.200   7.080  21.130  0.00  0.00    +0.000 A 
ATOM      3  C   UNL     1       1.944   6.045  20.547  0.00  0.00    +0.000 A 
ATOM      4  C   UNL     1       2.609   6.237  19.336  0.00  0.00    +0.000 A 
ATOM      5  C   UNL     1       2.468   7.476  18.699  0.00  0.00    +0.000 A 
ATOM      6  F   UNL     1       3.041   7.729  17.513  0.00  0.00    +0.000 F 
ATOM      7  C   UNL     1       1.738   8.514  19.284  0.00  0.00    +0.000 A 
ENDROOT
BRANCH   1  16
ATOM      8  C   UNL     1      -3.717  13.850  23.039  0.00  0.00    +0.000 C 
ATOM      9  O   UNL     1      -4.593  14.402  22.403  0.00  0.00    +0.000 OA
ATOM     10  N   UNL     1      -2.959  12.841  22.475  0.00  0.00    +0.000 N 
ATOM     11  C   UNL     1      -3.178  12.479  21.075  0.00  0.00    +0.000 C 
ATOM     12  C   UNL     1      -1.833  12.283  20.366  0.00  0.00    +0.000 C 
ATOM     13  N   UNL     1      -0.978  11.328  21.094  0.00  0.00    +0.000 N 
ATOM     14  C   UNL     1      -0.329  10.353  20.349  0.00  0.00    +0.000 C 
ATOM     15  O   UNL     1      -0.458  10.305  19.128  0.00  0.00    +0.000 OA
ATOM     16  N   UNL     1       0.398   9.429  21.068  0.00  0.00    +0.000 N 
ATOM     17  C   UNL     1      -0.769  11.683  22.512  0.00  0.00    +0.000 C 
ATOM     18  C   UNL     1      -2.107  11.932  23.231  0.00  0.00    +0.000 C 
ATOM     19  H   UNL     1       0.158   9.343  22.041  0.00  0.00    +0.000 HD
BRANCH   8  20
ATOM     20  O   UNL     1      -3.327  14.150  24.329  0.00  0.00    +0.000 OA
BRANCH  20  22
ATOM     21  C   UNL     1      -3.910  16.417  24.941  0.00  0.00    +0.000 C 
ATOM     22  C   UNL     1      -2.766  15.469  24.588  0.00  0.00    +0.000 C 
ATOM     23  C   UNL     1      -2.029  15.973  23.344  0.00  0.00    +0.000 C 
ATOM     24  C   UNL     1      -1.812  15.446  25.809  0.00  0.00    +0.000 C 
ENDBRANCH  20  22
ENDBRANCH   8  20
ENDBRANCH   1  16
BRANCH   4  25
ATOM     25  O   UNL     1       3.289   5.139  18.854  0.00  0.00    +0.000 OA
BRANCH  25  26
ATOM     26  C   UNL     1       4.379   5.297  18.030  0.00  0.00    +0.000 A 
ATOM     27  C   UNL     1       5.549   5.954  18.420  0.00  0.00    +0.000 A 
ATOM     28  C   UNL     1       6.600   6.116  17.525  0.00  0.00    +0.000 A 
ATOM     29  C   UNL     1       6.508   5.564  16.248  0.00  0.00    +0.000 A 
ATOM     30  N   UNL     1       7.556   5.737  15.336  0.00  0.00    +0.000 N 
ATOM     31  C   UNL     1       7.550   5.224  14.067  0.00  0.00    +0.000 A 
ATOM     32  O   UNL     1       8.470   5.405  13.279  0.00  0.00    +0.000 OA
ATOM     33  C   UNL     1       6.366   4.419  13.678  0.00  0.00    +0.000 A 
ATOM     34  C   UNL     1       5.341   4.234  14.528  0.00  0.00    +0.000 A 
ATOM     35  C   UNL     1       5.373   4.833  15.864  0.00  0.00    +0.000 A 
ATOM     36  C   UNL     1       4.307   4.699  16.761  0.00  0.00    +0.000 A 
ATOM     37  H   UNL     1       8.371   6.280  15.589  0.00  0.00    +0.000 HD
ENDBRANCH  25  26
ENDBRANCH   4  25
TORSDOF 5
ENDMDL
MODEL 4
REMARK VINA RESULT:      -8.6      1.341      1.650
REMARK  Name = 
REMARK  8 active torsions:
REMARK  status: ('A' for Active; 'I' for Inactive)
REMARK    1  A    between atoms: C_1  and  C_2
REMARK    2  A    between atoms: C_2  and  C_3
REMARK    3  A    between atoms: C_2  and  C_4
REMARK    4  A    between atoms: C_2  and  O_5
REMARK    5  A    between atoms: O_5  and  C_6
REMARK    6  A    between atoms: N_14  and  C_15
REMARK    7  A    between atoms: C_18  and  O_19
REMARK    8  A    between atoms: O_19  and  C_20
REMARK                            x       y       z     vdW  Elec       q    Type
REMARK                         _______ _______ _______ _____ _____    ______ ____
ROOT
ATOM      1  C   UNL     1       1.118   9.189  20.121  0.00  0.00    +0.000 A 
ATOM      2  C   UNL     1       1.274   8.060  20.931  0.00  0.00    +0.000 A 
ATOM      3  C   UNL     1       1.969   6.932  20.471  0.00  0.00    +0.000 A 
ATOM      4  C   UNL     1       2.523   6.908  19.191  0.00  0.00    +0.000 A 
ATOM      5  C   UNL     1       2.322   8.022  18.367  0.00  0.00    +0.000 A 
ATOM      6  F   UNL     1       2.788   8.063  17.110  0.00  0.00    +0.000 F 
ATOM      7  C   UNL     1       1.642   9.153  18.828  0.00  0.00    +0.000 A 
ENDROOT
BRANCH   1  16
ATOM      8  C   UNL     1      -3.390  14.944  22.692  0.00  0.00    +0.000 C 
ATOM      9  O   UNL     1      -4.574  15.102  22.466  0.00  0.00    +0.000 OA
ATOM     10  N   UNL     1      -2.716  13.839  22.208  0.00  0.00    +0.000 N 
ATOM     11  C   UNL     1      -3.427  12.882  21.360  0.00  0.00    +0.000 C 
ATOM     12  C   UNL     1      -2.548  12.477  20.172  0.00  0.00    +0.000 C 
ATOM     13  N   UNL     1      -1.229  11.998  20.622  0.00  0.00    +0.000 N 
ATOM     14  C   UNL     1      -0.737  10.836  20.042  0.00  0.00    +0.000 C 
ATOM     15  O   UNL     1      -1.380  10.246  19.177  0.00  0.00    +0.000 OA
ATOM     16  N   UNL     1       0.461  10.373  20.540  0.00  0.00    +0.000 N 
ATOM     17  C   UNL     1      -0.516  12.956  21.490  0.00  0.00    +0.000 C 
ATOM     18  C   UNL     1      -1.400  13.413  22.664  0.00  0.00    +0.000 C 
ATOM     19  H   UNL     1       0.717  10.712  21.452  0.00  0.00    +0.000 HD
BRANCH   8  20
ATOM     20  O   UNL     1      -2.566  15.807  23.386  0.00  0.00    +0.000 OA
BRANCH  20  22
ATOM     21  C   UNL     1      -1.536  16.550  25.446  0.00  0.00    +0.000 C 
ATOM     22  C   UNL     1      -2.809  15.993  24.810  0.00  0.00    +0.000 C 
ATOM     23  C   UNL     1      -3.175  14.652  25.454  0.00  0.00    +0.000 C 
ATOM     24  C   UNL     1      -3.927  17.035  25.062  0.00  0.00    +0.000 C 
ENDBRANCH  20  22
ENDBRANCH   8  20
ENDBRANCH   1  16
BRANCH   4  25
ATOM     25  O   UNL     1       3.163   5.737  18.846  0.00  0.00    +0.000 OA
BRANCH  25  26
ATOM     26  C   UNL     1       4.276   5.758  18.039  0.00  0.00    +0.000 A 
ATOM     27  C   UNL     1       5.477   6.374  18.402  0.00  0.00    +0.000 A 
ATOM     28  C   UNL     1       6.553   6.397  17.523  0.00  0.00    +0.000 A 
ATOM     29  C   UNL     1       6.452   5.745  16.294  0.00  0.00    +0.000 A 
ATOM     30  N   UNL     1       7.527   5.777  15.398  0.00  0.00    +0.000 N 
ATOM     31  C   UNL     1       7.515   5.160  14.176  0.00  0.00    +0.000 A 
ATOM     32  O   UNL     1       8.460   5.218  13.399  0.00  0.00    +0.000 OA
ATOM     33  C   UNL     1       6.291   4.398  13.826  0.00  0.00    +0.000 A 
ATOM     34  C   UNL     1       5.240   4.347  14.662  0.00  0.00    +0.000 A 
ATOM     35  C   UNL     1       5.283   5.054  15.944  0.00  0.00    +0.000 A 
ATOM     36  C   UNL     1       4.193   5.061  16.823  0.00  0.00    +0.000 A 
ATOM     37  H   UNL     1       8.369   6.290  15.625  0.00  0.00    +0.000 HD
ENDBRANCH  25  26
ENDBRANCH   4  25
TORSDOF 5
ENDMDL
MODEL 5
REMARK VINA RESULT:      -8.6      0.949      1.270
REMARK  Name = 
REMARK  8 active torsions:
REMARK  status: ('A' for Active; 'I' for Inactive)
REMARK    1  A    between atoms: C_1  and  C_2
REMARK    2  A    between atoms: C_2  and  C_3
REMARK    3  A    between atoms: C_2  and  C_4
REMARK    4  A    between atoms: C_2  and  O_5
REMARK    5  A    between atoms: O_5  and  C_6
REMARK    6  A    between atoms: N_14  and  C_15
REMARK    7  A    between atoms: C_18  and  O_19
REMARK    8  A    between atoms: O_19  and  C_20
REMARK                            x       y       z     vdW  Elec       q    Type
REMARK                         _______ _______ _______ _____ _____    ______ ____
ROOT
ATOM      1  C   UNL     1       1.417   8.196  20.226  0.00  0.00    +0.000 A 
ATOM      2  C   UNL     1       2.028   8.169  18.968  0.00  0.00    +0.000 A 
ATOM      3  C   UNL     1       2.692   7.021  18.514  0.00  0.00    +0.000 A 
ATOM      4  C   UNL     1       2.760   5.875  19.306  0.00  0.00    +0.000 A 
ATOM      5  C   UNL     1       2.188   5.924  20.582  0.00  0.00    +0.000 A 
ATOM      6  F   UNL     1       2.244   4.879  21.422  0.00  0.00    +0.000 F 
ATOM      7  C   UNL     1       1.514   7.062  21.033  0.00  0.00    +0.000 A 
ENDROOT
BRANCH   1  16
ATOM      8  C   UNL     1      -2.990  14.355  21.872  0.00  0.00    +0.000 C 
ATOM      9  O   UNL     1      -3.166  15.335  21.175  0.00  0.00    +0.000 OA
ATOM     10  N   UNL     1      -2.213  13.301  21.431  0.00  0.00    +0.000 N 
ATOM     11  C   UNL     1      -1.546  13.397  20.133  0.00  0.00    +0.000 C 
ATOM     12  C   UNL     1      -0.107  12.879  20.241  0.00  0.00    +0.000 C 
ATOM     13  N   UNL     1      -0.069  11.525  20.823  0.00  0.00    +0.000 N 
ATOM     14  C   UNL     1       0.746  10.586  20.206  0.00  0.00    +0.000 C 
ATOM     15  O   UNL     1       1.416  10.887  19.221  0.00  0.00    +0.000 OA
ATOM     16  N   UNL     1       0.699   9.311  20.727  0.00  0.00    +0.000 N 
ATOM     17  C   UNL     1      -0.755  11.422  22.126  0.00  0.00    +0.000 C 
ATOM     18  C   UNL     1      -2.187  11.982  22.051  0.00  0.00    +0.000 C 
ATOM     19  H   UNL     1      -0.114   9.093  21.278  0.00  0.00    +0.000 HD
BRANCH   8  20
ATOM     20  O   UNL     1      -3.468  14.164  23.153  0.00  0.00    +0.000 OA
BRANCH  20  22
ATOM     21  C   UNL     1      -5.479  13.472  21.997  0.00  0.00    +0.000 C 
ATOM     22  C   UNL     1      -4.897  13.946  23.328  0.00  0.00    +0.000 C 
ATOM     23  C   UNL     1      -5.571  15.251  23.763  0.00  0.00    +0.000 C 
ATOM     24  C   UNL     1      -5.175  12.825  24.361  0.00  0.00    +0.000 C 
ENDBRANCH  20  22
ENDBRANCH   8  20
ENDBRANCH   1  16
BRANCH   4  25
ATOM     25  O   UNL     1       3.457   4.819  18.759  0.00  0.00    +0.000 OA
BRANCH  25  26
ATOM     26  C   UNL     1       4.523   5.044  17.920  0.00  0.00    +0.000 A 
ATOM     27  C   UNL     1       5.672   5.739  18.305  0.00  0.00    +0.000 A 
ATOM     28  C   UNL     1       6.698   5.970  17.396  0.00  0.00    +0.000 A 
ATOM     29  C   UNL     1       6.604   5.447  16.106  0.00  0.00    +0.000 A 
ATOM     30  N   UNL     1       7.626   5.688  15.181  0.00  0.00    +0.000 N 
ATOM     31  C   UNL     1       7.617   5.209  13.898  0.00  0.00    +0.000 A 
ATOM     32  O   UNL     1       8.513   5.449  13.099  0.00  0.00    +0.000 OA
ATOM     33  C   UNL     1       6.460   4.365  13.510  0.00  0.00    +0.000 A 
ATOM     34  C   UNL     1       5.461   4.115  14.372  0.00  0.00    +0.000 A 
ATOM     35  C   UNL     1       5.494   4.679  15.724  0.00  0.00    +0.000 A 
ATOM     36  C   UNL     1       4.452   4.477  16.636  0.00  0.00    +0.000 A 
ATOM     37  H   UNL     1       8.423   6.258  15.433  0.00  0.00    +0.000 HD
ENDBRANCH  25  26
ENDBRANCH   4  25
TORSDOF 5
ENDMDL
MODEL 6
REMARK VINA RESULT:      -8.6      3.043     12.385
REMARK  Name = 
REMARK  8 active torsions:
REMARK  status: ('A' for Active; 'I' for Inactive)
REMARK    1  A    between atoms: C_1  and  C_2
REMARK    2  A    between atoms: C_2  and  C_3
REMARK    3  A    between atoms: C_2  and  C_4
REMARK    4  A    between atoms: C_2  and  O_5
REMARK    5  A    between atoms: O_5  and  C_6
REMARK    6  A    between atoms: N_14  and  C_15
REMARK    7  A    between atoms: C_18  and  O_19
REMARK    8  A    between atoms: O_19  and  C_20
REMARK                            x       y       z     vdW  Elec       q    Type
REMARK                         _______ _______ _______ _____ _____    ______ ____
ROOT
ATOM      1  C   UNL     1       0.464  10.485  19.895  0.00  0.00    +0.000 A 
ATOM      2  C   UNL     1       0.484  11.119  21.141  0.00  0.00    +0.000 A 
ATOM      3  C   UNL     1      -0.190  12.332  21.344  0.00  0.00    +0.000 A 
ATOM      4  C   UNL     1      -0.899  12.937  20.306  0.00  0.00    +0.000 A 
ATOM      5  C   UNL     1      -0.874  12.323  19.049  0.00  0.00    +0.000 A 
ATOM      6  F   UNL     1      -1.497  12.860  17.989  0.00  0.00    +0.000 F 
ATOM      7  C   UNL     1      -0.215  11.107  18.848  0.00  0.00    +0.000 A 
ENDROOT
BRANCH   1  16
ATOM      8  C   UNL     1       4.913   4.312  18.429  0.00  0.00    +0.000 C 
ATOM      9  O   UNL     1       5.812   4.236  17.614  0.00  0.00    +0.000 OA
ATOM     10  N   UNL     1       4.230   5.497  18.623  0.00  0.00    +0.000 N 
ATOM     11  C   UNL     1       4.555   6.655  17.791  0.00  0.00    +0.000 C 
ATOM     12  C   UNL     1       3.269   7.352  17.332  0.00  0.00    +0.000 C 
ATOM     13  N   UNL     1       2.399   7.676  18.478  0.00  0.00    +0.000 N 
ATOM     14  C   UNL     1       1.835   8.944  18.515  0.00  0.00    +0.000 C 
ATOM     15  O   UNL     1       2.048   9.752  17.614  0.00  0.00    +0.000 OA
ATOM     16  N   UNL     1       1.092   9.241  19.637  0.00  0.00    +0.000 N 
ATOM     17  C   UNL     1       2.082   6.511  19.328  0.00  0.00    +0.000 C 
ATOM     18  C   UNL     1       3.360   5.768  19.759  0.00  0.00    +0.000 C 
ATOM     19  H   UNL     1       1.268   8.667  20.444  0.00  0.00    +0.000 HD
BRANCH   8  20
ATOM     20  O   UNL     1       4.428   3.284  19.211  0.00  0.00    +0.000 OA
BRANCH  20  22
ATOM     21  C   UNL     1       2.264   2.306  19.681  0.00  0.00    +0.000 C 
ATOM     22  C   UNL     1       3.389   2.427  18.655  0.00  0.00    +0.000 C 
ATOM     23  C   UNL     1       3.969   1.044  18.344  0.00  0.00    +0.000 C 
ATOM     24  C   UNL     1       2.767   3.050  17.380  0.00  0.00    +0.000 C 
ENDBRANCH  20  22
ENDBRANCH   8  20
ENDBRANCH   1  16
BRANCH   4  25
ATOM     25  O   UNL     1      -1.501  14.136  20.623  0.00  0.00    +0.000 OA
BRANCH  25  26
ATOM     26  C   UNL     1      -2.554  14.180  21.506  0.00  0.00    +0.000 A 
ATOM     27  C   UNL     1      -2.545  14.942  22.677  0.00  0.00    +0.000 A 
ATOM     28  C   UNL     1      -3.626  14.909  23.551  0.00  0.00    +0.000 A 
ATOM     29  C   UNL     1      -4.753  14.157  23.222  0.00  0.00    +0.000 A 
ATOM     30  N   UNL     1      -5.839  14.108  24.104  0.00  0.00    +0.000 N 
ATOM     31  C   UNL     1      -6.985  13.401  23.857  0.00  0.00    +0.000 A 
ATOM     32  O   UNL     1      -7.916  13.356  24.653  0.00  0.00    +0.000 OA
ATOM     33  C   UNL     1      -7.061  12.684  22.561  0.00  0.00    +0.000 A 
ATOM     34  C   UNL     1      -6.036  12.708  21.692  0.00  0.00    +0.000 A 
ATOM     35  C   UNL     1      -4.813  13.448  22.013  0.00  0.00    +0.000 A 
ATOM     36  C   UNL     1      -3.708  13.462  21.154  0.00  0.00    +0.000 A 
ATOM     37  H   UNL     1      -5.803  14.596  24.989  0.00  0.00    +0.000 HD
ENDBRANCH  25  26
ENDBRANCH   4  25
TORSDOF 5
ENDMDL
MODEL 7
REMARK VINA RESULT:      -8.6      1.054      1.535
REMARK  Name = 
REMARK  8 active torsions:
REMARK  status: ('A' for Active; 'I' for Inactive)
REMARK    1  A    between atoms: C_1  and  C_2
REMARK    2  A    between atoms: C_2  and  C_3
REMARK    3  A    between atoms: C_2  and  C_4
REMARK    4  A    between atoms: C_2  and  O_5
REMARK    5  A    between atoms: O_5  and  C_6
REMARK    6  A    between atoms: N_14  and  C_15
REMARK    7  A    between atoms: C_18  and  O_19
REMARK    8  A    between atoms: O_19  and  C_20
REMARK                            x       y       z     vdW  Elec       q    Type
REMARK                         _______ _______ _______ _____ _____    ______ ____
ROOT
ATOM      1  C   UNL     1       1.044   8.906  20.007  0.00  0.00    +0.000 A 
ATOM      2  C   UNL     1       1.181   7.796  20.847  0.00  0.00    +0.000 A 
ATOM      3  C   UNL     1       1.997   6.715  20.485  0.00  0.00    +0.000 A 
ATOM      4  C   UNL     1       2.694   6.719  19.277  0.00  0.00    +0.000 A 
ATOM      5  C   UNL     1       2.515   7.810  18.419  0.00  0.00    +0.000 A 
ATOM      6  F   UNL     1       3.118   7.874  17.222  0.00  0.00    +0.000 F 
ATOM      7  C   UNL     1       1.713   8.896  18.783  0.00  0.00    +0.000 A 
ENDROOT
BRANCH   1  16
ATOM      8  C   UNL     1      -4.152  14.408  21.674  0.00  0.00    +0.000 C 
ATOM      9  O   UNL     1      -5.207  14.614  21.105  0.00  0.00    +0.000 OA
ATOM     10  N   UNL     1      -3.339  13.355  21.302  0.00  0.00    +0.000 N 
ATOM     11  C   UNL     1      -3.729  12.516  20.169  0.00  0.00    +0.000 C 
ATOM     12  C   UNL     1      -2.512  12.234  19.280  0.00  0.00    +0.000 C 
ATOM     13  N   UNL     1      -1.393  11.681  20.064  0.00  0.00    +0.000 N 
ATOM     14  C   UNL     1      -0.722  10.585  19.538  0.00  0.00    +0.000 C 
ATOM     15  O   UNL     1      -1.048  10.112  18.453  0.00  0.00    +0.000 OA
ATOM     16  N   UNL     1       0.266  10.045  20.332  0.00  0.00    +0.000 N 
ATOM     17  C   UNL     1      -1.009  12.519  21.218  0.00  0.00    +0.000 C 
ATOM     18  C   UNL     1      -2.226  12.853  22.098  0.00  0.00    +0.000 C 
ATOM     19  H   UNL     1       0.215  10.271  21.311  0.00  0.00    +0.000 HD
BRANCH   8  20
ATOM     20  O   UNL     1      -3.606  15.170  22.687  0.00  0.00    +0.000 OA
BRANCH  20  22
ATOM     21  C   UNL     1      -5.098  13.860  24.070  0.00  0.00    +0.000 C 
ATOM     22  C   UNL     1      -4.230  15.115  24.002  0.00  0.00    +0.000 C 
ATOM     23  C   UNL     1      -5.091  16.363  24.219  0.00  0.00    +0.000 C 
ATOM     24  C   UNL     1      -3.171  14.988  25.125  0.00  0.00    +0.000 C 
ENDBRANCH  20  22
ENDBRANCH   8  20
ENDBRANCH   1  16
BRANCH   4  25
ATOM     25  O   UNL     1       3.446   5.591  19.024  0.00  0.00    +0.000 OA
BRANCH  25  26
ATOM     26  C   UNL     1       4.506   5.637  18.149  0.00  0.00    +0.000 A 
ATOM     27  C   UNL     1       5.727   6.245  18.451  0.00  0.00    +0.000 A 
ATOM     28  C   UNL     1       6.745   6.295  17.506  0.00  0.00    +0.000 A 
ATOM     29  C   UNL     1       6.566   5.678  16.269  0.00  0.00    +0.000 A 
ATOM     30  N   UNL     1       7.582   5.737  15.307  0.00  0.00    +0.000 N 
ATOM     31  C   UNL     1       7.491   5.155  14.072  0.00  0.00    +0.000 A 
ATOM     32  O   UNL     1       8.385   5.236  13.238  0.00  0.00    +0.000 OA
ATOM     33  C   UNL     1       6.248   4.400  13.779  0.00  0.00    +0.000 A 
ATOM     34  C   UNL     1       5.253   4.324  14.678  0.00  0.00    +0.000 A 
ATOM     35  C   UNL     1       5.377   4.994  15.975  0.00  0.00    +0.000 A 
ATOM     36  C   UNL     1       4.345   4.975  16.921  0.00  0.00    +0.000 A 
ATOM     37  H   UNL     1       8.437   6.245  15.495  0.00  0.00    +0.000 HD
ENDBRANCH  25  26
ENDBRANCH   4  25
TORSDOF 5
ENDMDL
MODEL 8
REMARK VINA RESULT:      -8.5      1.291      1.591
REMARK  Name = 
REMARK  8 active torsions:
REMARK  status: ('A' for Active; 'I' for Inactive)
REMARK    1  A    between atoms: C_1  and  C_2
REMARK    2  A    between atoms: C_2  and  C_3
REMARK    3  A    between atoms: C_2  and  C_4
REMARK    4  A    between atoms: C_2  and  O_5
REMARK    5  A    between atoms: O_5  and  C_6
REMARK    6  A    between atoms: N_14  and  C_15
REMARK    7  A    between atoms: C_18  and  O_19
REMARK    8  A    between atoms: O_19  and  C_20
REMARK                            x       y       z     vdW  Elec       q    Type
REMARK                         _______ _______ _______ _____ _____    ______ ____
ROOT
ATOM      1  C   UNL     1       1.364   8.900  19.688  0.00  0.00    +0.000 A 
ATOM      2  C   UNL     1       1.978   8.726  18.444  0.00  0.00    +0.000 A 
ATOM      3  C   UNL     1       2.591   7.511  18.107  0.00  0.00    +0.000 A 
ATOM      4  C   UNL     1       2.603   6.443  19.004  0.00  0.00    +0.000 A 
ATOM      5  C   UNL     1       2.029   6.640  20.265  0.00  0.00    +0.000 A 
ATOM      6  F   UNL     1       2.033   5.678  21.201  0.00  0.00    +0.000 F 
ATOM      7  C   UNL     1       1.405   7.845  20.600  0.00  0.00    +0.000 A 
ENDROOT
BRANCH   1  16
ATOM      8  C   UNL     1      -3.228  14.691  22.020  0.00  0.00    +0.000 C 
ATOM      9  O   UNL     1      -4.395  14.862  21.727  0.00  0.00    +0.000 OA
ATOM     10  N   UNL     1      -2.538  13.582  21.571  0.00  0.00    +0.000 N 
ATOM     11  C   UNL     1      -3.209  12.635  20.680  0.00  0.00    +0.000 C 
ATOM     12  C   UNL     1      -2.267  12.225  19.542  0.00  0.00    +0.000 C 
ATOM     13  N   UNL     1      -0.980  11.731  20.065  0.00  0.00    +0.000 N 
ATOM     14  C   UNL     1      -0.468  10.566  19.509  0.00  0.00    +0.000 C 
ATOM     15  O   UNL     1      -1.066   9.986  18.606  0.00  0.00    +0.000 OA
ATOM     16  N   UNL     1       0.695  10.089  20.074  0.00  0.00    +0.000 N 
ATOM     17  C   UNL     1      -0.309  12.678  20.977  0.00  0.00    +0.000 C 
ATOM     18  C   UNL     1      -1.254  13.140  22.100  0.00  0.00    +0.000 C 
ATOM     19  H   UNL     1       0.901  10.422  21.000  0.00  0.00    +0.000 HD
BRANCH   8  20
ATOM     20  O   UNL     1      -2.437  15.544  22.764  0.00  0.00    +0.000 OA
BRANCH  20  22
ATOM     21  C   UNL     1      -0.458  16.894  22.423  0.00  0.00    +0.000 C 
ATOM     22  C   UNL     1      -1.951  16.761  22.129  0.00  0.00    +0.000 C 
ATOM     23  C   UNL     1      -2.707  17.972  22.682  0.00  0.00    +0.000 C 
ATOM     24  C   UNL     1      -2.098  16.691  20.588  0.00  0.00    +0.000 C 
ENDBRANCH  20  22
ENDBRANCH   8  20
ENDBRANCH   1  16
BRANCH   4  25
ATOM     25  O   UNL     1       3.254   5.310  18.566  0.00  0.00    +0.000 OA
BRANCH  25  26
ATOM     26  C   UNL     1       4.364   5.407  17.760  0.00  0.00    +0.000 A 
ATOM     27  C   UNL     1       5.537   6.062  18.143  0.00  0.00    +0.000 A 
ATOM     28  C   UNL     1       6.610   6.162  17.265  0.00  0.00    +0.000 A 
ATOM     29  C   UNL     1       6.535   5.548  16.014  0.00  0.00    +0.000 A 
ATOM     30  N   UNL     1       7.605   5.658  15.119  0.00  0.00    +0.000 N 
ATOM     31  C   UNL     1       7.617   5.083  13.877  0.00  0.00    +0.000 A 
ATOM     32  O   UNL     1       8.557   5.209  13.102  0.00  0.00    +0.000 OA
ATOM     33  C   UNL     1       6.427   4.281  13.502  0.00  0.00    +0.000 A 
ATOM     34  C   UNL     1       5.381   4.156  14.336  0.00  0.00    +0.000 A 
ATOM     35  C   UNL     1       5.395   4.819  15.642  0.00  0.00    +0.000 A 
ATOM     36  C   UNL     1       4.308   4.749  16.521  0.00  0.00    +0.000 A 
ATOM     37  H   UNL     1       8.425   6.199  15.363  0.00  0.00    +0.000 HD
ENDBRANCH  25  26
ENDBRANCH   4  25
TORSDOF 5
ENDMDL
MODEL 9
REMARK VINA RESULT:      -8.4      3.040     12.420
REMARK  Name = 
REMARK  8 active torsions:
REMARK  status: ('A' for Active; 'I' for Inactive)
REMARK    1  A    between atoms: C_1  and  C_2
REMARK    2  A    between atoms: C_2  and  C_3
REMARK    3  A    between atoms: C_2  and  C_4
REMARK    4  A    between atoms: C_2  and  O_5
REMARK    5  A    between atoms: O_5  and  C_6
REMARK    6  A    between atoms: N_14  and  C_15
REMARK    7  A    between atoms: C_18  and  O_19
REMARK    8  A    between atoms: O_19  and  C_20
REMARK                            x       y       z     vdW  Elec       q    Type
REMARK                         _______ _______ _______ _____ _____    ______ ____
ROOT
ATOM      1  C   UNL     1       0.509  10.479  19.856  0.00  0.00    +0.000 A 
ATOM      2  C   UNL     1       1.002  11.428  20.757  0.00  0.00    +0.000 A 
ATOM      3  C   UNL     1       0.306  12.619  21.003  0.00  0.00    +0.000 A 
ATOM      4  C   UNL     1      -0.900  12.889  20.354  0.00  0.00    +0.000 A 
ATOM      5  C   UNL     1      -1.363  11.958  19.418  0.00  0.00    +0.000 A 
ATOM      6  F   UNL     1      -2.492  12.160  18.722  0.00  0.00    +0.000 F 
ATOM      7  C   UNL     1      -0.678  10.763  19.181  0.00  0.00    +0.000 A 
ENDROOT
BRANCH   1  16
ATOM      8  C   UNL     1       4.999   4.342  18.361  0.00  0.00    +0.000 C 
ATOM      9  O   UNL     1       5.896   4.274  17.544  0.00  0.00    +0.000 OA
ATOM     10  N   UNL     1       4.307   5.521  18.560  0.00  0.00    +0.000 N 
ATOM     11  C   UNL     1       4.621   6.684  17.730  0.00  0.00    +0.000 C 
ATOM     12  C   UNL     1       3.329   7.372  17.277  0.00  0.00    +0.000 C 
ATOM     13  N   UNL     1       2.461   7.688  18.426  0.00  0.00    +0.000 N 
ATOM     14  C   UNL     1       1.887   8.951  18.468  0.00  0.00    +0.000 C 
ATOM     15  O   UNL     1       2.091   9.763  17.568  0.00  0.00    +0.000 OA
ATOM     16  N   UNL     1       1.146   9.240  19.593  0.00  0.00    +0.000 N 
ATOM     17  C   UNL     1       2.155   6.519  19.275  0.00  0.00    +0.000 C 
ATOM     18  C   UNL     1       3.439   5.784  19.700  0.00  0.00    +0.000 C 
ATOM     19  H   UNL     1       1.328   8.666  20.398  0.00  0.00    +0.000 HD
BRANCH   8  20
ATOM     20  O   UNL     1       4.523   3.309  19.143  0.00  0.00    +0.000 OA
BRANCH  20  22
ATOM     21  C   UNL     1       3.941   1.086  18.385  0.00  0.00    +0.000 C 
ATOM     22  C   UNL     1       3.426   2.503  18.625  0.00  0.00    +0.000 C 
ATOM     23  C   UNL     1       2.914   3.107  17.313  0.00  0.00    +0.000 C 
ATOM     24  C   UNL     1       2.273   2.392  19.653  0.00  0.00    +0.000 C 
ENDBRANCH  20  22
ENDBRANCH   8  20
ENDBRANCH   1  16
BRANCH   4  25
ATOM     25  O   UNL     1      -1.479  14.102  20.663  0.00  0.00    +0.000 OA
BRANCH  25  26
ATOM     26  C   UNL     1      -2.741  14.157  21.207  0.00  0.00    +0.000 A 
ATOM     27  C   UNL     1      -3.757  14.976  20.709  0.00  0.00    +0.000 A 
ATOM     28  C   UNL     1      -5.000  15.017  21.330  0.00  0.00    +0.000 A 
ATOM     29  C   UNL     1      -5.252  14.186  22.421  0.00  0.00    +0.000 A 
ATOM     30  N   UNL     1      -6.496  14.233  23.061  0.00  0.00    +0.000 N 
ATOM     31  C   UNL     1      -6.828  13.450  24.133  0.00  0.00    +0.000 A 
ATOM     32  O   UNL     1      -7.916  13.522  24.690  0.00  0.00    +0.000 OA
ATOM     33  C   UNL     1      -5.801  12.487  24.599  0.00  0.00    +0.000 A 
ATOM     34  C   UNL     1      -4.595  12.415  24.009  0.00  0.00    +0.000 A 
ATOM     35  C   UNL     1      -4.269  13.299  22.887  0.00  0.00    +0.000 A 
ATOM     36  C   UNL     1      -3.010  13.286  22.275  0.00  0.00    +0.000 A 
ATOM     37  H   UNL     1      -7.207  14.883  22.751  0.00  0.00    +0.000 HD
ENDBRANCH  25  26
ENDBRANCH   4  25
TORSDOF 5
ENDMDL
