MODEL 1
REMARK VINA RESULT:      -7.3      0.000      0.000
REMARK  Name = 
REMARK  4 active torsions:
REMARK  status: ('A' for Active; 'I' for Inactive)
REMARK    1  A    between atoms: N_2  and  C_4
REMARK    2  A    between atoms: C_7  and  N_8
REMARK    3  A    between atoms: C_11  and  C_12
REMARK    4  A    between atoms: C_18  and  C_19
REMARK                            x       y       z     vdW  Elec       q    Type
REMARK                         _______ _______ _______ _____ _____    ______ ____
ROOT
ATOM      1  N   UNL     1       0.583   9.710  20.955  0.00  0.00    +0.000 N 
ATOM      2  N   UNL     1       0.910   9.727  22.273  0.00  0.00    +0.000 NA
ATOM      3  N   UNL     1       0.198  10.671  22.874  0.00  0.00    +0.000 NA
ATOM      4  C   UNL     1      -0.692  11.177  21.962  0.00  0.00    +0.000 A 
ATOM      5  C   UNL     1      -0.443  10.622  20.700  0.00  0.00    +0.000 A 
ENDROOT
BRANCH   4   6
ATOM      6  C   UNL     1      -1.739  12.132  22.315  0.00  0.00    +0.000 C 
ATOM      7  N   UNL     1      -1.642  13.329  21.856  0.00  0.00    +0.000 NA
ATOM      8  C   UNL     1      -2.526  14.349  22.407  0.00  0.00    +0.000 C 
ATOM      9  C   UNL     1      -3.839  13.783  22.910  0.00  0.00    +0.000 C 
ATOM     10  C   UNL     1      -3.561  12.617  23.847  0.00  0.00    +0.000 C 
ATOM     11  N   UNL     1      -2.693  11.673  23.179  0.00  0.00    +0.000 N 
ATOM     12  H   UNL     1      -2.559  10.761  23.602  0.00  0.00    +0.000 HD
ENDBRANCH   4   6
BRANCH   5  13
ATOM     13  C   UNL     1      -1.200  10.806  19.446  0.00  0.00    +0.000 A 
ATOM     14  C   UNL     1      -2.052   9.789  18.978  0.00  0.00    +0.000 A 
ATOM     15  C   UNL     1      -2.588   9.832  17.687  0.00  0.00    +0.000 A 
ATOM     16  C   UNL     1      -2.376  10.951  16.892  0.00  0.00    +0.000 A 
ATOM     17 CL   UNL     1      -3.021  11.006  15.300  0.00  0.00    +0.000 Cl
ATOM     18  C   UNL     1      -1.621  12.016  17.371  0.00  0.00    +0.000 A 
ATOM     19  C   UNL     1      -1.001  11.921  18.621  0.00  0.00    +0.000 A 
ENDBRANCH   5  13
BRANCH   1  23
ATOM     20  C   UNL     1       2.806   7.187  18.411  0.00  0.00    +0.000 A 
ATOM     21  C   UNL     1       2.370   8.439  17.952  0.00  0.00    +0.000 A 
ATOM     22  C   UNL     1       1.568   9.241  18.775  0.00  0.00    +0.000 A 
ATOM     23  C   UNL     1       1.237   8.808  20.069  0.00  0.00    +0.000 A 
ATOM     24  C   UNL     1       1.626   7.529  20.494  0.00  0.00    +0.000 A 
ATOM     25  C   UNL     1       2.419   6.717  19.673  0.00  0.00    +0.000 A 
BRANCH  20  27
ATOM     26  O   UNL     1       3.567   5.134  17.641  0.00  0.00    +0.000 OA
ATOM     27  N   UNL     1       3.690   6.364  17.574  0.00  0.00    +0.000 N 
ATOM     28  O   UNL     1       4.499   6.952  16.842  0.00  0.00    +0.000 OA
ENDBRANCH  20  27
ENDBRANCH   1  23
TORSDOF 4
ENDMDL
MODEL 2
REMARK VINA RESULT:      -7.1      0.888      1.600
REMARK  Name = 
REMARK  4 active torsions:
REMARK  status: ('A' for Active; 'I' for Inactive)
REMARK    1  A    between atoms: N_2  and  C_4
REMARK    2  A    between atoms: C_7  and  N_8
REMARK    3  A    between atoms: C_11  and  C_12
REMARK    4  A    between atoms: C_18  and  C_19
REMARK                            x       y       z     vdW  Elec       q    Type
REMARK                         _______ _______ _______ _____ _____    ______ ____
ROOT
ATOM      1  N   UNL     1       0.235  10.360  20.919  0.00  0.00    +0.000 N 
ATOM      2  N   UNL     1       0.452  10.577  22.242  0.00  0.00    +0.000 NA
ATOM      3  N   UNL     1      -0.395  11.506  22.664  0.00  0.00    +0.000 NA
ATOM      4  C   UNL     1      -1.256  11.794  21.636  0.00  0.00    +0.000 A 
ATOM      5  C   UNL     1      -0.854  11.116  20.479  0.00  0.00    +0.000 A 
ENDROOT
BRANCH   4   6
ATOM      6  C   UNL     1      -2.418  12.666  21.790  0.00  0.00    +0.000 C 
ATOM      7  N   UNL     1      -3.451  12.192  22.391  0.00  0.00    +0.000 NA
ATOM      8  C   UNL     1      -4.694  12.951  22.320  0.00  0.00    +0.000 C 
ATOM      9  C   UNL     1      -4.466  14.442  22.161  0.00  0.00    +0.000 C 
ATOM     10  C   UNL     1      -3.511  14.686  21.001  0.00  0.00    +0.000 C 
ATOM     11  N   UNL     1      -2.318  13.895  21.200  0.00  0.00    +0.000 N 
ATOM     12  H   UNL     1      -1.516  14.079  20.608  0.00  0.00    +0.000 HD
ENDBRANCH   4   6
BRANCH   5  13
ATOM     13  C   UNL     1      -1.523  11.058  19.164  0.00  0.00    +0.000 A 
ATOM     14  C   UNL     1      -2.285   9.931  18.807  0.00  0.00    +0.000 A 
ATOM     15  C   UNL     1      -2.725   9.742  17.493  0.00  0.00    +0.000 A 
ATOM     16  C   UNL     1      -2.512  10.736  16.548  0.00  0.00    +0.000 A 
ATOM     17 CL   UNL     1      -3.038  10.506  14.928  0.00  0.00    +0.000 Cl
ATOM     18  C   UNL     1      -1.851  11.907  16.902  0.00  0.00    +0.000 A 
ATOM     19  C   UNL     1      -1.322  12.044  18.189  0.00  0.00    +0.000 A 
ENDBRANCH   5  13
BRANCH   1  23
ATOM     20  C   UNL     1       2.351   7.442  18.733  0.00  0.00    +0.000 A 
ATOM     21  C   UNL     1       2.038   7.218  20.082  0.00  0.00    +0.000 A 
ATOM     22  C   UNL     1       1.402   8.222  20.823  0.00  0.00    +0.000 A 
ATOM     23  C   UNL     1       1.043   9.431  20.206  0.00  0.00    +0.000 A 
ATOM     24  C   UNL     1       1.416   9.668  18.874  0.00  0.00    +0.000 A 
ATOM     25  C   UNL     1       2.062   8.673  18.129  0.00  0.00    +0.000 A 
BRANCH  20  27
ATOM     26  O   UNL     1       2.416   5.267  17.925  0.00  0.00    +0.000 OA
ATOM     27  N   UNL     1       2.971   6.374  17.935  0.00  0.00    +0.000 N 
ATOM     28  O   UNL     1       4.006   6.649  17.313  0.00  0.00    +0.000 OA
ENDBRANCH  20  27
ENDBRANCH   1  23
TORSDOF 4
ENDMDL
MODEL 3
REMARK VINA RESULT:      -7.1      0.934      1.466
REMARK  Name = 
REMARK  4 active torsions:
REMARK  status: ('A' for Active; 'I' for Inactive)
REMARK    1  A    between atoms: N_2  and  C_4
REMARK    2  A    between atoms: C_7  and  N_8
REMARK    3  A    between atoms: C_11  and  C_12
REMARK    4  A    between atoms: C_18  and  C_19
REMARK                            x       y       z     vdW  Elec       q    Type
REMARK                         _______ _______ _______ _____ _____    ______ ____
ROOT
ATOM      1  N   UNL     1       0.187  10.441  20.750  0.00  0.00    +0.000 N 
ATOM      2  N   UNL     1       0.409  10.713  22.063  0.00  0.00    +0.000 NA
ATOM      3  N   UNL     1      -0.457  11.638  22.456  0.00  0.00    +0.000 NA
ATOM      4  C   UNL     1      -1.331  11.867  21.425  0.00  0.00    +0.000 A 
ATOM      5  C   UNL     1      -0.922  11.155  20.291  0.00  0.00    +0.000 A 
ENDROOT
BRANCH   4   6
ATOM      6  C   UNL     1      -2.512  12.718  21.555  0.00  0.00    +0.000 C 
ATOM      7  N   UNL     1      -2.502  13.855  20.955  0.00  0.00    +0.000 NA
ATOM      8  C   UNL     1      -3.550  14.813  21.287  0.00  0.00    +0.000 C 
ATOM      9  C   UNL     1      -4.836  14.149  21.737  0.00  0.00    +0.000 C 
ATOM     10  C   UNL     1      -4.528  13.146  22.840  0.00  0.00    +0.000 C 
ATOM     11  N   UNL     1      -3.493  12.247  22.381  0.00  0.00    +0.000 N 
ATOM     12  H   UNL     1      -3.302  11.416  22.929  0.00  0.00    +0.000 HD
ENDBRANCH   4   6
BRANCH   5  13
ATOM     13  C   UNL     1      -1.599  11.032  18.984  0.00  0.00    +0.000 A 
ATOM     14  C   UNL     1      -2.307   9.860  18.662  0.00  0.00    +0.000 A 
ATOM     15  C   UNL     1      -2.749   9.618  17.357  0.00  0.00    +0.000 A 
ATOM     16  C   UNL     1      -2.593  10.598  16.386  0.00  0.00    +0.000 A 
ATOM     17 CL   UNL     1      -3.121  10.303  14.777  0.00  0.00    +0.000 Cl
ATOM     18  C   UNL     1      -1.986  11.808  16.705  0.00  0.00    +0.000 A 
ATOM     19  C   UNL     1      -1.454  12.002  17.984  0.00  0.00    +0.000 A 
ENDBRANCH   5  13
BRANCH   1  23
ATOM     20  C   UNL     1       2.355   7.493  18.657  0.00  0.00    +0.000 A 
ATOM     21  C   UNL     1       2.051   7.309  20.014  0.00  0.00    +0.000 A 
ATOM     22  C   UNL     1       1.397   8.325  20.724  0.00  0.00    +0.000 A 
ATOM     23  C   UNL     1       1.012   9.505  20.066  0.00  0.00    +0.000 A 
ATOM     24  C   UNL     1       1.376   9.702  18.726  0.00  0.00    +0.000 A 
ATOM     25  C   UNL     1       2.039   8.695  18.013  0.00  0.00    +0.000 A 
BRANCH  20  27
ATOM     26  O   UNL     1       4.086   6.648  17.361  0.00  0.00    +0.000 OA
ATOM     27  N   UNL     1       2.993   6.410  17.895  0.00  0.00    +0.000 N 
ATOM     28  O   UNL     1       2.405   5.321  17.840  0.00  0.00    +0.000 OA
ENDBRANCH  20  27
ENDBRANCH   1  23
TORSDOF 4
ENDMDL
MODEL 4
REMARK VINA RESULT:      -7.0      0.827      1.387
REMARK  Name = 
REMARK  4 active torsions:
REMARK  status: ('A' for Active; 'I' for Inactive)
REMARK    1  A    between atoms: N_2  and  C_4
REMARK    2  A    between atoms: C_7  and  N_8
REMARK    3  A    between atoms: C_11  and  C_12
REMARK    4  A    between atoms: C_18  and  C_19
REMARK                            x       y       z     vdW  Elec       q    Type
REMARK                         _______ _______ _______ _____ _____    ______ ____
ROOT
ATOM      1  N   UNL     1       0.368  10.230  20.570  0.00  0.00    +0.000 N 
ATOM      2  N   UNL     1       0.723  10.482  21.857  0.00  0.00    +0.000 NA
ATOM      3  N   UNL     1      -0.026  11.475  22.316  0.00  0.00    +0.000 NA
ATOM      4  C   UNL     1      -0.963  11.776  21.362  0.00  0.00    +0.000 A 
ATOM      5  C   UNL     1      -0.713  11.034  20.201  0.00  0.00    +0.000 A 
ENDROOT
BRANCH   4   6
ATOM      6  C   UNL     1      -2.053  12.723  21.586  0.00  0.00    +0.000 C 
ATOM      7  N   UNL     1      -3.122  12.286  22.152  0.00  0.00    +0.000 NA
ATOM      8  C   UNL     1      -4.301  13.144  22.143  0.00  0.00    +0.000 C 
ATOM      9  C   UNL     1      -3.958  14.620  22.099  0.00  0.00    +0.000 C 
ATOM     10  C   UNL     1      -2.983  14.877  20.958  0.00  0.00    +0.000 C 
ATOM     11  N   UNL     1      -1.856  13.982  21.092  0.00  0.00    +0.000 N 
ATOM     12  H   UNL     1      -1.039  14.148  20.514  0.00  0.00    +0.000 HD
ENDBRANCH   4   6
BRANCH   5  13
ATOM     13  C   UNL     1      -1.506  10.968  18.958  0.00  0.00    +0.000 A 
ATOM     14  C   UNL     1      -2.295   9.837  18.680  0.00  0.00    +0.000 A 
ATOM     15  C   UNL     1      -2.860   9.642  17.417  0.00  0.00    +0.000 A 
ATOM     16  C   UNL     1      -2.744  10.633  16.451  0.00  0.00    +0.000 A 
ATOM     17 CL   UNL     1      -3.424  10.396  14.891  0.00  0.00    +0.000 Cl
ATOM     18  C   UNL     1      -2.055  11.808  16.735  0.00  0.00    +0.000 A 
ATOM     19  C   UNL     1      -1.404  11.951  17.965  0.00  0.00    +0.000 A 
ENDBRANCH   5  13
BRANCH   1  23
ATOM     20  C   UNL     1       2.672   7.423  18.427  0.00  0.00    +0.000 A 
ATOM     21  C   UNL     1       2.235   8.599  17.798  0.00  0.00    +0.000 A 
ATOM     22  C   UNL     1       1.407   9.491  18.491  0.00  0.00    +0.000 A 
ATOM     23  C   UNL     1       1.051   9.228  19.824  0.00  0.00    +0.000 A 
ATOM     24  C   UNL     1       1.442   8.021  20.421  0.00  0.00    +0.000 A 
ATOM     25  C   UNL     1       2.262   7.119  19.731  0.00  0.00    +0.000 A 
BRANCH  20  27
ATOM     26  O   UNL     1       4.538   7.007  17.111  0.00  0.00    +0.000 OA
ATOM     27  N   UNL     1       3.583   6.510  17.724  0.00  0.00    +0.000 N 
ATOM     28  O   UNL     1       3.348   5.295  17.795  0.00  0.00    +0.000 OA
ENDBRANCH  20  27
ENDBRANCH   1  23
TORSDOF 4
ENDMDL
MODEL 5
REMARK VINA RESULT:      -7.0      1.087      1.316
REMARK  Name = 
REMARK  4 active torsions:
REMARK  status: ('A' for Active; 'I' for Inactive)
REMARK    1  A    between atoms: N_2  and  C_4
REMARK    2  A    between atoms: C_7  and  N_8
REMARK    3  A    between atoms: C_11  and  C_12
REMARK    4  A    between atoms: C_18  and  C_19
REMARK                            x       y       z     vdW  Elec       q    Type
REMARK                         _______ _______ _______ _____ _____    ______ ____
ROOT
ATOM      1  N   UNL     1       0.337  10.564  20.324  0.00  0.00    +0.000 N 
ATOM      2  N   UNL     1       0.731  10.972  21.559  0.00  0.00    +0.000 NA
ATOM      3  N   UNL     1      -0.026  11.996  21.929  0.00  0.00    +0.000 NA
ATOM      4  C   UNL     1      -1.004  12.164  20.982  0.00  0.00    +0.000 A 
ATOM      5  C   UNL     1      -0.776  11.297  19.907  0.00  0.00    +0.000 A 
ENDROOT
BRANCH   4   6
ATOM      6  C   UNL     1      -2.109  13.108  21.137  0.00  0.00    +0.000 C 
ATOM      7  N   UNL     1      -1.879  14.349  20.892  0.00  0.00    +0.000 NA
ATOM      8  C   UNL     1      -2.887  15.324  21.291  0.00  0.00    +0.000 C 
ATOM      9  C   UNL     1      -4.291  14.751  21.303  0.00  0.00    +0.000 C 
ATOM     10  C   UNL     1      -4.304  13.463  22.115  0.00  0.00    +0.000 C 
ATOM     11  N   UNL     1      -3.277  12.579  21.611  0.00  0.00    +0.000 N 
ATOM     12  H   UNL     1      -3.274  11.616  21.928  0.00  0.00    +0.000 HD
ENDBRANCH   4   6
BRANCH   5  13
ATOM     13  C   UNL     1      -1.612  11.070  18.711  0.00  0.00    +0.000 A 
ATOM     14  C   UNL     1      -2.357   9.884  18.583  0.00  0.00    +0.000 A 
ATOM     15  C   UNL     1      -2.959   9.535  17.370  0.00  0.00    +0.000 A 
ATOM     16  C   UNL     1      -2.925  10.426  16.305  0.00  0.00    +0.000 A 
ATOM     17 CL   UNL     1      -3.651  10.000  14.807  0.00  0.00    +0.000 Cl
ATOM     18  C   UNL     1      -2.282  11.652  16.440  0.00  0.00    +0.000 A 
ATOM     19  C   UNL     1      -1.592  11.948  17.620  0.00  0.00    +0.000 A 
ENDBRANCH   5  13
BRANCH   1  23
ATOM     20  C   UNL     1       2.636   7.559  18.464  0.00  0.00    +0.000 A 
ATOM     21  C   UNL     1       2.256   8.700  17.742  0.00  0.00    +0.000 A 
ATOM     22  C   UNL     1       1.428   9.659  18.341  0.00  0.00    +0.000 A 
ATOM     23  C   UNL     1       1.017   9.496  19.674  0.00  0.00    +0.000 A 
ATOM     24  C   UNL     1       1.353   8.323  20.366  0.00  0.00    +0.000 A 
ATOM     25  C   UNL     1       2.171   7.355  19.770  0.00  0.00    +0.000 A 
BRANCH  20  27
ATOM     26  O   UNL     1       4.230   6.942  16.894  0.00  0.00    +0.000 OA
ATOM     27  N   UNL     1       3.546   6.576  17.860  0.00  0.00    +0.000 N 
ATOM     28  O   UNL     1       3.582   5.443  18.359  0.00  0.00    +0.000 OA
ENDBRANCH  20  27
ENDBRANCH   1  23
TORSDOF 4
ENDMDL
MODEL 6
REMARK VINA RESULT:      -7.0      0.527      1.073
REMARK  Name = 
REMARK  4 active torsions:
REMARK  status: ('A' for Active; 'I' for Inactive)
REMARK    1  A    between atoms: N_2  and  C_4
REMARK    2  A    between atoms: C_7  and  N_8
REMARK    3  A    between atoms: C_11  and  C_12
REMARK    4  A    between atoms: C_18  and  C_19
REMARK                            x       y       z     vdW  Elec       q    Type
REMARK                         _______ _______ _______ _____ _____    ______ ____
ROOT
ATOM      1  N   UNL     1       0.491   9.858  21.390  0.00  0.00    +0.000 N 
ATOM      2  N   UNL     1       0.723   9.871  22.728  0.00  0.00    +0.000 NA
ATOM      3  N   UNL     1      -0.056  10.790  23.285  0.00  0.00    +0.000 NA
ATOM      4  C   UNL     1      -0.893  11.279  22.315  0.00  0.00    +0.000 A 
ATOM      5  C   UNL     1      -0.541  10.743  21.071  0.00  0.00    +0.000 A 
ENDROOT
BRANCH   4   6
ATOM      6  C   UNL     1      -1.989  12.202  22.601  0.00  0.00    +0.000 C 
ATOM      7  N   UNL     1      -1.904  13.399  22.139  0.00  0.00    +0.000 NA
ATOM      8  C   UNL     1      -2.851  14.392  22.630  0.00  0.00    +0.000 C 
ATOM      9  C   UNL     1      -4.172  13.787  23.062  0.00  0.00    +0.000 C 
ATOM     10  C   UNL     1      -3.910  12.636  24.023  0.00  0.00    +0.000 C 
ATOM     11  N   UNL     1      -2.976  11.717  23.413  0.00  0.00    +0.000 N 
ATOM     12  H   UNL     1      -2.836  10.813  23.850  0.00  0.00    +0.000 HD
ENDBRANCH   4   6
BRANCH   5  13
ATOM     13  C   UNL     1      -1.212  10.917  19.767  0.00  0.00    +0.000 A 
ATOM     14  C   UNL     1      -2.049   9.906  19.261  0.00  0.00    +0.000 A 
ATOM     15  C   UNL     1      -2.500   9.935  17.938  0.00  0.00    +0.000 A 
ATOM     16  C   UNL     1      -2.220  11.038  17.141  0.00  0.00    +0.000 A 
ATOM     17 CL   UNL     1      -2.760  11.076  15.510  0.00  0.00    +0.000 Cl
ATOM     18  C   UNL     1      -1.481  12.099  17.651  0.00  0.00    +0.000 A 
ATOM     19  C   UNL     1      -0.944  12.016  18.940  0.00  0.00    +0.000 A 
ENDBRANCH   5  13
BRANCH   1  23
ATOM     20  C   UNL     1       2.395   7.115  18.815  0.00  0.00    +0.000 A 
ATOM     21  C   UNL     1       2.140   6.765  20.149  0.00  0.00    +0.000 A 
ATOM     22  C   UNL     1       1.577   7.706  21.020  0.00  0.00    +0.000 A 
ATOM     23  C   UNL     1       1.230   8.982  20.546  0.00  0.00    +0.000 A 
ATOM     24  C   UNL     1       1.546   9.342  19.227  0.00  0.00    +0.000 A 
ATOM     25  C   UNL     1       2.119   8.409  18.354  0.00  0.00    +0.000 A 
BRANCH  20  27
ATOM     26  O   UNL     1       2.286   5.077  17.710  0.00  0.00    +0.000 OA
ATOM     27  N   UNL     1       2.937   6.116  17.884  0.00  0.00    +0.000 N 
ATOM     28  O   UNL     1       4.008   6.378  17.319  0.00  0.00    +0.000 OA
ENDBRANCH  20  27
ENDBRANCH   1  23
TORSDOF 4
ENDMDL
MODEL 7
REMARK VINA RESULT:      -6.9      0.499      1.523
REMARK  Name = 
REMARK  4 active torsions:
REMARK  status: ('A' for Active; 'I' for Inactive)
REMARK    1  A    between atoms: N_2  and  C_4
REMARK    2  A    between atoms: C_7  and  N_8
REMARK    3  A    between atoms: C_11  and  C_12
REMARK    4  A    between atoms: C_18  and  C_19
REMARK                            x       y       z     vdW  Elec       q    Type
REMARK                         _______ _______ _______ _____ _____    ______ ____
ROOT
ATOM      1  N   UNL     1       0.679   9.550  21.082  0.00  0.00    +0.000 N 
ATOM      2  N   UNL     1       0.901   9.615  22.421  0.00  0.00    +0.000 NA
ATOM      3  N   UNL     1       0.148  10.581  22.929  0.00  0.00    +0.000 NA
ATOM      4  C   UNL     1      -0.666  11.054  21.932  0.00  0.00    +0.000 A 
ATOM      5  C   UNL     1      -0.321  10.453  20.715  0.00  0.00    +0.000 A 
ENDROOT
BRANCH   4   6
ATOM      6  C   UNL     1      -1.734  12.023  22.167  0.00  0.00    +0.000 C 
ATOM      7  N   UNL     1      -1.667  13.152  21.557  0.00  0.00    +0.000 NA
ATOM      8  C   UNL     1      -2.572  14.214  21.978  0.00  0.00    +0.000 C 
ATOM      9  C   UNL     1      -3.870  13.687  22.559  0.00  0.00    +0.000 C 
ATOM     10  C   UNL     1      -3.560  12.658  23.637  0.00  0.00    +0.000 C 
ATOM     11  N   UNL     1      -2.674  11.656  23.089  0.00  0.00    +0.000 N 
ATOM     12  H   UNL     1      -2.516  10.810  23.625  0.00  0.00    +0.000 HD
ENDBRANCH   4   6
BRANCH   5  13
ATOM     13  C   UNL     1      -0.976  10.591  19.399  0.00  0.00    +0.000 A 
ATOM     14  C   UNL     1      -0.769  11.746  18.623  0.00  0.00    +0.000 A 
ATOM     15  C   UNL     1      -1.555  12.012  17.498  0.00  0.00    +0.000 A 
ATOM     16  C   UNL     1      -2.476  11.068  17.064  0.00  0.00    +0.000 A 
ATOM     17 CL   UNL     1      -3.455  11.392  15.690  0.00  0.00    +0.000 Cl
ATOM     18  C   UNL     1      -2.627   9.870  17.756  0.00  0.00    +0.000 A 
ATOM     19  C   UNL     1      -1.913   9.657  18.940  0.00  0.00    +0.000 A 
ENDBRANCH   5  13
BRANCH   1  23
ATOM     20  C   UNL     1       2.514   6.645  18.640  0.00  0.00    +0.000 A 
ATOM     21  C   UNL     1       2.208   6.346  19.976  0.00  0.00    +0.000 A 
ATOM     22  C   UNL     1       1.668   7.339  20.804  0.00  0.00    +0.000 A 
ATOM     23  C   UNL     1       1.397   8.616  20.284  0.00  0.00    +0.000 A 
ATOM     24  C   UNL     1       1.764   8.921  18.965  0.00  0.00    +0.000 A 
ATOM     25  C   UNL     1       2.314   7.936  18.135  0.00  0.00    +0.000 A 
BRANCH  20  27
ATOM     26  O   UNL     1       4.089   5.818  17.148  0.00  0.00    +0.000 OA
ATOM     27  N   UNL     1       3.031   5.594  17.752  0.00  0.00    +0.000 N 
ATOM     28  O   UNL     1       2.383   4.541  17.670  0.00  0.00    +0.000 OA
ENDBRANCH  20  27
ENDBRANCH   1  23
TORSDOF 4
ENDMDL
MODEL 8
REMARK VINA RESULT:      -6.9      0.419      1.174
REMARK  Name = 
REMARK  4 active torsions:
REMARK  status: ('A' for Active; 'I' for Inactive)
REMARK    1  A    between atoms: N_2  and  C_4
REMARK    2  A    between atoms: C_7  and  N_8
REMARK    3  A    between atoms: C_11  and  C_12
REMARK    4  A    between atoms: C_18  and  C_19
REMARK                            x       y       z     vdW  Elec       q    Type
REMARK                         _______ _______ _______ _____ _____    ______ ____
ROOT
ATOM      1  N   UNL     1       0.842   9.469  20.818  0.00  0.00    +0.000 N 
ATOM      2  N   UNL     1       1.177   9.507  22.134  0.00  0.00    +0.000 NA
ATOM      3  N   UNL     1       0.485  10.476  22.719  0.00  0.00    +0.000 NA
ATOM      4  C   UNL     1      -0.401  10.978  21.801  0.00  0.00    +0.000 A 
ATOM      5  C   UNL     1      -0.169  10.393  20.550  0.00  0.00    +0.000 A 
ENDROOT
BRANCH   4   6
ATOM      6  C   UNL     1      -1.429  11.960  22.140  0.00  0.00    +0.000 C 
ATOM      7  N   UNL     1      -1.327  13.137  21.632  0.00  0.00    +0.000 NA
ATOM      8  C   UNL     1      -2.187  14.189  22.162  0.00  0.00    +0.000 C 
ATOM      9  C   UNL     1      -3.495  13.659  22.716  0.00  0.00    +0.000 C 
ATOM     10  C   UNL     1      -3.209  12.526  23.691  0.00  0.00    +0.000 C 
ATOM     11  N   UNL     1      -2.368  11.546  23.041  0.00  0.00    +0.000 N 
ATOM     12  H   UNL     1      -2.235  10.650  23.497  0.00  0.00    +0.000 HD
ENDBRANCH   4   6
BRANCH   5  13
ATOM     13  C   UNL     1      -0.929  10.564  19.296  0.00  0.00    +0.000 A 
ATOM     14  C   UNL     1      -0.810  11.753  18.553  0.00  0.00    +0.000 A 
ATOM     15  C   UNL     1      -1.689  12.041  17.504  0.00  0.00    +0.000 A 
ATOM     16  C   UNL     1      -2.620  11.090  17.107  0.00  0.00    +0.000 A 
ATOM     17 CL   UNL     1      -3.712  11.441  15.827  0.00  0.00    +0.000 Cl
ATOM     18  C   UNL     1      -2.689   9.864  17.760  0.00  0.00    +0.000 A 
ATOM     19  C   UNL     1      -1.879   9.625  18.875  0.00  0.00    +0.000 A 
ENDBRANCH   5  13
BRANCH   1  23
ATOM     20  C   UNL     1       3.004   6.852  18.317  0.00  0.00    +0.000 A 
ATOM     21  C   UNL     1       2.594   8.104  17.835  0.00  0.00    +0.000 A 
ATOM     22  C   UNL     1       1.811   8.937  18.645  0.00  0.00    +0.000 A 
ATOM     23  C   UNL     1       1.475   8.536  19.948  0.00  0.00    +0.000 A 
ATOM     24  C   UNL     1       1.838   7.258  20.396  0.00  0.00    +0.000 A 
ATOM     25  C   UNL     1       2.612   6.415  19.589  0.00  0.00    +0.000 A 
BRANCH  20  27
ATOM     26  O   UNL     1       4.856   6.518  16.958  0.00  0.00    +0.000 OA
ATOM     27  N   UNL     1       3.869   5.996  17.493  0.00  0.00    +0.000 N 
ATOM     28  O   UNL     1       3.565   4.799  17.392  0.00  0.00    +0.000 OA
ENDBRANCH  20  27
ENDBRANCH   1  23
TORSDOF 4
ENDMDL
MODEL 9
REMARK VINA RESULT:      -6.9      0.814      1.547
REMARK  Name = 
REMARK  4 active torsions:
REMARK  status: ('A' for Active; 'I' for Inactive)
REMARK    1  A    between atoms: N_2  and  C_4
REMARK    2  A    between atoms: C_7  and  N_8
REMARK    3  A    between atoms: C_11  and  C_12
REMARK    4  A    between atoms: C_18  and  C_19
REMARK                            x       y       z     vdW  Elec       q    Type
REMARK                         _______ _______ _______ _____ _____    ______ ____
ROOT
ATOM      1  N   UNL     1       1.080   9.082  20.945  0.00  0.00    +0.000 N 
ATOM      2  N   UNL     1       1.435   9.012  22.254  0.00  0.00    +0.000 NA
ATOM      3  N   UNL     1       0.828   9.991  22.911  0.00  0.00    +0.000 NA
ATOM      4  C   UNL     1      -0.030  10.615  22.044  0.00  0.00    +0.000 A 
ATOM      5  C   UNL     1       0.138  10.095  20.755  0.00  0.00    +0.000 A 
ENDROOT
BRANCH   4   6
ATOM      6  C   UNL     1      -0.976  11.647  22.463  0.00  0.00    +0.000 C 
ATOM      7  N   UNL     1      -2.016  11.279  23.123  0.00  0.00    +0.000 NA
ATOM      8  C   UNL     1      -3.085  12.250  23.317  0.00  0.00    +0.000 C 
ATOM      9  C   UNL     1      -2.586  13.682  23.331  0.00  0.00    +0.000 C 
ATOM     10  C   UNL     1      -1.725  13.929  22.101  0.00  0.00    +0.000 C 
ATOM     11  N   UNL     1      -0.697  12.915  22.035  0.00  0.00    +0.000 N 
ATOM     12  H   UNL     1       0.062  13.043  21.375  0.00  0.00    +0.000 HD
ENDBRANCH   4   6
BRANCH   5  13
ATOM     13  C   UNL     1      -0.625  10.402  19.528  0.00  0.00    +0.000 A 
ATOM     14  C   UNL     1      -0.502  11.662  18.915  0.00  0.00    +0.000 A 
ATOM     15  C   UNL     1      -1.382  12.064  17.905  0.00  0.00    +0.000 A 
ATOM     16  C   UNL     1      -2.320  11.166  17.414  0.00  0.00    +0.000 A 
ATOM     17 CL   UNL     1      -3.414  11.656  16.183  0.00  0.00    +0.000 Cl
ATOM     18  C   UNL     1      -2.394   9.878  17.934  0.00  0.00    +0.000 A 
ATOM     19  C   UNL     1      -1.582   9.517  19.014  0.00  0.00    +0.000 A 
ENDBRANCH   5  13
BRANCH   1  23
ATOM     20  C   UNL     1       3.002   6.460  18.260  0.00  0.00    +0.000 A 
ATOM     21  C   UNL     1       2.756   7.790  17.887  0.00  0.00    +0.000 A 
ATOM     22  C   UNL     1       2.050   8.635  18.753  0.00  0.00    +0.000 A 
ATOM     23  C   UNL     1       1.627   8.163  20.006  0.00  0.00    +0.000 A 
ATOM     24  C   UNL     1       1.825   6.815  20.342  0.00  0.00    +0.000 A 
ATOM     25  C   UNL     1       2.521   5.961  19.477  0.00  0.00    +0.000 A 
BRANCH  20  27
ATOM     26  O   UNL     1       3.598   4.363  17.464  0.00  0.00    +0.000 OA
ATOM     27  N   UNL     1       3.787   5.584  17.380  0.00  0.00    +0.000 N 
ATOM     28  O   UNL     1       4.585   6.121  16.597  0.00  0.00    +0.000 OA
ENDBRANCH  20  27
ENDBRANCH   1  23
TORSDOF 4
ENDMDL
