MODEL 1
REMARK VINA RESULT:      -7.8      0.000      0.000
REMARK  Name = 
REMARK  5 active torsions:
REMARK  status: ('A' for Active; 'I' for Inactive)
REMARK    1  A    between atoms: C_1  and  N_2
REMARK    2  A    between atoms: N_2  and  C_3
REMARK    3  A    between atoms: C_3  and  C_4
REMARK    4  A    between atoms: C_13  and  C_15
REMARK    5  A    between atoms: N_20  and  C_21
REMARK                            x       y       z     vdW  Elec       q    Type
REMARK                         _______ _______ _______ _____ _____    ______ ____
ROOT
ATOM      1  C   UNL     1       0.996   3.827  19.853  0.00  0.00    +0.000 C 
ATOM      2  N   UNL     1       2.311   4.286  19.416  0.00  0.00    +0.000 N 
ATOM      3  C   UNL     1       2.888   3.576  18.362  0.00  0.00    +0.000 C 
ATOM      4  O   UNL     1       2.284   2.633  17.839  0.00  0.00    +0.000 OA
ENDROOT
BRANCH   3   5
ATOM      5  C   UNL     1       4.234   3.961  17.798  0.00  0.00    +0.000 A 
ATOM      6  C   UNL     1       5.428   4.205  18.571  0.00  0.00    +0.000 A 
ATOM      7  C   UNL     1       6.558   4.648  18.012  0.00  0.00    +0.000 A 
ATOM      8  C   UNL     1       6.662   4.758  16.541  0.00  0.00    +0.000 A 
ATOM      9  O   UNL     1       7.710   5.153  16.048  0.00  0.00    +0.000 OA
ATOM     10  N   UNL     1       5.541   4.334  15.830  0.00  0.00    +0.000 N 
ATOM     11  C   UNL     1       5.628   4.240  14.383  0.00  0.00    +0.000 C 
ATOM     12  C   UNL     1       4.350   3.977  16.455  0.00  0.00    +0.000 A 
ENDBRANCH   3   5
BRANCH   2  13
ATOM     13  C   UNL     1       2.863   5.445  20.128  0.00  0.00    +0.000 C 
BRANCH  13  14
ATOM     14  C   UNL     1       2.439   6.812  19.605  0.00  0.00    +0.000 A 
ATOM     15  C   UNL     1       2.675   7.238  18.275  0.00  0.00    +0.000 A 
ATOM     16  C   UNL     1       2.172   8.456  17.798  0.00  0.00    +0.000 A 
ATOM     17  C   UNL     1       1.443   9.238  18.666  0.00  0.00    +0.000 A 
ATOM     18  C   UNL     1       1.211   8.846  19.961  0.00  0.00    +0.000 A 
ATOM     19  C   UNL     1       1.693   7.651  20.459  0.00  0.00    +0.000 A 
ATOM     20  O   UNL     1       0.453   9.748  20.643  0.00  0.00    +0.000 OA
ATOM     21  C   UNL     1       0.257  10.762  19.634  0.00  0.00    +0.000 C 
ATOM     22  O   UNL     1       0.868  10.433  18.369  0.00  0.00    +0.000 OA
ENDBRANCH  13  14
ENDBRANCH   2  13
TORSDOF 3
ENDMDL
MODEL 2
REMARK VINA RESULT:      -7.8      1.648      6.082
REMARK  Name = 
REMARK  5 active torsions:
REMARK  status: ('A' for Active; 'I' for Inactive)
REMARK    1  A    between atoms: C_1  and  N_2
REMARK    2  A    between atoms: N_2  and  C_3
REMARK    3  A    between atoms: C_3  and  C_4
REMARK    4  A    between atoms: C_13  and  C_15
REMARK    5  A    between atoms: N_20  and  C_21
REMARK                            x       y       z     vdW  Elec       q    Type
REMARK                         _______ _______ _______ _____ _____    ______ ____
ROOT
ATOM      1  C   UNL     1       3.419   1.597  18.292  0.00  0.00    +0.000 C 
ATOM      2  N   UNL     1       3.429   2.986  18.740  0.00  0.00    +0.000 N 
ATOM      3  C   UNL     1       2.191   3.631  18.762  0.00  0.00    +0.000 C 
ATOM      4  O   UNL     1       1.165   3.025  18.436  0.00  0.00    +0.000 OA
ENDROOT
BRANCH   3   5
ATOM      5  C   UNL     1       2.057   5.060  19.228  0.00  0.00    +0.000 A 
ATOM      6  C   UNL     1       1.785   5.479  20.582  0.00  0.00    +0.000 A 
ATOM      7  C   UNL     1       1.572   6.759  20.902  0.00  0.00    +0.000 A 
ATOM      8  C   UNL     1       1.762   7.816  19.885  0.00  0.00    +0.000 A 
ATOM      9  O   UNL     1       1.574   8.983  20.200  0.00  0.00    +0.000 OA
ATOM     10  N   UNL     1       2.204   7.373  18.639  0.00  0.00    +0.000 N 
ATOM     11  C   UNL     1       2.585   8.361  17.644  0.00  0.00    +0.000 C 
ATOM     12  C   UNL     1       2.314   6.023  18.321  0.00  0.00    +0.000 A 
ENDBRANCH   3   5
BRANCH   2  13
ATOM     13  C   UNL     1       4.735   3.535  19.125  0.00  0.00    +0.000 C 
BRANCH  13  14
ATOM     14  C   UNL     1       5.519   4.227  18.018  0.00  0.00    +0.000 A 
ATOM     15  C   UNL     1       6.508   5.210  18.269  0.00  0.00    +0.000 A 
ATOM     16  C   UNL     1       7.287   5.745  17.234  0.00  0.00    +0.000 A 
ATOM     17  C   UNL     1       7.060   5.290  15.954  0.00  0.00    +0.000 A 
ATOM     18  C   UNL     1       6.101   4.344  15.689  0.00  0.00    +0.000 A 
ATOM     19  C   UNL     1       5.318   3.799  16.688  0.00  0.00    +0.000 A 
ATOM     20  O   UNL     1       6.052   4.017  14.369  0.00  0.00    +0.000 OA
ATOM     21  C   UNL     1       7.074   4.885  13.832  0.00  0.00    +0.000 C 
ATOM     22  O   UNL     1       7.732   5.682  14.840  0.00  0.00    +0.000 OA
ENDBRANCH  13  14
ENDBRANCH   2  13
TORSDOF 3
ENDMDL
MODEL 3
REMARK VINA RESULT:      -7.7      1.630      6.242
REMARK  Name = 
REMARK  5 active torsions:
REMARK  status: ('A' for Active; 'I' for Inactive)
REMARK    1  A    between atoms: C_1  and  N_2
REMARK    2  A    between atoms: N_2  and  C_3
REMARK    3  A    between atoms: C_3  and  C_4
REMARK    4  A    between atoms: C_13  and  C_15
REMARK    5  A    between atoms: N_20  and  C_21
REMARK                            x       y       z     vdW  Elec       q    Type
REMARK                         _______ _______ _______ _____ _____    ______ ____
ROOT
ATOM      1  C   UNL     1       3.930   2.318  19.757  0.00  0.00    +0.000 C 
ATOM      2  N   UNL     1       3.836   3.763  19.576  0.00  0.00    +0.000 N 
ATOM      3  C   UNL     1       2.553   4.272  19.371  0.00  0.00    +0.000 C 
ATOM      4  O   UNL     1       1.574   3.518  19.369  0.00  0.00    +0.000 OA
ENDROOT
BRANCH   3   5
ATOM      5  C   UNL     1       2.313   5.751  19.194  0.00  0.00    +0.000 A 
ATOM      6  C   UNL     1       2.382   6.468  17.943  0.00  0.00    +0.000 A 
ATOM      7  C   UNL     1       2.264   7.797  17.877  0.00  0.00    +0.000 A 
ATOM      8  C   UNL     1       1.902   8.568  19.087  0.00  0.00    +0.000 A 
ATOM      9  O   UNL     1       1.786   9.783  19.004  0.00  0.00    +0.000 OA
ATOM     10  N   UNL     1       1.665   7.807  20.230  0.00  0.00    +0.000 N 
ATOM     11  C   UNL     1       1.131   8.468  21.409  0.00  0.00    +0.000 C 
ATOM     12  C   UNL     1       1.899   6.436  20.278  0.00  0.00    +0.000 A 
ENDBRANCH   3   5
BRANCH   2  13
ATOM     13  C   UNL     1       5.099   4.508  19.644  0.00  0.00    +0.000 C 
BRANCH  13  14
ATOM     14  C   UNL     1       5.714   4.900  18.306  0.00  0.00    +0.000 A 
ATOM     15  C   UNL     1       6.653   5.952  18.165  0.00  0.00    +0.000 A 
ATOM     16  C   UNL     1       7.281   6.211  16.939  0.00  0.00    +0.000 A 
ATOM     17  C   UNL     1       6.953   5.416  15.865  0.00  0.00    +0.000 A 
ATOM     18  C   UNL     1       6.039   4.398  15.978  0.00  0.00    +0.000 A 
ATOM     19  C   UNL     1       5.404   4.118  17.173  0.00  0.00    +0.000 A 
ATOM     20  O   UNL     1       5.875   3.720  14.810  0.00  0.00    +0.000 OA
ATOM     21  C   UNL     1       6.773   4.447  13.943  0.00  0.00    +0.000 C 
ATOM     22  O   UNL     1       7.476   5.513  14.614  0.00  0.00    +0.000 OA
ENDBRANCH  13  14
ENDBRANCH   2  13
TORSDOF 3
ENDMDL
MODEL 4
REMARK VINA RESULT:      -7.6      1.532      2.085
REMARK  Name = 
REMARK  5 active torsions:
REMARK  status: ('A' for Active; 'I' for Inactive)
REMARK    1  A    between atoms: C_1  and  N_2
REMARK    2  A    between atoms: N_2  and  C_3
REMARK    3  A    between atoms: C_3  and  C_4
REMARK    4  A    between atoms: C_13  and  C_15
REMARK    5  A    between atoms: N_20  and  C_21
REMARK                            x       y       z     vdW  Elec       q    Type
REMARK                         _______ _______ _______ _____ _____    ______ ____
ROOT
ATOM      1  C   UNL     1       2.595   2.845  20.707  0.00  0.00    +0.000 C 
ATOM      2  N   UNL     1       3.157   3.539  19.553  0.00  0.00    +0.000 N 
ATOM      3  C   UNL     1       4.529   3.382  19.352  0.00  0.00    +0.000 C 
ATOM      4  O   UNL     1       5.195   2.673  20.115  0.00  0.00    +0.000 OA
ENDROOT
BRANCH   3   5
ATOM      5  C   UNL     1       5.232   4.026  18.182  0.00  0.00    +0.000 A 
ATOM      6  C   UNL     1       5.032   3.685  16.794  0.00  0.00    +0.000 A 
ATOM      7  C   UNL     1       5.769   4.223  15.817  0.00  0.00    +0.000 A 
ATOM      8  C   UNL     1       6.722   5.311  16.124  0.00  0.00    +0.000 A 
ATOM      9  O   UNL     1       7.378   5.800  15.213  0.00  0.00    +0.000 OA
ATOM     10  N   UNL     1       6.743   5.729  17.453  0.00  0.00    +0.000 N 
ATOM     11  C   UNL     1       7.517   6.909  17.800  0.00  0.00    +0.000 C 
ATOM     12  C   UNL     1       6.035   5.073  18.454  0.00  0.00    +0.000 A 
ENDBRANCH   3   5
BRANCH   2  13
ATOM     13  C   UNL     1       2.211   4.307  18.734  0.00  0.00    +0.000 C 
BRANCH  13  14
ATOM     14  C   UNL     1       2.138   5.801  19.026  0.00  0.00    +0.000 A 
ATOM     15  C   UNL     1       2.420   6.793  18.055  0.00  0.00    +0.000 A 
ATOM     16  C   UNL     1       2.235   8.156  18.327  0.00  0.00    +0.000 A 
ATOM     17  C   UNL     1       1.774   8.508  19.575  0.00  0.00    +0.000 A 
ATOM     18  C   UNL     1       1.502   7.562  20.533  0.00  0.00    +0.000 A 
ATOM     19  C   UNL     1       1.675   6.212  20.294  0.00  0.00    +0.000 A 
ATOM     20  O   UNL     1       1.037   8.115  21.686  0.00  0.00    +0.000 OA
ATOM     21  C   UNL     1       1.071   9.519  21.350  0.00  0.00    +0.000 C 
ATOM     22  O   UNL     1       1.520   9.773  20.002  0.00  0.00    +0.000 OA
ENDBRANCH  13  14
ENDBRANCH   2  13
TORSDOF 3
ENDMDL
MODEL 5
REMARK VINA RESULT:      -7.6      1.522      1.790
REMARK  Name = 
REMARK  5 active torsions:
REMARK  status: ('A' for Active; 'I' for Inactive)
REMARK    1  A    between atoms: C_1  and  N_2
REMARK    2  A    between atoms: N_2  and  C_3
REMARK    3  A    between atoms: C_3  and  C_4
REMARK    4  A    between atoms: C_13  and  C_15
REMARK    5  A    between atoms: N_20  and  C_21
REMARK                            x       y       z     vdW  Elec       q    Type
REMARK                         _______ _______ _______ _____ _____    ______ ____
ROOT
ATOM      1  C   UNL     1       2.343   2.492  19.887  0.00  0.00    +0.000 C 
ATOM      2  N   UNL     1       3.142   3.452  19.132  0.00  0.00    +0.000 N 
ATOM      3  C   UNL     1       4.521   3.398  19.339  0.00  0.00    +0.000 C 
ATOM      4  O   UNL     1       5.005   2.562  20.107  0.00  0.00    +0.000 OA
ENDROOT
BRANCH   3   5
ATOM      5  C   UNL     1       5.464   4.319  18.603  0.00  0.00    +0.000 A 
ATOM      6  C   UNL     1       6.258   5.362  19.206  0.00  0.00    +0.000 A 
ATOM      7  C   UNL     1       6.990   6.211  18.477  0.00  0.00    +0.000 A 
ATOM      8  C   UNL     1       7.126   6.005  17.018  0.00  0.00    +0.000 A 
ATOM      9  O   UNL     1       7.810   6.785  16.371  0.00  0.00    +0.000 OA
ATOM     10  N   UNL     1       6.486   4.874  16.513  0.00  0.00    +0.000 N 
ATOM     11  C   UNL     1       6.719   4.503  15.128  0.00  0.00    +0.000 C 
ATOM     12  C   UNL     1       5.652   4.077  17.291  0.00  0.00    +0.000 A 
ENDBRANCH   3   5
BRANCH   2  13
ATOM     13  C   UNL     1       2.402   4.350  18.236  0.00  0.00    +0.000 C 
BRANCH  13  14
ATOM     14  C   UNL     1       2.272   5.795  18.700  0.00  0.00    +0.000 A 
ATOM     15  C   UNL     1       2.481   6.904  17.843  0.00  0.00    +0.000 A 
ATOM     16  C   UNL     1       2.243   8.216  18.275  0.00  0.00    +0.000 A 
ATOM     17  C   UNL     1       1.805   8.401  19.567  0.00  0.00    +0.000 A 
ATOM     18  C   UNL     1       1.604   7.341  20.415  0.00  0.00    +0.000 A 
ATOM     19  C   UNL     1       1.830   6.036  20.018  0.00  0.00    +0.000 A 
ATOM     20  O   UNL     1       1.150   7.736  21.636  0.00  0.00    +0.000 OA
ATOM     21  C   UNL     1       1.112   9.169  21.464  0.00  0.00    +0.000 C 
ATOM     22  O   UNL     1       1.509   9.596  20.143  0.00  0.00    +0.000 OA
ENDBRANCH  13  14
ENDBRANCH   2  13
TORSDOF 3
ENDMDL
MODEL 6
REMARK VINA RESULT:      -7.5      0.787      1.497
REMARK  Name = 
REMARK  5 active torsions:
REMARK  status: ('A' for Active; 'I' for Inactive)
REMARK    1  A    between atoms: C_1  and  N_2
REMARK    2  A    between atoms: N_2  and  C_3
REMARK    3  A    between atoms: C_3  and  C_4
REMARK    4  A    between atoms: C_13  and  C_15
REMARK    5  A    between atoms: N_20  and  C_21
REMARK                            x       y       z     vdW  Elec       q    Type
REMARK                         _______ _______ _______ _____ _____    ______ ____
ROOT
ATOM      1  C   UNL     1       1.249   3.204  19.729  0.00  0.00    +0.000 C 
ATOM      2  N   UNL     1       2.501   3.828  19.315  0.00  0.00    +0.000 N 
ATOM      3  C   UNL     1       3.077   3.328  18.147  0.00  0.00    +0.000 C 
ATOM      4  O   UNL     1       2.524   2.422  17.515  0.00  0.00    +0.000 OA
ENDROOT
BRANCH   3   5
ATOM      5  C   UNL     1       4.360   3.901  17.594  0.00  0.00    +0.000 A 
ATOM      6  C   UNL     1       5.479   4.362  18.381  0.00  0.00    +0.000 A 
ATOM      7  C   UNL     1       6.539   4.959  17.827  0.00  0.00    +0.000 A 
ATOM      8  C   UNL     1       6.664   5.027  16.355  0.00  0.00    +0.000 A 
ATOM      9  O   UNL     1       7.649   5.565  15.867  0.00  0.00    +0.000 OA
ATOM     10  N   UNL     1       5.644   4.402  15.640  0.00  0.00    +0.000 N 
ATOM     11  C   UNL     1       5.784   4.267  14.200  0.00  0.00    +0.000 C 
ATOM     12  C   UNL     1       4.509   3.883  16.255  0.00  0.00    +0.000 A 
ENDBRANCH   3   5
BRANCH   2  13
ATOM     13  C   UNL     1       2.996   4.916  20.167  0.00  0.00    +0.000 C 
BRANCH  13  14
ATOM     14  C   UNL     1       2.360   6.282  19.942  0.00  0.00    +0.000 A 
ATOM     15  C   UNL     1       1.597   6.952  20.931  0.00  0.00    +0.000 A 
ATOM     16  C   UNL     1       1.120   8.254  20.728  0.00  0.00    +0.000 A 
ATOM     17  C   UNL     1       1.410   8.868  19.530  0.00  0.00    +0.000 A 
ATOM     18  C   UNL     1       2.140   8.233  18.557  0.00  0.00    +0.000 A 
ATOM     19  C   UNL     1       2.623   6.950  18.727  0.00  0.00    +0.000 A 
ATOM     20  O   UNL     1       2.333   9.019  17.462  0.00  0.00    +0.000 OA
ATOM     21  C   UNL     1       1.618  10.212  17.852  0.00  0.00    +0.000 C 
ATOM     22  O   UNL     1       1.046  10.128  19.174  0.00  0.00    +0.000 OA
ENDBRANCH  13  14
ENDBRANCH   2  13
TORSDOF 3
ENDMDL
MODEL 7
REMARK VINA RESULT:      -7.5      1.832      4.127
REMARK  Name = 
REMARK  5 active torsions:
REMARK  status: ('A' for Active; 'I' for Inactive)
REMARK    1  A    between atoms: C_1  and  N_2
REMARK    2  A    between atoms: N_2  and  C_3
REMARK    3  A    between atoms: C_3  and  C_4
REMARK    4  A    between atoms: C_13  and  C_15
REMARK    5  A    between atoms: N_20  and  C_21
REMARK                            x       y       z     vdW  Elec       q    Type
REMARK                         _______ _______ _______ _____ _____    ______ ____
ROOT
ATOM      1  C   UNL     1       6.422   6.631  17.957  0.00  0.00    +0.000 C 
ATOM      2  N   UNL     1       5.160   5.900  17.906  0.00  0.00    +0.000 N 
ATOM      3  C   UNL     1       5.132   4.681  18.586  0.00  0.00    +0.000 C 
ATOM      4  O   UNL     1       6.127   4.285  19.200  0.00  0.00    +0.000 OA
ENDROOT
BRANCH   3   5
ATOM      5  C   UNL     1       3.882   3.837  18.633  0.00  0.00    +0.000 A 
ATOM      6  C   UNL     1       3.356   3.056  17.539  0.00  0.00    +0.000 A 
ATOM      7  C   UNL     1       2.184   2.418  17.620  0.00  0.00    +0.000 A 
ATOM      8  C   UNL     1       1.455   2.370  18.906  0.00  0.00    +0.000 A 
ATOM      9  O   UNL     1       0.391   1.769  18.962  0.00  0.00    +0.000 OA
ATOM     10  N   UNL     1       2.098   2.984  19.979  0.00  0.00    +0.000 N 
ATOM     11  C   UNL     1       1.537   2.826  21.310  0.00  0.00    +0.000 C 
ATOM     12  C   UNL     1       3.266   3.724  19.827  0.00  0.00    +0.000 A 
ENDBRANCH   3   5
BRANCH   2  13
ATOM     13  C   UNL     1       4.070   6.539  17.159  0.00  0.00    +0.000 C 
BRANCH  13  14
ATOM     14  C   UNL     1       3.176   7.478  17.959  0.00  0.00    +0.000 A 
ATOM     15  C   UNL     1       2.699   8.712  17.450  0.00  0.00    +0.000 A 
ATOM     16  C   UNL     1       1.789   9.497  18.171  0.00  0.00    +0.000 A 
ATOM     17  C   UNL     1       1.371   9.037  19.399  0.00  0.00    +0.000 A 
ATOM     18  C   UNL     1       1.828   7.849  19.914  0.00  0.00    +0.000 A 
ATOM     19  C   UNL     1       2.726   7.054  19.227  0.00  0.00    +0.000 A 
ATOM     20  O   UNL     1       1.278   7.567  21.127  0.00  0.00    +0.000 OA
ATOM     21  C   UNL     1       0.443   8.728  21.325  0.00  0.00    +0.000 C 
ATOM     22  O   UNL     1       0.483   9.656  20.221  0.00  0.00    +0.000 OA
ENDBRANCH  13  14
ENDBRANCH   2  13
TORSDOF 3
ENDMDL
MODEL 8
REMARK VINA RESULT:      -7.5      1.610      2.498
REMARK  Name = 
REMARK  5 active torsions:
REMARK  status: ('A' for Active; 'I' for Inactive)
REMARK    1  A    between atoms: C_1  and  N_2
REMARK    2  A    between atoms: N_2  and  C_3
REMARK    3  A    between atoms: C_3  and  C_4
REMARK    4  A    between atoms: C_13  and  C_15
REMARK    5  A    between atoms: N_20  and  C_21
REMARK                            x       y       z     vdW  Elec       q    Type
REMARK                         _______ _______ _______ _____ _____    ______ ____
ROOT
ATOM      1  C   UNL     1       2.520   2.569  20.721  0.00  0.00    +0.000 C 
ATOM      2  N   UNL     1       3.100   3.312  19.607  0.00  0.00    +0.000 N 
ATOM      3  C   UNL     1       4.490   3.261  19.495  0.00  0.00    +0.000 C 
ATOM      4  O   UNL     1       5.157   2.599  20.296  0.00  0.00    +0.000 OA
ENDROOT
BRANCH   3   5
ATOM      5  C   UNL     1       5.215   3.965  18.374  0.00  0.00    +0.000 A 
ATOM      6  C   UNL     1       4.944   3.800  16.966  0.00  0.00    +0.000 A 
ATOM      7  C   UNL     1       5.698   4.374  16.024  0.00  0.00    +0.000 A 
ATOM      8  C   UNL     1       6.758   5.333  16.408  0.00  0.00    +0.000 A 
ATOM      9  O   UNL     1       7.429   5.858  15.531  0.00  0.00    +0.000 OA
ATOM     10  N   UNL     1       6.857   5.597  17.773  0.00  0.00    +0.000 N 
ATOM     11  C   UNL     1       7.747   6.657  18.214  0.00  0.00    +0.000 C 
ATOM     12  C   UNL     1       6.120   4.900  18.725  0.00  0.00    +0.000 A 
ENDBRANCH   3   5
BRANCH   2  13
ATOM     13  C   UNL     1       2.153   4.013  18.732  0.00  0.00    +0.000 C 
BRANCH  13  14
ATOM     14  C   UNL     1       1.956   5.497  19.016  0.00  0.00    +0.000 A 
ATOM     15  C   UNL     1       1.718   6.011  20.315  0.00  0.00    +0.000 A 
ATOM     16  C   UNL     1       1.653   7.391  20.554  0.00  0.00    +0.000 A 
ATOM     17  C   UNL     1       1.821   8.240  19.484  0.00  0.00    +0.000 A 
ATOM     18  C   UNL     1       2.043   7.762  18.217  0.00  0.00    +0.000 A 
ATOM     19  C   UNL     1       2.113   6.408  17.950  0.00  0.00    +0.000 A 
ATOM     20  O   UNL     1       2.204   8.764  17.309  0.00  0.00    +0.000 OA
ATOM     21  C   UNL     1       2.031   9.926  18.149  0.00  0.00    +0.000 C 
ATOM     22  O   UNL     1       1.807   9.598  19.537  0.00  0.00    +0.000 OA
ENDBRANCH  13  14
ENDBRANCH   2  13
TORSDOF 3
ENDMDL
MODEL 9
REMARK VINA RESULT:      -7.4      1.773      5.481
REMARK  Name = 
REMARK  5 active torsions:
REMARK  status: ('A' for Active; 'I' for Inactive)
REMARK    1  A    between atoms: C_1  and  N_2
REMARK    2  A    between atoms: N_2  and  C_3
REMARK    3  A    between atoms: C_3  and  C_4
REMARK    4  A    between atoms: C_13  and  C_15
REMARK    5  A    between atoms: N_20  and  C_21
REMARK                            x       y       z     vdW  Elec       q    Type
REMARK                         _______ _______ _______ _____ _____    ______ ____
ROOT
ATOM      1  C   UNL     1       3.238   1.484  18.197  0.00  0.00    +0.000 C 
ATOM      2  N   UNL     1       3.282   2.838  18.739  0.00  0.00    +0.000 N 
ATOM      3  C   UNL     1       2.104   3.579  18.633  0.00  0.00    +0.000 C 
ATOM      4  O   UNL     1       1.096   3.079  18.123  0.00  0.00    +0.000 OA
ENDROOT
BRANCH   3   5
ATOM      5  C   UNL     1       2.007   4.984  19.175  0.00  0.00    +0.000 A 
ATOM      6  C   UNL     1       1.750   5.335  20.551  0.00  0.00    +0.000 A 
ATOM      7  C   UNL     1       1.570   6.601  20.940  0.00  0.00    +0.000 A 
ATOM      8  C   UNL     1       1.782   7.707  19.980  0.00  0.00    +0.000 A 
ATOM      9  O   UNL     1       1.625   8.860  20.359  0.00  0.00    +0.000 OA
ATOM     10  N   UNL     1       2.209   7.321  18.711  0.00  0.00    +0.000 N 
ATOM     11  C   UNL     1       2.611   8.351  17.768  0.00  0.00    +0.000 C 
ATOM     12  C   UNL     1       2.284   5.988  18.320  0.00  0.00    +0.000 A 
ENDBRANCH   3   5
BRANCH   2  13
ATOM     13  C   UNL     1       4.554   3.254  19.342  0.00  0.00    +0.000 C 
BRANCH  13  14
ATOM     14  C   UNL     1       5.416   4.188  18.502  0.00  0.00    +0.000 A 
ATOM     15  C   UNL     1       5.343   4.244  17.088  0.00  0.00    +0.000 A 
ATOM     16  C   UNL     1       6.070   5.193  16.356  0.00  0.00    +0.000 A 
ATOM     17  C   UNL     1       6.868   6.072  17.052  0.00  0.00    +0.000 A 
ATOM     18  C   UNL     1       6.959   6.029  18.421  0.00  0.00    +0.000 A 
ATOM     19  C   UNL     1       6.255   5.105  19.170  0.00  0.00    +0.000 A 
ATOM     20  O   UNL     1       7.781   6.995  18.914  0.00  0.00    +0.000 OA
ATOM     21  C   UNL     1       8.216   7.634  17.694  0.00  0.00    +0.000 C 
ATOM     22  O   UNL     1       7.623   7.063  16.508  0.00  0.00    +0.000 OA
ENDBRANCH  13  14
ENDBRANCH   2  13
TORSDOF 3
ENDMDL
