MODEL 1
REMARK VINA RESULT:      -9.4      0.000      0.000
REMARK  Name = 
REMARK  4 active torsions:
REMARK  status: ('A' for Active; 'I' for Inactive)
REMARK    1  A    between atoms: C_2  and  C_3
REMARK    2  A    between atoms: N_6  and  C_7
REMARK    3  A    between atoms: C_14  and  N_15
REMARK    4  A    between atoms: C_16  and  C_18
REMARK                            x       y       z     vdW  Elec       q    Type
REMARK                         _______ _______ _______ _____ _____    ______ ____
ROOT
ATOM      1  N   UNL     1       3.986   4.926  18.213  0.00  0.00    +0.000 N 
ATOM      2  C   UNL     1       5.367   4.916  18.257  0.00  0.00    +0.000 C 
ATOM      3  O   UNL     1       6.018   4.780  19.290  0.00  0.00    +0.000 OA
ATOM      4  H   UNL     1       3.539   4.770  17.305  0.00  0.00    +0.000 HD
ENDROOT
BRANCH   2   5
ATOM      5  C   UNL     1       6.038   4.948  16.910  0.00  0.00    +0.000 A 
ATOM      6  C   UNL     1       5.562   4.128  15.957  0.00  0.00    +0.000 A 
ATOM      7  C   UNL     1       6.127   4.139  14.614  0.00  0.00    +0.000 A 
ATOM      8  C   UNL     1       5.656   3.309  13.594  0.00  0.00    +0.000 A 
ATOM      9  C   UNL     1       6.222   3.392  12.317  0.00  0.00    +0.000 A 
ATOM     10 CL   UNL     1       5.641   2.368  11.061  0.00  0.00    +0.000 Cl
ATOM     11  C   UNL     1       7.254   4.293  12.045  0.00  0.00    +0.000 A 
ATOM     12  C   UNL     1       7.732   5.117  13.063  0.00  0.00    +0.000 A 
ATOM     13  C   UNL     1       7.164   5.023  14.331  0.00  0.00    +0.000 A 
ATOM     14  O   UNL     1       7.676   5.871  15.324  0.00  0.00    +0.000 OA
ATOM     15  C   UNL     1       7.152   5.876  16.607  0.00  0.00    +0.000 A 
ATOM     16  O   UNL     1       7.581   6.656  17.454  0.00  0.00    +0.000 OA
ENDBRANCH   2   5
BRANCH   1  21
ATOM     17  C   UNL     1       3.045   3.582  20.132  0.00  0.00    +0.000 A 
ATOM     18  C   UNL     1       2.346   4.029  21.265  0.00  0.00    +0.000 A 
ATOM     19  N   UNL     1       2.090   5.337  21.229  0.00  0.00    +0.000 NA
ATOM     20  N   UNL     1       2.527   5.732  20.006  0.00  0.00    +0.000 N 
ATOM     21  C   UNL     1       3.214   4.708  19.348  0.00  0.00    +0.000 A 
BRANCH  20  22
ATOM     22  C   UNL     1       2.197   7.028  19.517  0.00  0.00    +0.000 A 
ATOM     23  C   UNL     1       1.558   7.941  20.376  0.00  0.00    +0.000 A 
ATOM     24  C   UNL     1       1.234   9.219  19.919  0.00  0.00    +0.000 A 
ATOM     25  C   UNL     1       1.514   9.572  18.604  0.00  0.00    +0.000 A 
ATOM     26  F   UNL     1       1.192  10.796  18.166  0.00  0.00    +0.000 F 
ATOM     27  C   UNL     1       2.108   8.668  17.732  0.00  0.00    +0.000 A 
ATOM     28  C   UNL     1       2.452   7.395  18.188  0.00  0.00    +0.000 A 
ENDBRANCH  20  22
BRANCH  17  30
ATOM     29  N   UNL     1       4.165   1.276  19.806  0.00  0.00    +0.000 NA
ATOM     30  C   UNL     1       3.625   2.291  19.967  0.00  0.00    +0.000 C 
ENDBRANCH  17  30
ENDBRANCH   1  21
TORSDOF 4
ENDMDL
MODEL 2
REMARK VINA RESULT:      -9.3      4.451      7.684
REMARK  Name = 
REMARK  4 active torsions:
REMARK  status: ('A' for Active; 'I' for Inactive)
REMARK    1  A    between atoms: C_2  and  C_3
REMARK    2  A    between atoms: N_6  and  C_7
REMARK    3  A    between atoms: C_14  and  N_15
REMARK    4  A    between atoms: C_16  and  C_18
REMARK                            x       y       z     vdW  Elec       q    Type
REMARK                         _______ _______ _______ _____ _____    ______ ____
ROOT
ATOM      1  N   UNL     1       2.417   5.411  18.479  0.00  0.00    +0.000 N 
ATOM      2  C   UNL     1       2.381   6.021  19.718  0.00  0.00    +0.000 C 
ATOM      3  O   UNL     1       2.835   5.518  20.743  0.00  0.00    +0.000 OA
ATOM      4  H   UNL     1       2.271   6.001  17.654  0.00  0.00    +0.000 HD
ENDROOT
BRANCH   2   5
ATOM      5  C   UNL     1       1.860   7.434  19.706  0.00  0.00    +0.000 A 
ATOM      6  C   UNL     1       1.134   7.840  20.762  0.00  0.00    +0.000 A 
ATOM      7  C   UNL     1       0.639   9.208  20.844  0.00  0.00    +0.000 A 
ATOM      8  C   UNL     1      -0.112   9.671  21.927  0.00  0.00    +0.000 A 
ATOM      9  C   UNL     1      -0.529  11.006  21.960  0.00  0.00    +0.000 A 
ATOM     10 CL   UNL     1      -1.454  11.576  23.295  0.00  0.00    +0.000 Cl
ATOM     11  C   UNL     1      -0.208  11.885  20.923  0.00  0.00    +0.000 A 
ATOM     12  C   UNL     1       0.534  11.424  19.837  0.00  0.00    +0.000 A 
ATOM     13  C   UNL     1       0.941  10.093  19.814  0.00  0.00    +0.000 A 
ATOM     14  O   UNL     1       1.685   9.672  18.702  0.00  0.00    +0.000 OA
ATOM     15  C   UNL     1       2.165   8.375  18.604  0.00  0.00    +0.000 A 
ATOM     16  O   UNL     1       2.854   8.034  17.645  0.00  0.00    +0.000 OA
ENDBRANCH   2   5
BRANCH   1  21
ATOM     17  C   UNL     1       2.553   2.894  18.333  0.00  0.00    +0.000 A 
ATOM     18  C   UNL     1       3.584   2.094  17.814  0.00  0.00    +0.000 A 
ATOM     19  N   UNL     1       4.650   2.803  17.445  0.00  0.00    +0.000 NA
ATOM     20  N   UNL     1       4.361   4.073  17.831  0.00  0.00    +0.000 N 
ATOM     21  C   UNL     1       3.043   4.186  18.282  0.00  0.00    +0.000 A 
BRANCH  20  22
ATOM     22  C   UNL     1       5.378   5.070  17.816  0.00  0.00    +0.000 A 
ATOM     23  C   UNL     1       5.381   6.027  16.784  0.00  0.00    +0.000 A 
ATOM     24  C   UNL     1       6.363   7.018  16.757  0.00  0.00    +0.000 A 
ATOM     25  C   UNL     1       7.355   7.033  17.731  0.00  0.00    +0.000 A 
ATOM     26  F   UNL     1       8.302   7.979  17.695  0.00  0.00    +0.000 F 
ATOM     27  C   UNL     1       7.387   6.070  18.733  0.00  0.00    +0.000 A 
ATOM     28  C   UNL     1       6.398   5.088  18.778  0.00  0.00    +0.000 A 
ENDBRANCH  20  22
BRANCH  17  30
ATOM     29  N   UNL     1       0.145   2.167  18.927  0.00  0.00    +0.000 NA
ATOM     30  C   UNL     1       1.230   2.459  18.633  0.00  0.00    +0.000 C 
ENDBRANCH  17  30
ENDBRANCH   1  21
TORSDOF 4
ENDMDL
MODEL 3
REMARK VINA RESULT:      -8.6      4.427      7.774
REMARK  Name = 
REMARK  4 active torsions:
REMARK  status: ('A' for Active; 'I' for Inactive)
REMARK    1  A    between atoms: C_2  and  C_3
REMARK    2  A    between atoms: N_6  and  C_7
REMARK    3  A    between atoms: C_14  and  N_15
REMARK    4  A    between atoms: C_16  and  C_18
REMARK                            x       y       z     vdW  Elec       q    Type
REMARK                         _______ _______ _______ _____ _____    ______ ____
ROOT
ATOM      1  N   UNL     1       3.202   6.040  19.977  0.00  0.00    +0.000 N 
ATOM      2  C   UNL     1       2.520   6.537  18.883  0.00  0.00    +0.000 C 
ATOM      3  O   UNL     1       2.405   5.936  17.817  0.00  0.00    +0.000 OA
ATOM      4  H   UNL     1       3.017   6.471  20.888  0.00  0.00    +0.000 HD
ENDROOT
BRANCH   2   5
ATOM      5  C   UNL     1       1.793   7.831  19.132  0.00  0.00    +0.000 A 
ATOM      6  C   UNL     1       1.164   7.977  20.312  0.00  0.00    +0.000 A 
ATOM      7  C   UNL     1       0.482   9.220  20.644  0.00  0.00    +0.000 A 
ATOM      8  C   UNL     1      -0.174   9.414  21.862  0.00  0.00    +0.000 A 
ATOM      9  C   UNL     1      -0.783  10.645  22.131  0.00  0.00    +0.000 A 
ATOM     10 CL   UNL     1      -1.592  10.883  23.632  0.00  0.00    +0.000 Cl
ATOM     11  C   UNL     1      -0.746  11.685  21.200  0.00  0.00    +0.000 A 
ATOM     12  C   UNL     1      -0.098  11.492  19.981  0.00  0.00    +0.000 A 
ATOM     13  C   UNL     1       0.501  10.262  19.722  0.00  0.00    +0.000 A 
ATOM     14  O   UNL     1       1.141  10.113  18.483  0.00  0.00    +0.000 OA
ATOM     15  C   UNL     1       1.795   8.937  18.147  0.00  0.00    +0.000 A 
ATOM     16  O   UNL     1       2.390   8.837  17.076  0.00  0.00    +0.000 OA
ENDBRANCH   2   5
BRANCH   1  21
ATOM     17  C   UNL     1       3.320   3.578  20.521  0.00  0.00    +0.000 A 
ATOM     18  C   UNL     1       4.177   2.597  19.996  0.00  0.00    +0.000 A 
ATOM     19  N   UNL     1       5.094   3.102  19.171  0.00  0.00    +0.000 NA
ATOM     20  N   UNL     1       4.908   4.446  19.243  0.00  0.00    +0.000 N 
ATOM     21  C   UNL     1       3.764   4.769  19.977  0.00  0.00    +0.000 A 
BRANCH  20  22
ATOM     22  C   UNL     1       5.871   5.329  18.675  0.00  0.00    +0.000 A 
ATOM     23  C   UNL     1       5.666   5.816  17.371  0.00  0.00    +0.000 A 
ATOM     24  C   UNL     1       6.593   6.690  16.801  0.00  0.00    +0.000 A 
ATOM     25  C   UNL     1       7.733   7.046  17.512  0.00  0.00    +0.000 A 
ATOM     26  F   UNL     1       8.625   7.875  16.956  0.00  0.00    +0.000 F 
ATOM     27  C   UNL     1       7.969   6.540  18.785  0.00  0.00    +0.000 A 
ATOM     28  C   UNL     1       7.037   5.682  19.369  0.00  0.00    +0.000 A 
ENDBRANCH  20  22
BRANCH  17  30
ATOM     29  N   UNL     1       1.215   3.097  21.940  0.00  0.00    +0.000 NA
ATOM     30  C   UNL     1       2.134   3.333  21.273  0.00  0.00    +0.000 C 
ENDBRANCH  17  30
ENDBRANCH   1  21
TORSDOF 4
ENDMDL
MODEL 4
REMARK VINA RESULT:      -8.5      4.321      7.669
REMARK  Name = 
REMARK  4 active torsions:
REMARK  status: ('A' for Active; 'I' for Inactive)
REMARK    1  A    between atoms: C_2  and  C_3
REMARK    2  A    between atoms: N_6  and  C_7
REMARK    3  A    between atoms: C_14  and  N_15
REMARK    4  A    between atoms: C_16  and  C_18
REMARK                            x       y       z     vdW  Elec       q    Type
REMARK                         _______ _______ _______ _____ _____    ______ ____
ROOT
ATOM      1  N   UNL     1       3.176   6.026  19.985  0.00  0.00    +0.000 N 
ATOM      2  C   UNL     1       2.408   6.750  19.094  0.00  0.00    +0.000 C 
ATOM      3  O   UNL     1       2.176   6.391  17.942  0.00  0.00    +0.000 OA
ATOM      4  H   UNL     1       3.091   6.254  20.981  0.00  0.00    +0.000 HD
ENDROOT
BRANCH   2   5
ATOM      5  C   UNL     1       1.745   7.967  19.682  0.00  0.00    +0.000 A 
ATOM      6  C   UNL     1       1.672   9.070  18.916  0.00  0.00    +0.000 A 
ATOM      7  C   UNL     1       1.001  10.269  19.398  0.00  0.00    +0.000 A 
ATOM      8  C   UNL     1       0.896  11.431  18.630  0.00  0.00    +0.000 A 
ATOM      9  C   UNL     1       0.211  12.539  19.141  0.00  0.00    +0.000 A 
ATOM     10 CL   UNL     1       0.082  13.971  18.194  0.00  0.00    +0.000 Cl
ATOM     11  C   UNL     1      -0.372  12.502  20.409  0.00  0.00    +0.000 A 
ATOM     12  C   UNL     1      -0.263  11.346  21.181  0.00  0.00    +0.000 A 
ATOM     13  C   UNL     1       0.425  10.252  20.665  0.00  0.00    +0.000 A 
ATOM     14  O   UNL     1       0.510   9.111  21.476  0.00  0.00    +0.000 OA
ATOM     15  C   UNL     1       1.145   7.959  21.036  0.00  0.00    +0.000 A 
ATOM     16  O   UNL     1       1.172   6.952  21.740  0.00  0.00    +0.000 OA
ENDBRANCH   2   5
BRANCH   1  21
ATOM     17  C   UNL     1       3.233   3.504  19.915  0.00  0.00    +0.000 A 
ATOM     18  C   UNL     1       4.046   2.659  19.142  0.00  0.00    +0.000 A 
ATOM     19  N   UNL     1       4.958   3.327  18.436  0.00  0.00    +0.000 NA
ATOM     20  N   UNL     1       4.815   4.617  18.836  0.00  0.00    +0.000 N 
ATOM     21  C   UNL     1       3.699   4.780  19.661  0.00  0.00    +0.000 A 
BRANCH  20  22
ATOM     22  C   UNL     1       5.790   5.588  18.469  0.00  0.00    +0.000 A 
ATOM     23  C   UNL     1       5.523   6.451  17.390  0.00  0.00    +0.000 A 
ATOM     24  C   UNL     1       6.462   7.415  17.021  0.00  0.00    +0.000 A 
ATOM     25  C   UNL     1       7.672   7.495  17.700  0.00  0.00    +0.000 A 
ATOM     26  F   UNL     1       8.575   8.414  17.335  0.00  0.00    +0.000 F 
ATOM     27  C   UNL     1       7.966   6.624  18.742  0.00  0.00    +0.000 A 
ATOM     28  C   UNL     1       7.024   5.670  19.129  0.00  0.00    +0.000 A 
ENDBRANCH  20  22
BRANCH  17  30
ATOM     29  N   UNL     1       1.058   2.832  21.140  0.00  0.00    +0.000 NA
ATOM     30  C   UNL     1       2.058   3.112  20.621  0.00  0.00    +0.000 C 
ENDBRANCH  17  30
ENDBRANCH   1  21
TORSDOF 4
ENDMDL
MODEL 5
REMARK VINA RESULT:      -8.4      4.410      7.782
REMARK  Name = 
REMARK  4 active torsions:
REMARK  status: ('A' for Active; 'I' for Inactive)
REMARK    1  A    between atoms: C_2  and  C_3
REMARK    2  A    between atoms: N_6  and  C_7
REMARK    3  A    between atoms: C_14  and  N_15
REMARK    4  A    between atoms: C_16  and  C_18
REMARK                            x       y       z     vdW  Elec       q    Type
REMARK                         _______ _______ _______ _____ _____    ______ ____
ROOT
ATOM      1  N   UNL     1       2.892   5.767  19.214  0.00  0.00    +0.000 N 
ATOM      2  C   UNL     1       2.497   6.891  18.515  0.00  0.00    +0.000 C 
ATOM      3  O   UNL     1       2.568   6.998  17.293  0.00  0.00    +0.000 OA
ATOM      4  H   UNL     1       2.550   5.658  20.173  0.00  0.00    +0.000 HD
ENDROOT
BRANCH   2   5
ATOM      5  C   UNL     1       1.830   7.948  19.354  0.00  0.00    +0.000 A 
ATOM      6  C   UNL     1       1.603   9.145  18.786  0.00  0.00    +0.000 A 
ATOM      7  C   UNL     1       0.916  10.200  19.520  0.00  0.00    +0.000 A 
ATOM      8  C   UNL     1       0.654  11.454  18.962  0.00  0.00    +0.000 A 
ATOM      9  C   UNL     1      -0.038  12.413  19.710  0.00  0.00    +0.000 A 
ATOM     10 CL   UNL     1      -0.361  13.957  19.023  0.00  0.00    +0.000 Cl
ATOM     11  C   UNL     1      -0.470  12.137  21.009  0.00  0.00    +0.000 A 
ATOM     12  C   UNL     1      -0.203  10.889  21.571  0.00  0.00    +0.000 A 
ATOM     13  C   UNL     1       0.489   9.944  20.819  0.00  0.00    +0.000 A 
ATOM     14  O   UNL     1       0.736   8.703  21.424  0.00  0.00    +0.000 OA
ATOM     15  C   UNL     1       1.387   7.686  20.744  0.00  0.00    +0.000 A 
ATOM     16  O   UNL     1       1.557   6.589  21.272  0.00  0.00    +0.000 OA
ENDBRANCH   2   5
BRANCH   1  21
ATOM     17  C   UNL     1       2.717   3.424  18.289  0.00  0.00    +0.000 A 
ATOM     18  C   UNL     1       3.586   2.752  17.413  0.00  0.00    +0.000 A 
ATOM     19  N   UNL     1       4.682   3.457  17.135  0.00  0.00    +0.000 NA
ATOM     20  N   UNL     1       4.587   4.557  17.926  0.00  0.00    +0.000 N 
ATOM     21  C   UNL     1       3.347   4.623  18.568  0.00  0.00    +0.000 A 
BRANCH  20  22
ATOM     22  C   UNL     1       5.705   5.425  18.076  0.00  0.00    +0.000 A 
ATOM     23  C   UNL     1       6.596   5.214  19.145  0.00  0.00    +0.000 A 
ATOM     24  C   UNL     1       7.703   6.049  19.304  0.00  0.00    +0.000 A 
ATOM     25  C   UNL     1       7.901   7.107  18.424  0.00  0.00    +0.000 A 
ATOM     26  F   UNL     1       8.958   7.912  18.587  0.00  0.00    +0.000 F 
ATOM     27  C   UNL     1       7.008   7.352  17.388  0.00  0.00    +0.000 A 
ATOM     28  C   UNL     1       5.909   6.510  17.212  0.00  0.00    +0.000 A 
ENDBRANCH  20  22
BRANCH  17  30
ATOM     29  N   UNL     1       0.316   2.638  18.830  0.00  0.00    +0.000 NA
ATOM     30  C   UNL     1       1.392   3.020  18.621  0.00  0.00    +0.000 C 
ENDBRANCH  17  30
ENDBRANCH   1  21
TORSDOF 4
ENDMDL
MODEL 6
REMARK VINA RESULT:      -8.4      4.047      7.545
REMARK  Name = 
REMARK  4 active torsions:
REMARK  status: ('A' for Active; 'I' for Inactive)
REMARK    1  A    between atoms: C_2  and  C_3
REMARK    2  A    between atoms: N_6  and  C_7
REMARK    3  A    between atoms: C_14  and  N_15
REMARK    4  A    between atoms: C_16  and  C_18
REMARK                            x       y       z     vdW  Elec       q    Type
REMARK                         _______ _______ _______ _____ _____    ______ ____
ROOT
ATOM      1  N   UNL     1       3.363   5.337  19.378  0.00  0.00    +0.000 N 
ATOM      2  C   UNL     1       2.372   5.837  18.555  0.00  0.00    +0.000 C 
ATOM      3  O   UNL     1       1.748   5.156  17.745  0.00  0.00    +0.000 OA
ATOM      4  H   UNL     1       3.630   5.897  20.194  0.00  0.00    +0.000 HD
ENDROOT
BRANCH   2   5
ATOM      5  C   UNL     1       2.004   7.272  18.818  0.00  0.00    +0.000 A 
ATOM      6  C   UNL     1       1.312   7.544  19.938  0.00  0.00    +0.000 A 
ATOM      7  C   UNL     1       0.963   8.916  20.284  0.00  0.00    +0.000 A 
ATOM      8  C   UNL     1       0.253   9.240  21.443  0.00  0.00    +0.000 A 
ATOM      9  C   UNL     1      -0.022  10.581  21.733  0.00  0.00    +0.000 A 
ATOM     10 CL   UNL     1      -0.897  10.981  23.160  0.00  0.00    +0.000 Cl
ATOM     11  C   UNL     1       0.402  11.602  20.880  0.00  0.00    +0.000 A 
ATOM     12  C   UNL     1       1.103  11.281  19.719  0.00  0.00    +0.000 A 
ATOM     13  C   UNL     1       1.368   9.944  19.439  0.00  0.00    +0.000 A 
ATOM     14  O   UNL     1       2.077   9.667  18.260  0.00  0.00    +0.000 OA
ATOM     15  C   UNL     1       2.418   8.369  17.913  0.00  0.00    +0.000 A 
ATOM     16  O   UNL     1       3.078   8.146  16.900  0.00  0.00    +0.000 OA
ENDBRANCH   2   5
BRANCH   1  21
ATOM     17  C   UNL     1       3.291   2.968  20.248  0.00  0.00    +0.000 A 
ATOM     18  C   UNL     1       3.746   1.788  19.636  0.00  0.00    +0.000 A 
ATOM     19  N   UNL     1       4.375   2.015  18.484  0.00  0.00    +0.000 NA
ATOM     20  N   UNL     1       4.434   3.369  18.392  0.00  0.00    +0.000 N 
ATOM     21  C   UNL     1       3.688   3.986  19.400  0.00  0.00    +0.000 A 
BRANCH  20  22
ATOM     22  C   UNL     1       5.255   3.981  17.402  0.00  0.00    +0.000 A 
ATOM     23  C   UNL     1       4.799   4.030  16.072  0.00  0.00    +0.000 A 
ATOM     24  C   UNL     1       5.585   4.633  15.089  0.00  0.00    +0.000 A 
ATOM     25  C   UNL     1       6.830   5.151  15.423  0.00  0.00    +0.000 A 
ATOM     26  F   UNL     1       7.585   5.719  14.475  0.00  0.00    +0.000 F 
ATOM     27  C   UNL     1       7.311   5.074  16.725  0.00  0.00    +0.000 A 
ATOM     28  C   UNL     1       6.523   4.489  17.716  0.00  0.00    +0.000 A 
ENDBRANCH  20  22
BRANCH  17  30
ATOM     29  N   UNL     1       1.771   3.048  22.336  0.00  0.00    +0.000 NA
ATOM     30  C   UNL     1       2.427   3.042  21.378  0.00  0.00    +0.000 C 
ENDBRANCH  17  30
ENDBRANCH   1  21
TORSDOF 4
ENDMDL
MODEL 7
REMARK VINA RESULT:      -8.4      4.329      7.871
REMARK  Name = 
REMARK  4 active torsions:
REMARK  status: ('A' for Active; 'I' for Inactive)
REMARK    1  A    between atoms: C_2  and  C_3
REMARK    2  A    between atoms: N_6  and  C_7
REMARK    3  A    between atoms: C_14  and  N_15
REMARK    4  A    between atoms: C_16  and  C_18
REMARK                            x       y       z     vdW  Elec       q    Type
REMARK                         _______ _______ _______ _____ _____    ______ ____
ROOT
ATOM      1  N   UNL     1       4.667   6.795  18.641  0.00  0.00    +0.000 N 
ATOM      2  C   UNL     1       3.670   7.358  17.866  0.00  0.00    +0.000 C 
ATOM      3  O   UNL     1       3.571   7.194  16.653  0.00  0.00    +0.000 OA
ATOM      4  H   UNL     1       4.518   6.758  19.654  0.00  0.00    +0.000 HD
ENDROOT
BRANCH   2   5
ATOM      5  C   UNL     1       2.611   8.092  18.644  0.00  0.00    +0.000 A 
ATOM      6  C   UNL     1       2.239   9.305  18.201  0.00  0.00    +0.000 A 
ATOM      7  C   UNL     1       1.184  10.053  18.873  0.00  0.00    +0.000 A 
ATOM      8  C   UNL     1       0.763  11.312  18.439  0.00  0.00    +0.000 A 
ATOM      9  C   UNL     1      -0.277  11.963  19.111  0.00  0.00    +0.000 A 
ATOM     10 CL   UNL     1      -0.796  13.515  18.576  0.00  0.00    +0.000 Cl
ATOM     11  C   UNL     1      -0.902  11.374  20.212  0.00  0.00    +0.000 A 
ATOM     12  C   UNL     1      -0.479  10.121  20.652  0.00  0.00    +0.000 A 
ATOM     13  C   UNL     1       0.559   9.484  19.979  0.00  0.00    +0.000 A 
ATOM     14  O   UNL     1       0.952   8.225  20.457  0.00  0.00    +0.000 OA
ATOM     15  C   UNL     1       1.954   7.498  19.832  0.00  0.00    +0.000 A 
ATOM     16  O   UNL     1       2.256   6.377  20.235  0.00  0.00    +0.000 OA
ENDBRANCH   2   5
BRANCH   1  21
ATOM     17  C   UNL     1       6.878   6.158  17.602  0.00  0.00    +0.000 A 
ATOM     18  C   UNL     1       7.440   4.882  17.434  0.00  0.00    +0.000 A 
ATOM     19  N   UNL     1       6.615   3.903  17.805  0.00  0.00    +0.000 NA
ATOM     20  N   UNL     1       5.456   4.538  18.114  0.00  0.00    +0.000 N 
ATOM     21  C   UNL     1       5.611   5.927  18.105  0.00  0.00    +0.000 A 
BRANCH  20  22
ATOM     22  C   UNL     1       4.265   3.785  18.323  0.00  0.00    +0.000 A 
ATOM     23  C   UNL     1       3.354   3.639  17.261  0.00  0.00    +0.000 A 
ATOM     24  C   UNL     1       2.186   2.897  17.443  0.00  0.00    +0.000 A 
ATOM     25  C   UNL     1       1.913   2.335  18.685  0.00  0.00    +0.000 A 
ATOM     26  F   UNL     1       0.786   1.633  18.858  0.00  0.00    +0.000 F 
ATOM     27  C   UNL     1       2.784   2.504  19.754  0.00  0.00    +0.000 A 
ATOM     28  C   UNL     1       3.962   3.229  19.574  0.00  0.00    +0.000 A 
ENDBRANCH  20  22
BRANCH  17  30
ATOM     29  N   UNL     1       8.064   8.444  17.386  0.00  0.00    +0.000 NA
ATOM     30  C   UNL     1       7.571   7.397  17.478  0.00  0.00    +0.000 C 
ENDBRANCH  17  30
ENDBRANCH   1  21
TORSDOF 4
ENDMDL
MODEL 8
REMARK VINA RESULT:      -8.3      4.312      7.931
REMARK  Name = 
REMARK  4 active torsions:
REMARK  status: ('A' for Active; 'I' for Inactive)
REMARK    1  A    between atoms: C_2  and  C_3
REMARK    2  A    between atoms: N_6  and  C_7
REMARK    3  A    between atoms: C_14  and  N_15
REMARK    4  A    between atoms: C_16  and  C_18
REMARK                            x       y       z     vdW  Elec       q    Type
REMARK                         _______ _______ _______ _____ _____    ______ ____
ROOT
ATOM      1  N   UNL     1       3.775   5.715  18.828  0.00  0.00    +0.000 N 
ATOM      2  C   UNL     1       2.990   6.770  18.404  0.00  0.00    +0.000 C 
ATOM      3  O   UNL     1       2.861   7.098  17.227  0.00  0.00    +0.000 OA
ATOM      4  H   UNL     1       3.611   5.348  19.770  0.00  0.00    +0.000 HD
ENDROOT
BRANCH   2   5
ATOM      5  C   UNL     1       2.174   7.420  19.489  0.00  0.00    +0.000 A 
ATOM      6  C   UNL     1       1.862   8.719  19.343  0.00  0.00    +0.000 A 
ATOM      7  C   UNL     1       1.034   9.403  20.327  0.00  0.00    +0.000 A 
ATOM      8  C   UNL     1       0.680  10.749  20.207  0.00  0.00    +0.000 A 
ATOM      9  C   UNL     1      -0.145  11.337  21.172  0.00  0.00    +0.000 A 
ATOM     10 CL   UNL     1      -0.580  12.995  21.022  0.00  0.00    +0.000 Cl
ATOM     11  C   UNL     1      -0.621  10.598  22.257  0.00  0.00    +0.000 A 
ATOM     12  C   UNL     1      -0.264   9.257  22.384  0.00  0.00    +0.000 A 
ATOM     13  C   UNL     1       0.561   8.683  21.420  0.00  0.00    +0.000 A 
ATOM     14  O   UNL     1       0.895   7.331  21.589  0.00  0.00    +0.000 OA
ATOM     15  C   UNL     1       1.682   6.663  20.664  0.00  0.00    +0.000 A 
ATOM     16  O   UNL     1       1.929   5.467  20.801  0.00  0.00    +0.000 OA
ENDBRANCH   2   5
BRANCH   1  21
ATOM     17  C   UNL     1       4.051   3.710  17.319  0.00  0.00    +0.000 A 
ATOM     18  C   UNL     1       5.031   3.466  16.343  0.00  0.00    +0.000 A 
ATOM     19  N   UNL     1       5.971   4.410  16.311  0.00  0.00    +0.000 NA
ATOM     20  N   UNL     1       5.668   5.224  17.355  0.00  0.00    +0.000 N 
ATOM     21  C   UNL     1       4.439   4.887  17.930  0.00  0.00    +0.000 A 
BRANCH  20  22
ATOM     22  C   UNL     1       6.600   6.213  17.781  0.00  0.00    +0.000 A 
ATOM     23  C   UNL     1       6.613   7.462  17.134  0.00  0.00    +0.000 A 
ATOM     24  C   UNL     1       7.513   8.448  17.542  0.00  0.00    +0.000 A 
ATOM     25  C   UNL     1       8.416   8.177  18.564  0.00  0.00    +0.000 A 
ATOM     26  F   UNL     1       9.285   9.122  18.945  0.00  0.00    +0.000 F 
ATOM     27  C   UNL     1       8.441   6.934  19.185  0.00  0.00    +0.000 A 
ATOM     28  C   UNL     1       7.532   5.950  18.795  0.00  0.00    +0.000 A 
ENDBRANCH  20  22
BRANCH  17  30
ATOM     29  N   UNL     1       1.874   2.344  17.593  0.00  0.00    +0.000 NA
ATOM     30  C   UNL     1       2.827   2.995  17.469  0.00  0.00    +0.000 C 
ENDBRANCH  17  30
ENDBRANCH   1  21
TORSDOF 4
ENDMDL
MODEL 9
REMARK VINA RESULT:      -8.2      5.009      7.667
REMARK  Name = 
REMARK  4 active torsions:
REMARK  status: ('A' for Active; 'I' for Inactive)
REMARK    1  A    between atoms: C_2  and  C_3
REMARK    2  A    between atoms: N_6  and  C_7
REMARK    3  A    between atoms: C_14  and  N_15
REMARK    4  A    between atoms: C_16  and  C_18
REMARK                            x       y       z     vdW  Elec       q    Type
REMARK                         _______ _______ _______ _____ _____    ______ ____
ROOT
ATOM      1  N   UNL     1      -0.610   9.769  19.589  0.00  0.00    +0.000 N 
ATOM      2  C   UNL     1       0.759   9.933  19.494  0.00  0.00    +0.000 C 
ATOM      3  O   UNL     1       1.338  10.995  19.712  0.00  0.00    +0.000 OA
ATOM      4  H   UNL     1      -0.970   8.813  19.661  0.00  0.00    +0.000 HD
ENDROOT
BRANCH   2   5
ATOM      5  C   UNL     1       1.526   8.664  19.234  0.00  0.00    +0.000 A 
ATOM      6  C   UNL     1       1.410   7.670  20.132  0.00  0.00    +0.000 A 
ATOM      7  C   UNL     1       2.082   6.394  19.923  0.00  0.00    +0.000 A 
ATOM      8  C   UNL     1       1.980   5.335  20.826  0.00  0.00    +0.000 A 
ATOM      9  C   UNL     1       2.625   4.124  20.550  0.00  0.00    +0.000 A 
ATOM     10 CL   UNL     1       2.499   2.818  21.664  0.00  0.00    +0.000 Cl
ATOM     11  C   UNL     1       3.372   3.959  19.382  0.00  0.00    +0.000 A 
ATOM     12  C   UNL     1       3.483   5.017  18.482  0.00  0.00    +0.000 A 
ATOM     13  C   UNL     1       2.840   6.218  18.769  0.00  0.00    +0.000 A 
ATOM     14  O   UNL     1       2.979   7.255  17.835  0.00  0.00    +0.000 OA
ATOM     15  C   UNL     1       2.347   8.476  18.016  0.00  0.00    +0.000 A 
ATOM     16  O   UNL     1       2.442   9.360  17.167  0.00  0.00    +0.000 OA
ENDBRANCH   2   5
BRANCH   1  21
ATOM     17  C   UNL     1      -1.558  11.431  21.236  0.00  0.00    +0.000 A 
ATOM     18  C   UNL     1      -2.390  12.537  20.996  0.00  0.00    +0.000 A 
ATOM     19  N   UNL     1      -2.776  12.624  19.723  0.00  0.00    +0.000 NA
ATOM     20  N   UNL     1      -2.285  11.498  19.144  0.00  0.00    +0.000 N 
ATOM     21  C   UNL     1      -1.444  10.797  20.013  0.00  0.00    +0.000 A 
BRANCH  20  22
ATOM     22  C   UNL     1      -2.707  11.128  17.835  0.00  0.00    +0.000 A 
ATOM     23  C   UNL     1      -3.940  11.607  17.354  0.00  0.00    +0.000 A 
ATOM     24  C   UNL     1      -4.367  11.263  16.071  0.00  0.00    +0.000 A 
ATOM     25  C   UNL     1      -3.587  10.420  15.287  0.00  0.00    +0.000 A 
ATOM     26  F   UNL     1      -4.007  10.085  14.060  0.00  0.00    +0.000 F 
ATOM     27  C   UNL     1      -2.387   9.908  15.764  0.00  0.00    +0.000 A 
ATOM     28  C   UNL     1      -1.945  10.263  17.038  0.00  0.00    +0.000 A 
ENDBRANCH  20  22
BRANCH  17  30
ATOM     29  N   UNL     1      -0.236  10.893  23.391  0.00  0.00    +0.000 NA
ATOM     30  C   UNL     1      -0.836  11.176  22.438  0.00  0.00    +0.000 C 
ENDBRANCH  17  30
ENDBRANCH   1  21
TORSDOF 4
ENDMDL
