MODEL 1
REMARK VINA RESULT:      -7.8      0.000      0.000
REMARK  Name = 
REMARK  7 active torsions:
REMARK  status: ('A' for Active; 'I' for Inactive)
REMARK    1  A    between atoms: C_1  and  C_2
REMARK    2  A    between atoms: C_7  and  C_8
REMARK    3  A    between atoms: C_9  and  C_10
REMARK    4  A    between atoms: C_10  and  C_11
REMARK    5  A    between atoms: C_17  and  C_18
REMARK    6  A    between atoms: C_18  and  C_20
REMARK    7  A    between atoms: C_20  and  C_21
REMARK                            x       y       z     vdW  Elec       q    Type
REMARK                         _______ _______ _______ _____ _____    ______ ____
ROOT
ATOM      1  C   UNL     1       1.922   5.349  18.809  0.00  0.00    +0.000 C 
ATOM      2  O   UNL     1       1.967   5.250  17.580  0.00  0.00    +0.000 OA
ATOM      3  N   UNL     1       1.383   4.339  19.596  0.00  0.00    +0.000 N 
ATOM      4  C   UNL     1       1.209   4.416  21.043  0.00  0.00    +0.000 C 
ATOM      5  C   UNL     1       2.302   3.607  21.724  0.00  0.00    +0.000 C 
ATOM      6  C   UNL     1       2.258   2.152  21.234  0.00  0.00    +0.000 C 
ATOM      7  C   UNL     1       2.331   2.048  19.692  0.00  0.00    +0.000 C 
ATOM      8  C   UNL     1       1.286   2.982  19.047  0.00  0.00    +0.000 C 
ENDROOT
BRANCH   7   9
ATOM      9  C   UNL     1       3.763   2.306  19.194  0.00  0.00    +0.000 C 
ATOM     10  O   UNL     1       4.740   2.190  19.944  0.00  0.00    +0.000 OA
BRANCH   9  11
ATOM     11  C   UNL     1       3.980   2.620  17.729  0.00  0.00    +0.000 C 
BRANCH  11  12
ATOM     12  C   UNL     1       4.897   3.792  17.491  0.00  0.00    +0.000 A 
ATOM     13  C   UNL     1       5.121   4.255  16.186  0.00  0.00    +0.000 A 
ATOM     14  C   UNL     1       5.941   5.367  15.961  0.00  0.00    +0.000 A 
ATOM     15  C   UNL     1       6.537   6.021  17.035  0.00  0.00    +0.000 A 
ATOM     16  C   UNL     1       6.321   5.570  18.336  0.00  0.00    +0.000 A 
ATOM     17  C   UNL     1       5.502   4.460  18.564  0.00  0.00    +0.000 A 
ENDBRANCH  11  12
ENDBRANCH   9  11
ENDBRANCH   7   9
BRANCH   1  18
ATOM     18  C   UNL     1       2.608   6.515  19.500  0.00  0.00    +0.000 C 
BRANCH  18  27
ATOM     19  C   UNL     1       0.663   8.134  21.312  0.00  0.00    +0.000 C 
ATOM     20  C   UNL     1       1.248   8.646  20.032  0.00  0.00    +0.000 A 
ATOM     21  N   UNL     1       0.825   9.891  19.706  0.00  0.00    +0.000 NA
ATOM     22  C   UNL     1       1.281  10.435  18.582  0.00  0.00    +0.000 A 
ATOM     23  N   UNL     1       0.824  11.693  18.246  0.00  0.00    +0.000 N 
ATOM     24  N   UNL     1       2.104   9.828  17.736  0.00  0.00    +0.000 NA
ATOM     25  C   UNL     1       2.529   8.590  18.067  0.00  0.00    +0.000 A 
ATOM     26  C   UNL     1       3.462   7.974  17.059  0.00  0.00    +0.000 C 
ATOM     27  C   UNL     1       2.148   7.931  19.244  0.00  0.00    +0.000 A 
ATOM     28  H   UNL     1      -0.062  11.856  18.703  0.00  0.00    +0.000 HD
ATOM     29  H   UNL     1       0.853  11.803  17.242  0.00  0.00    +0.000 HD
ENDBRANCH  18  27
ENDBRANCH   1  18
TORSDOF 5
ENDMDL
MODEL 2
REMARK VINA RESULT:      -7.8      0.284      1.679
REMARK  Name = 
REMARK  7 active torsions:
REMARK  status: ('A' for Active; 'I' for Inactive)
REMARK    1  A    between atoms: C_1  and  C_2
REMARK    2  A    between atoms: C_7  and  C_8
REMARK    3  A    between atoms: C_9  and  C_10
REMARK    4  A    between atoms: C_10  and  C_11
REMARK    5  A    between atoms: C_17  and  C_18
REMARK    6  A    between atoms: C_18  and  C_20
REMARK    7  A    between atoms: C_20  and  C_21
REMARK                            x       y       z     vdW  Elec       q    Type
REMARK                         _______ _______ _______ _____ _____    ______ ____
ROOT
ATOM      1  C   UNL     1       1.848   5.309  18.841  0.00  0.00    +0.000 C 
ATOM      2  O   UNL     1       1.912   5.240  17.610  0.00  0.00    +0.000 OA
ATOM      3  N   UNL     1       1.381   4.244  19.600  0.00  0.00    +0.000 N 
ATOM      4  C   UNL     1       1.188   4.276  21.046  0.00  0.00    +0.000 C 
ATOM      5  C   UNL     1       2.333   3.538  21.723  0.00  0.00    +0.000 C 
ATOM      6  C   UNL     1       2.405   2.096  21.202  0.00  0.00    +0.000 C 
ATOM      7  C   UNL     1       2.500   2.030  19.659  0.00  0.00    +0.000 C 
ATOM      8  C   UNL     1       1.393   2.896  19.022  0.00  0.00    +0.000 C 
ENDROOT
BRANCH   7   9
ATOM      9  C   UNL     1       3.912   2.408  19.183  0.00  0.00    +0.000 C 
ATOM     10  O   UNL     1       4.899   2.284  19.919  0.00  0.00    +0.000 OA
BRANCH   9  11
ATOM     11  C   UNL     1       4.103   2.854  17.749  0.00  0.00    +0.000 C 
BRANCH  11  12
ATOM     12  C   UNL     1       5.136   3.939  17.586  0.00  0.00    +0.000 A 
ATOM     13  C   UNL     1       5.730   4.161  16.334  0.00  0.00    +0.000 A 
ATOM     14  C   UNL     1       6.662   5.192  16.166  0.00  0.00    +0.000 A 
ATOM     15  C   UNL     1       7.002   6.005  17.243  0.00  0.00    +0.000 A 
ATOM     16  C   UNL     1       6.418   5.794  18.490  0.00  0.00    +0.000 A 
ATOM     17  C   UNL     1       5.486   4.766  18.661  0.00  0.00    +0.000 A 
ENDBRANCH  11  12
ENDBRANCH   9  11
ENDBRANCH   7   9
BRANCH   1  18
ATOM     18  C   UNL     1       2.436   6.509  19.564  0.00  0.00    +0.000 C 
BRANCH  18  27
ATOM     19  C   UNL     1       3.535   7.926  17.020  0.00  0.00    +0.000 C 
ATOM     20  C   UNL     1       2.605   8.563  18.007  0.00  0.00    +0.000 A 
ATOM     21  N   UNL     1       2.300   9.849  17.708  0.00  0.00    +0.000 NA
ATOM     22  C   UNL     1       1.486  10.508  18.526  0.00  0.00    +0.000 A 
ATOM     23  N   UNL     1       1.202  11.825  18.226  0.00  0.00    +0.000 N 
ATOM     24  N   UNL     1       0.971  10.001  19.639  0.00  0.00    +0.000 NA
ATOM     25  C   UNL     1       1.271   8.716  19.931  0.00  0.00    +0.000 A 
ATOM     26  C   UNL     1       0.646   8.217  21.205  0.00  0.00    +0.000 C 
ATOM     27  C   UNL     1       2.086   7.911  19.124  0.00  0.00    +0.000 A 
ATOM     28  H   UNL     1       1.940  12.198  17.647  0.00  0.00    +0.000 HD
ATOM     29  H   UNL     1       0.986  12.323  19.078  0.00  0.00    +0.000 HD
ENDBRANCH  18  27
ENDBRANCH   1  18
TORSDOF 5
ENDMDL
MODEL 3
REMARK VINA RESULT:      -7.4      0.641      1.153
REMARK  Name = 
REMARK  7 active torsions:
REMARK  status: ('A' for Active; 'I' for Inactive)
REMARK    1  A    between atoms: C_1  and  C_2
REMARK    2  A    between atoms: C_7  and  C_8
REMARK    3  A    between atoms: C_9  and  C_10
REMARK    4  A    between atoms: C_10  and  C_11
REMARK    5  A    between atoms: C_17  and  C_18
REMARK    6  A    between atoms: C_18  and  C_20
REMARK    7  A    between atoms: C_20  and  C_21
REMARK                            x       y       z     vdW  Elec       q    Type
REMARK                         _______ _______ _______ _____ _____    ______ ____
ROOT
ATOM      1  C   UNL     1       1.766   5.235  18.754  0.00  0.00    +0.000 C 
ATOM      2  O   UNL     1       1.633   5.103  17.534  0.00  0.00    +0.000 OA
ATOM      3  N   UNL     1       1.271   4.288  19.641  0.00  0.00    +0.000 N 
ATOM      4  C   UNL     1       1.306   4.412  21.094  0.00  0.00    +0.000 C 
ATOM      5  C   UNL     1       2.422   3.538  21.646  0.00  0.00    +0.000 C 
ATOM      6  C   UNL     1       2.205   2.080  21.217  0.00  0.00    +0.000 C 
ATOM      7  C   UNL     1       2.055   1.934  19.684  0.00  0.00    +0.000 C 
ATOM      8  C   UNL     1       1.001   2.930  19.157  0.00  0.00    +0.000 C 
ENDROOT
BRANCH   7   9
ATOM      9  C   UNL     1       3.418   2.070  18.986  0.00  0.00    +0.000 C 
ATOM     10  O   UNL     1       3.639   1.548  17.887  0.00  0.00    +0.000 OA
BRANCH   9  11
ATOM     11  C   UNL     1       4.479   2.942  19.624  0.00  0.00    +0.000 C 
BRANCH  11  12
ATOM     12  C   UNL     1       5.096   3.936  18.674  0.00  0.00    +0.000 A 
ATOM     13  C   UNL     1       5.967   4.923  19.158  0.00  0.00    +0.000 A 
ATOM     14  C   UNL     1       6.574   5.826  18.277  0.00  0.00    +0.000 A 
ATOM     15  C   UNL     1       6.317   5.745  16.912  0.00  0.00    +0.000 A 
ATOM     16  C   UNL     1       5.455   4.767  16.420  0.00  0.00    +0.000 A 
ATOM     17  C   UNL     1       4.848   3.864  17.297  0.00  0.00    +0.000 A 
ENDBRANCH  11  12
ENDBRANCH   9  11
ENDBRANCH   7   9
BRANCH   1  18
ATOM     18  C   UNL     1       2.624   6.361  19.304  0.00  0.00    +0.000 C 
BRANCH  18  27
ATOM     19  C   UNL     1       0.837   8.010  21.247  0.00  0.00    +0.000 C 
ATOM     20  C   UNL     1       1.381   8.531  19.952  0.00  0.00    +0.000 A 
ATOM     21  N   UNL     1       0.996   9.800  19.678  0.00  0.00    +0.000 NA
ATOM     22  C   UNL     1       1.420  10.355  18.547  0.00  0.00    +0.000 A 
ATOM     23  N   UNL     1       1.000  11.639  18.263  0.00  0.00    +0.000 N 
ATOM     24  N   UNL     1       2.175   9.737  17.647  0.00  0.00    +0.000 NA
ATOM     25  C   UNL     1       2.564   8.474  17.927  0.00  0.00    +0.000 A 
ATOM     26  C   UNL     1       3.421   7.847  16.860  0.00  0.00    +0.000 C 
ATOM     27  C   UNL     1       2.212   7.801  19.105  0.00  0.00    +0.000 A 
ATOM     28  H   UNL     1       0.145  11.825  18.767  0.00  0.00    +0.000 HD
ATOM     29  H   UNL     1       0.987  11.773  17.262  0.00  0.00    +0.000 HD
ENDBRANCH  18  27
ENDBRANCH   1  18
TORSDOF 5
ENDMDL
MODEL 4
REMARK VINA RESULT:      -7.3      3.106      5.783
REMARK  Name = 
REMARK  7 active torsions:
REMARK  status: ('A' for Active; 'I' for Inactive)
REMARK    1  A    between atoms: C_1  and  C_2
REMARK    2  A    between atoms: C_7  and  C_8
REMARK    3  A    between atoms: C_9  and  C_10
REMARK    4  A    between atoms: C_10  and  C_11
REMARK    5  A    between atoms: C_17  and  C_18
REMARK    6  A    between atoms: C_18  and  C_20
REMARK    7  A    between atoms: C_20  and  C_21
REMARK                            x       y       z     vdW  Elec       q    Type
REMARK                         _______ _______ _______ _____ _____    ______ ____
ROOT
ATOM      1  C   UNL     1       4.623   3.504  17.730  0.00  0.00    +0.000 C 
ATOM      2  O   UNL     1       5.686   3.544  18.357  0.00  0.00    +0.000 OA
ATOM      3  N   UNL     1       3.507   2.855  18.241  0.00  0.00    +0.000 N 
ATOM      4  C   UNL     1       2.246   2.685  17.527  0.00  0.00    +0.000 C 
ATOM      5  C   UNL     1       1.227   3.679  18.063  0.00  0.00    +0.000 C 
ATOM      6  C   UNL     1       1.044   3.477  19.574  0.00  0.00    +0.000 C 
ATOM      7  C   UNL     1       2.385   3.544  20.343  0.00  0.00    +0.000 C 
ATOM      8  C   UNL     1       3.422   2.611  19.685  0.00  0.00    +0.000 C 
ENDROOT
BRANCH   7   9
ATOM      9  C   UNL     1       2.871   4.997  20.468  0.00  0.00    +0.000 C 
ATOM     10  O   UNL     1       4.054   5.303  20.279  0.00  0.00    +0.000 OA
BRANCH   9  11
ATOM     11  C   UNL     1       1.854   6.086  20.739  0.00  0.00    +0.000 C 
BRANCH  11  12
ATOM     12  C   UNL     1       1.922   7.233  19.764  0.00  0.00    +0.000 A 
ATOM     13  C   UNL     1       2.577   7.072  18.534  0.00  0.00    +0.000 A 
ATOM     14  C   UNL     1       2.611   8.121  17.607  0.00  0.00    +0.000 A 
ATOM     15  C   UNL     1       1.991   9.331  17.904  0.00  0.00    +0.000 A 
ATOM     16  C   UNL     1       1.337   9.502  19.123  0.00  0.00    +0.000 A 
ATOM     17  C   UNL     1       1.301   8.456  20.049  0.00  0.00    +0.000 A 
ENDBRANCH  11  12
ENDBRANCH   9  11
ENDBRANCH   7   9
BRANCH   1  18
ATOM     18  C   UNL     1       4.468   4.312  16.453  0.00  0.00    +0.000 C 
BRANCH  18  27
ATOM     19  C   UNL     1       6.621   6.360  17.382  0.00  0.00    +0.000 C 
ATOM     20  C   UNL     1       6.630   5.668  16.053  0.00  0.00    +0.000 A 
ATOM     21  N   UNL     1       7.663   6.040  15.259  0.00  0.00    +0.000 NA
ATOM     22  C   UNL     1       7.760   5.488  14.054  0.00  0.00    +0.000 A 
ATOM     23  N   UNL     1       8.800   5.894  13.243  0.00  0.00    +0.000 N 
ATOM     24  N   UNL     1       6.892   4.614  13.559  0.00  0.00    +0.000 NA
ATOM     25  C   UNL     1       5.867   4.240  14.355  0.00  0.00    +0.000 A 
ATOM     26  C   UNL     1       4.933   3.245  13.721  0.00  0.00    +0.000 C 
ATOM     27  C   UNL     1       5.685   4.723  15.657  0.00  0.00    +0.000 A 
ATOM     28  H   UNL     1       9.111   6.808  13.537  0.00  0.00    +0.000 HD
ATOM     29  H   UNL     1       8.533   5.784  12.275  0.00  0.00    +0.000 HD
ENDBRANCH  18  27
ENDBRANCH   1  18
TORSDOF 5
ENDMDL
MODEL 5
REMARK VINA RESULT:      -7.2      3.029      5.793
REMARK  Name = 
REMARK  7 active torsions:
REMARK  status: ('A' for Active; 'I' for Inactive)
REMARK    1  A    between atoms: C_1  and  C_2
REMARK    2  A    between atoms: C_7  and  C_8
REMARK    3  A    between atoms: C_9  and  C_10
REMARK    4  A    between atoms: C_10  and  C_11
REMARK    5  A    between atoms: C_17  and  C_18
REMARK    6  A    between atoms: C_18  and  C_20
REMARK    7  A    between atoms: C_20  and  C_21
REMARK                            x       y       z     vdW  Elec       q    Type
REMARK                         _______ _______ _______ _____ _____    ______ ____
ROOT
ATOM      1  C   UNL     1       4.717   4.321  18.482  0.00  0.00    +0.000 C 
ATOM      2  O   UNL     1       5.257   5.031  19.334  0.00  0.00    +0.000 OA
ATOM      3  N   UNL     1       4.174   3.086  18.809  0.00  0.00    +0.000 N 
ATOM      4  C   UNL     1       3.601   2.148  17.849  0.00  0.00    +0.000 C 
ATOM      5  C   UNL     1       2.083   2.217  17.923  0.00  0.00    +0.000 C 
ATOM      6  C   UNL     1       1.616   1.906  19.352  0.00  0.00    +0.000 C 
ATOM      7  C   UNL     1       2.293   2.816  20.405  0.00  0.00    +0.000 C 
ATOM      8  C   UNL     1       3.823   2.809  20.206  0.00  0.00    +0.000 C 
ENDROOT
BRANCH   7   9
ATOM      9  C   UNL     1       1.685   4.228  20.377  0.00  0.00    +0.000 C 
ATOM     10  O   UNL     1       0.496   4.416  20.094  0.00  0.00    +0.000 OA
BRANCH   9  11
ATOM     11  C   UNL     1       2.546   5.400  20.798  0.00  0.00    +0.000 C 
BRANCH  11  12
ATOM     12  C   UNL     1       2.124   6.710  20.185  0.00  0.00    +0.000 A 
ATOM     13  C   UNL     1       1.429   7.654  20.955  0.00  0.00    +0.000 A 
ATOM     14  C   UNL     1       1.068   8.890  20.404  0.00  0.00    +0.000 A 
ATOM     15  C   UNL     1       1.400   9.187  19.086  0.00  0.00    +0.000 A 
ATOM     16  C   UNL     1       2.091   8.257  18.312  0.00  0.00    +0.000 A 
ATOM     17  C   UNL     1       2.454   7.024  18.860  0.00  0.00    +0.000 A 
ENDBRANCH  11  12
ENDBRANCH   9  11
ENDBRANCH   7   9
BRANCH   1  18
ATOM     18  C   UNL     1       4.490   4.862  17.080  0.00  0.00    +0.000 C 
BRANCH  18  27
ATOM     19  C   UNL     1       6.832   6.867  17.501  0.00  0.00    +0.000 C 
ATOM     20  C   UNL     1       6.686   5.978  16.304  0.00  0.00    +0.000 A 
ATOM     21  N   UNL     1       7.667   6.147  15.384  0.00  0.00    +0.000 NA
ATOM     22  C   UNL     1       7.626   5.409  14.279  0.00  0.00    +0.000 A 
ATOM     23  N   UNL     1       8.614   5.607  13.337  0.00  0.00    +0.000 N 
ATOM     24  N   UNL     1       6.668   4.534  13.999  0.00  0.00    +0.000 NA
ATOM     25  C   UNL     1       5.695   4.363  14.921  0.00  0.00    +0.000 A 
ATOM     26  C   UNL     1       4.652   3.351  14.528  0.00  0.00    +0.000 C 
ATOM     27  C   UNL     1       5.656   5.055  16.138  0.00  0.00    +0.000 A 
ATOM     28  H   UNL     1       9.003   6.531  13.455  0.00  0.00    +0.000 HD
ATOM     29  H   UNL     1       8.258   5.368  12.423  0.00  0.00    +0.000 HD
ENDBRANCH  18  27
ENDBRANCH   1  18
TORSDOF 5
ENDMDL
MODEL 6
REMARK VINA RESULT:      -7.2      2.628      5.796
REMARK  Name = 
REMARK  7 active torsions:
REMARK  status: ('A' for Active; 'I' for Inactive)
REMARK    1  A    between atoms: C_1  and  C_2
REMARK    2  A    between atoms: C_7  and  C_8
REMARK    3  A    between atoms: C_9  and  C_10
REMARK    4  A    between atoms: C_10  and  C_11
REMARK    5  A    between atoms: C_17  and  C_18
REMARK    6  A    between atoms: C_18  and  C_20
REMARK    7  A    between atoms: C_20  and  C_21
REMARK                            x       y       z     vdW  Elec       q    Type
REMARK                         _______ _______ _______ _____ _____    ______ ____
ROOT
ATOM      1  C   UNL     1       5.144   4.048  19.187  0.00  0.00    +0.000 C 
ATOM      2  O   UNL     1       5.368   4.512  20.309  0.00  0.00    +0.000 OA
ATOM      3  N   UNL     1       3.955   3.390  18.902  0.00  0.00    +0.000 N 
ATOM      4  C   UNL     1       3.650   2.737  17.633  0.00  0.00    +0.000 C 
ATOM      5  C   UNL     1       2.713   3.620  16.825  0.00  0.00    +0.000 C 
ATOM      6  C   UNL     1       1.435   3.899  17.628  0.00  0.00    +0.000 C 
ATOM      7  C   UNL     1       1.736   4.492  19.025  0.00  0.00    +0.000 C 
ATOM      8  C   UNL     1       2.786   3.628  19.754  0.00  0.00    +0.000 C 
ENDROOT
BRANCH   7   9
ATOM      9  C   UNL     1       2.140   5.971  18.914  0.00  0.00    +0.000 C 
ATOM     10  O   UNL     1       2.168   6.555  17.825  0.00  0.00    +0.000 OA
BRANCH   9  11
ATOM     11  C   UNL     1       2.422   6.747  20.184  0.00  0.00    +0.000 C 
BRANCH  11  12
ATOM     12  C   UNL     1       1.537   7.954  20.363  0.00  0.00    +0.000 A 
ATOM     13  C   UNL     1       1.523   8.966  19.391  0.00  0.00    +0.000 A 
ATOM     14  C   UNL     1       0.675  10.071  19.532  0.00  0.00    +0.000 A 
ATOM     15  C   UNL     1      -0.162  10.169  20.639  0.00  0.00    +0.000 A 
ATOM     16  C   UNL     1      -0.157   9.170  21.610  0.00  0.00    +0.000 A 
ATOM     17  C   UNL     1       0.688   8.065  21.472  0.00  0.00    +0.000 A 
ENDBRANCH  11  12
ENDBRANCH   9  11
ENDBRANCH   7   9
BRANCH   1  18
ATOM     18  C   UNL     1       6.104   4.335  18.044  0.00  0.00    +0.000 C 
BRANCH  18  27
ATOM     19  C   UNL     1       8.440   5.334  19.842  0.00  0.00    +0.000 C 
ATOM     20  C   UNL     1       7.797   6.149  18.761  0.00  0.00    +0.000 A 
ATOM     21  N   UNL     1       8.311   7.397  18.650  0.00  0.00    +0.000 NA
ATOM     22  C   UNL     1       7.805   8.205  17.723  0.00  0.00    +0.000 A 
ATOM     23  N   UNL     1       8.317   9.483  17.636  0.00  0.00    +0.000 N 
ATOM     24  N   UNL     1       6.804   7.881  16.914  0.00  0.00    +0.000 NA
ATOM     25  C   UNL     1       6.298   6.633  17.022  0.00  0.00    +0.000 A 
ATOM     26  C   UNL     1       5.171   6.345  16.068  0.00  0.00    +0.000 C 
ATOM     27  C   UNL     1       6.777   5.683  17.934  0.00  0.00    +0.000 A 
ATOM     28  H   UNL     1       8.734   9.734  18.521  0.00  0.00    +0.000 HD
ATOM     29  H   UNL     1       7.610  10.103  17.266  0.00  0.00    +0.000 HD
ENDBRANCH  18  27
ENDBRANCH   1  18
TORSDOF 5
ENDMDL
MODEL 7
REMARK VINA RESULT:      -7.1      5.522      8.968
REMARK  Name = 
REMARK  7 active torsions:
REMARK  status: ('A' for Active; 'I' for Inactive)
REMARK    1  A    between atoms: C_1  and  C_2
REMARK    2  A    between atoms: C_7  and  C_8
REMARK    3  A    between atoms: C_9  and  C_10
REMARK    4  A    between atoms: C_10  and  C_11
REMARK    5  A    between atoms: C_17  and  C_18
REMARK    6  A    between atoms: C_18  and  C_20
REMARK    7  A    between atoms: C_20  and  C_21
REMARK                            x       y       z     vdW  Elec       q    Type
REMARK                         _______ _______ _______ _____ _____    ______ ____
ROOT
ATOM      1  C   UNL     1      -0.057  14.875  21.883  0.00  0.00    +0.000 C 
ATOM      2  O   UNL     1       0.441  14.603  22.979  0.00  0.00    +0.000 OA
ATOM      3  N   UNL     1       0.692  14.816  20.715  0.00  0.00    +0.000 N 
ATOM      4  C   UNL     1       0.206  15.207  19.396  0.00  0.00    +0.000 C 
ATOM      5  C   UNL     1      -0.125  13.959  18.592  0.00  0.00    +0.000 C 
ATOM      6  C   UNL     1       1.117  13.062  18.485  0.00  0.00    +0.000 C 
ATOM      7  C   UNL     1       1.718  12.722  19.869  0.00  0.00    +0.000 C 
ATOM      8  C   UNL     1       1.917  14.011  20.693  0.00  0.00    +0.000 C 
ENDROOT
BRANCH   7   9
ATOM      9  C   UNL     1       0.863  11.668  20.592  0.00  0.00    +0.000 C 
ATOM     10  O   UNL     1       0.708  11.690  21.819  0.00  0.00    +0.000 OA
BRANCH   9  11
ATOM     11  C   UNL     1       0.123  10.638  19.765  0.00  0.00    +0.000 C 
BRANCH  11  12
ATOM     12  C   UNL     1       0.978   9.469  19.349  0.00  0.00    +0.000 A 
ATOM     13  C   UNL     1       1.471   9.390  18.039  0.00  0.00    +0.000 A 
ATOM     14  C   UNL     1       2.298   8.326  17.656  0.00  0.00    +0.000 A 
ATOM     15  C   UNL     1       2.636   7.342  18.579  0.00  0.00    +0.000 A 
ATOM     16  C   UNL     1       2.152   7.411  19.884  0.00  0.00    +0.000 A 
ATOM     17  C   UNL     1       1.328   8.471  20.269  0.00  0.00    +0.000 A 
ENDBRANCH  11  12
ENDBRANCH   9  11
ENDBRANCH   7   9
BRANCH   1  18
ATOM     18  C   UNL     1      -1.552  15.120  21.772  0.00  0.00    +0.000 C 
BRANCH  18  27
ATOM     19  C   UNL     1      -2.355  15.863  24.686  0.00  0.00    +0.000 C 
ATOM     20  C   UNL     1      -2.851  14.653  23.955  0.00  0.00    +0.000 A 
ATOM     21  N   UNL     1      -3.676  13.876  24.698  0.00  0.00    +0.000 NA
ATOM     22  C   UNL     1      -4.167  12.772  24.143  0.00  0.00    +0.000 A 
ATOM     23  N   UNL     1      -4.984  11.973  24.917  0.00  0.00    +0.000 N 
ATOM     24  N   UNL     1      -3.881  12.360  22.914  0.00  0.00    +0.000 NA
ATOM     25  C   UNL     1      -3.065  13.141  22.173  0.00  0.00    +0.000 A 
ATOM     26  C   UNL     1      -2.795  12.607  20.793  0.00  0.00    +0.000 C 
ATOM     27  C   UNL     1      -2.519  14.346  22.637  0.00  0.00    +0.000 A 
ATOM     28  H   UNL     1      -4.789  12.147  25.892  0.00  0.00    +0.000 HD
ATOM     29  H   UNL     1      -4.920  11.018  24.595  0.00  0.00    +0.000 HD
ENDBRANCH  18  27
ENDBRANCH   1  18
TORSDOF 5
ENDMDL
MODEL 8
REMARK VINA RESULT:      -7.0      0.933      2.068
REMARK  Name = 
REMARK  7 active torsions:
REMARK  status: ('A' for Active; 'I' for Inactive)
REMARK    1  A    between atoms: C_1  and  C_2
REMARK    2  A    between atoms: C_7  and  C_8
REMARK    3  A    between atoms: C_9  and  C_10
REMARK    4  A    between atoms: C_10  and  C_11
REMARK    5  A    between atoms: C_17  and  C_18
REMARK    6  A    between atoms: C_18  and  C_20
REMARK    7  A    between atoms: C_20  and  C_21
REMARK                            x       y       z     vdW  Elec       q    Type
REMARK                         _______ _______ _______ _____ _____    ______ ____
ROOT
ATOM      1  C   UNL     1       1.919   5.790  18.813  0.00  0.00    +0.000 C 
ATOM      2  O   UNL     1       2.111   5.892  17.598  0.00  0.00    +0.000 OA
ATOM      3  N   UNL     1       1.496   4.595  19.380  0.00  0.00    +0.000 N 
ATOM      4  C   UNL     1       1.160   4.417  20.789  0.00  0.00    +0.000 C 
ATOM      5  C   UNL     1       2.305   3.706  21.493  0.00  0.00    +0.000 C 
ATOM      6  C   UNL     1       2.583   2.359  20.812  0.00  0.00    +0.000 C 
ATOM      7  C   UNL     1       2.836   2.508  19.293  0.00  0.00    +0.000 C 
ATOM      8  C   UNL     1       1.710   3.343  18.647  0.00  0.00    +0.000 C 
ENDROOT
BRANCH   7   9
ATOM      9  C   UNL     1       4.239   3.077  19.026  0.00  0.00    +0.000 C 
ATOM     10  O   UNL     1       5.130   3.032  19.884  0.00  0.00    +0.000 OA
BRANCH   9  11
ATOM     11  C   UNL     1       4.557   3.619  17.649  0.00  0.00    +0.000 C 
BRANCH  11  12
ATOM     12  C   UNL     1       5.506   4.789  17.664  0.00  0.00    +0.000 A 
ATOM     13  C   UNL     1       6.770   4.660  18.259  0.00  0.00    +0.000 A 
ATOM     14  C   UNL     1       7.673   5.731  18.242  0.00  0.00    +0.000 A 
ATOM     15  C   UNL     1       7.318   6.930  17.632  0.00  0.00    +0.000 A 
ATOM     16  C   UNL     1       6.066   7.068  17.037  0.00  0.00    +0.000 A 
ATOM     17  C   UNL     1       5.163   6.001  17.051  0.00  0.00    +0.000 A 
ENDBRANCH  11  12
ENDBRANCH   9  11
ENDBRANCH   7   9
BRANCH   1  18
ATOM     18  C   UNL     1       2.301   6.934  19.738  0.00  0.00    +0.000 C 
BRANCH  18  27
ATOM     19  C   UNL     1       2.803   8.922  17.397  0.00  0.00    +0.000 C 
ATOM     20  C   UNL     1       1.900   9.198  18.560  0.00  0.00    +0.000 A 
ATOM     21  N   UNL     1       1.330  10.426  18.521  0.00  0.00    +0.000 NA
ATOM     22  C   UNL     1       0.515  10.772  19.513  0.00  0.00    +0.000 A 
ATOM     23  N   UNL     1      -0.039  12.036  19.478  0.00  0.00    +0.000 N 
ATOM     24  N   UNL     1       0.242  10.005  20.560  0.00  0.00    +0.000 NA
ATOM     25  C   UNL     1       0.805   8.777  20.593  0.00  0.00    +0.000 A 
ATOM     26  C   UNL     1       0.442   7.970  21.809  0.00  0.00    +0.000 C 
ATOM     27  C   UNL     1       1.649   8.288  19.586  0.00  0.00    +0.000 A 
ATOM     28  H   UNL     1       0.541  12.636  18.909  0.00  0.00    +0.000 HD
ATOM     29  H   UNL     1      -0.237  12.341  20.420  0.00  0.00    +0.000 HD
ENDBRANCH  18  27
ENDBRANCH   1  18
TORSDOF 5
ENDMDL
MODEL 9
REMARK VINA RESULT:      -7.0      2.627      5.912
REMARK  Name = 
REMARK  7 active torsions:
REMARK  status: ('A' for Active; 'I' for Inactive)
REMARK    1  A    between atoms: C_1  and  C_2
REMARK    2  A    between atoms: C_7  and  C_8
REMARK    3  A    between atoms: C_9  and  C_10
REMARK    4  A    between atoms: C_10  and  C_11
REMARK    5  A    between atoms: C_17  and  C_18
REMARK    6  A    between atoms: C_18  and  C_20
REMARK    7  A    between atoms: C_20  and  C_21
REMARK                            x       y       z     vdW  Elec       q    Type
REMARK                         _______ _______ _______ _____ _____    ______ ____
ROOT
ATOM      1  C   UNL     1       5.167   4.027  19.207  0.00  0.00    +0.000 C 
ATOM      2  O   UNL     1       5.379   4.427  20.356  0.00  0.00    +0.000 OA
ATOM      3  N   UNL     1       3.984   3.380  18.874  0.00  0.00    +0.000 N 
ATOM      4  C   UNL     1       3.694   2.799  17.568  0.00  0.00    +0.000 C 
ATOM      5  C   UNL     1       2.758   3.722  16.804  0.00  0.00    +0.000 C 
ATOM      6  C   UNL     1       1.472   3.947  17.611  0.00  0.00    +0.000 C 
ATOM      7  C   UNL     1       1.758   4.461  19.042  0.00  0.00    +0.000 C 
ATOM      8  C   UNL     1       2.807   3.563  19.729  0.00  0.00    +0.000 C 
ENDROOT
BRANCH   7   9
ATOM      9  C   UNL     1       2.154   5.947  19.020  0.00  0.00    +0.000 C 
ATOM     10  O   UNL     1       2.284   6.567  17.957  0.00  0.00    +0.000 OA
BRANCH   9  11
ATOM     11  C   UNL     1       2.299   6.682  20.335  0.00  0.00    +0.000 C 
BRANCH  11  12
ATOM     12  C   UNL     1       1.456   7.928  20.427  0.00  0.00    +0.000 A 
ATOM     13  C   UNL     1       0.613   8.125  21.530  0.00  0.00    +0.000 A 
ATOM     14  C   UNL     1      -0.145   9.298  21.642  0.00  0.00    +0.000 A 
ATOM     15  C   UNL     1      -0.061  10.276  20.655  0.00  0.00    +0.000 A 
ATOM     16  C   UNL     1       0.774  10.090  19.555  0.00  0.00    +0.000 A 
ATOM     17  C   UNL     1       1.531   8.922  19.442  0.00  0.00    +0.000 A 
ENDBRANCH  11  12
ENDBRANCH   9  11
ENDBRANCH   7   9
BRANCH   1  18
ATOM     18  C   UNL     1       6.135   4.384  18.091  0.00  0.00    +0.000 C 
BRANCH  18  27
ATOM     19  C   UNL     1       5.151   6.504  16.036  0.00  0.00    +0.000 C 
ATOM     20  C   UNL     1       6.256   6.732  17.021  0.00  0.00    +0.000 A 
ATOM     21  N   UNL     1       6.825   7.957  16.919  0.00  0.00    +0.000 NA
ATOM     22  C   UNL     1       7.822   8.258  17.745  0.00  0.00    +0.000 A 
ATOM     23  N   UNL     1       8.412   9.499  17.615  0.00  0.00    +0.000 N 
ATOM     24  N   UNL     1       8.323   7.425  18.649  0.00  0.00    +0.000 NA
ATOM     25  C   UNL     1       7.749   6.207  18.754  0.00  0.00    +0.000 A 
ATOM     26  C   UNL     1       8.371   5.326  19.803  0.00  0.00    +0.000 C 
ATOM     27  C   UNL     1       6.667   5.793  17.965  0.00  0.00    +0.000 A 
ATOM     28  H   UNL     1       8.251   9.845  16.681  0.00  0.00    +0.000 HD
ATOM     29  H   UNL     1       9.370   9.449  17.931  0.00  0.00    +0.000 HD
ENDBRANCH  18  27
ENDBRANCH   1  18
TORSDOF 5
ENDMDL
