MODEL 1
REMARK VINA RESULT:      -9.3      0.000      0.000
REMARK  Name = 
REMARK  2 active torsions:
REMARK  status: ('A' for Active; 'I' for Inactive)
REMARK    1  A    between atoms: C_2  and  C_3
REMARK    2  A    between atoms: C_19  and  O_20
REMARK                            x       y       z     vdW  Elec       q    Type
REMARK                         _______ _______ _______ _____ _____    ______ ____
ROOT
ATOM      1  O   UNL     1       2.065   5.557  20.782  0.00  0.00    +0.000 OA
ATOM      2  C   UNL     1       2.442   6.200  19.804  0.00  0.00    +0.000 C 
ATOM      3  N   UNL     1       3.329   5.676  18.852  0.00  0.00    +0.000 N 
ATOM      4  C   UNL     1       3.878   6.418  17.721  0.00  0.00    +0.000 C 
ATOM      5  C   UNL     1       5.356   6.178  17.548  0.00  0.00    +0.000 C 
ATOM      6  C   UNL     1       5.670   4.682  17.393  0.00  0.00    +0.000 C 
ATOM      7  C   UNL     1       5.138   3.975  18.658  0.00  0.00    +0.000 C 
ATOM      8  C   UNL     1       3.649   4.245  18.904  0.00  0.00    +0.000 C 
ATOM      9  C   UNL     1       5.058   4.060  16.118  0.00  0.00    +0.000 C 
ATOM     10  C   UNL     1       5.570   4.743  14.851  0.00  0.00    +0.000 C 
ATOM     11  C   UNL     1       7.098   4.673  14.821  0.00  0.00    +0.000 C 
ATOM     12  N   UNL     1       7.729   4.999  16.085  0.00  0.00    +0.000 N 
ATOM     13  C   UNL     1       7.201   4.608  17.297  0.00  0.00    +0.000 C 
ATOM     14  O   UNL     1       7.937   4.371  18.241  0.00  0.00    +0.000 OA
ATOM     15  H   UNL     1       8.742   5.018  16.105  0.00  0.00    +0.000 HD
ENDROOT
BRANCH   2  16
ATOM     16  C   UNL     1       1.921   7.590  19.656  0.00  0.00    +0.000 A 
ATOM     17  C   UNL     1       2.007   8.231  18.403  0.00  0.00    +0.000 A 
ATOM     18  C   UNL     1       1.526   9.537  18.237  0.00  0.00    +0.000 A 
ATOM     19  C   UNL     1       0.933  10.154  19.320  0.00  0.00    +0.000 A 
ATOM     20  C   UNL     1       0.858   9.538  20.553  0.00  0.00    +0.000 A 
ATOM     21  C   UNL     1       1.408   8.291  20.754  0.00  0.00    +0.000 A 
ATOM     22  C   UNL     1       0.234  10.436  21.542  0.00  0.00    +0.000 C 
ATOM     23  C   UNL     1      -0.286  11.509  20.590  0.00  0.00    +0.000 C 
ATOM     24  O   UNL     1       0.419  11.424  19.325  0.00  0.00    +0.000 OA
ENDBRANCH   2  16
BRANCH  10  25
ATOM     25  O   UNL     1       5.010   4.119  13.702  0.00  0.00    +0.000 OA
ATOM     26  H   UNL     1       5.700   4.037  13.023  0.00  0.00    +0.000 HD
ENDBRANCH  10  25
TORSDOF 2
ENDMDL
MODEL 2
REMARK VINA RESULT:      -8.9      0.694      1.416
REMARK  Name = 
REMARK  2 active torsions:
REMARK  status: ('A' for Active; 'I' for Inactive)
REMARK    1  A    between atoms: C_2  and  C_3
REMARK    2  A    between atoms: C_19  and  O_20
REMARK                            x       y       z     vdW  Elec       q    Type
REMARK                         _______ _______ _______ _____ _____    ______ ____
ROOT
ATOM      1  O   UNL     1       2.137   5.115  21.060  0.00  0.00    +0.000 OA
ATOM      2  C   UNL     1       2.458   5.832  20.114  0.00  0.00    +0.000 C 
ATOM      3  N   UNL     1       3.335   5.404  19.106  0.00  0.00    +0.000 N 
ATOM      4  C   UNL     1       3.819   6.238  18.009  0.00  0.00    +0.000 C 
ATOM      5  C   UNL     1       5.299   6.069  17.778  0.00  0.00    +0.000 C 
ATOM      6  C   UNL     1       5.667   4.600  17.520  0.00  0.00    +0.000 C 
ATOM      7  C   UNL     1       5.202   3.795  18.753  0.00  0.00    +0.000 C 
ATOM      8  C   UNL     1       3.712   3.988  19.058  0.00  0.00    +0.000 C 
ATOM      9  C   UNL     1       5.040   4.034  16.227  0.00  0.00    +0.000 C 
ATOM     10  C   UNL     1       5.485   4.815  14.991  0.00  0.00    +0.000 C 
ATOM     11  C   UNL     1       7.013   4.809  14.913  0.00  0.00    +0.000 C 
ATOM     12  N   UNL     1       7.669   5.082  16.177  0.00  0.00    +0.000 N 
ATOM     13  C   UNL     1       7.196   4.595  17.377  0.00  0.00    +0.000 C 
ATOM     14  O   UNL     1       7.969   4.330  18.282  0.00  0.00    +0.000 OA
ATOM     15  H   UNL     1       8.681   5.141  16.169  0.00  0.00    +0.000 HD
ENDROOT
BRANCH   2  16
ATOM     16  C   UNL     1       1.879   7.205  20.070  0.00  0.00    +0.000 A 
ATOM     17  C   UNL     1       1.103   7.664  21.155  0.00  0.00    +0.000 A 
ATOM     18  C   UNL     1       0.546   8.950  21.139  0.00  0.00    +0.000 A 
ATOM     19  C   UNL     1       0.814   9.761  20.053  0.00  0.00    +0.000 A 
ATOM     20  C   UNL     1       1.561   9.313  18.982  0.00  0.00    +0.000 A 
ATOM     21  C   UNL     1       2.037   8.022  18.944  0.00  0.00    +0.000 A 
ATOM     22  C   UNL     1       1.643  10.353  17.940  0.00  0.00    +0.000 C 
ATOM     23  C   UNL     1       1.086  11.529  18.737  0.00  0.00    +0.000 C 
ATOM     24  O   UNL     1       0.345  11.036  19.883  0.00  0.00    +0.000 OA
ENDBRANCH   2  16
BRANCH  10  25
ATOM     25  O   UNL     1       4.914   4.241  13.821  0.00  0.00    +0.000 OA
ATOM     26  H   UNL     1       4.217   4.833  13.492  0.00  0.00    +0.000 HD
ENDBRANCH  10  25
TORSDOF 2
ENDMDL
MODEL 3
REMARK VINA RESULT:      -8.6      2.236      7.672
REMARK  Name = 
REMARK  2 active torsions:
REMARK  status: ('A' for Active; 'I' for Inactive)
REMARK    1  A    between atoms: C_2  and  C_3
REMARK    2  A    between atoms: C_19  and  O_20
REMARK                            x       y       z     vdW  Elec       q    Type
REMARK                         _______ _______ _______ _____ _____    ______ ____
ROOT
ATOM      1  O   UNL     1       1.765   5.609  20.983  0.00  0.00    +0.000 OA
ATOM      2  C   UNL     1       2.195   6.330  20.084  0.00  0.00    +0.000 C 
ATOM      3  N   UNL     1       1.814   7.673  19.946  0.00  0.00    +0.000 N 
ATOM      4  C   UNL     1       2.221   8.550  18.852  0.00  0.00    +0.000 C 
ATOM      5  C   UNL     1       1.069   9.361  18.316  0.00  0.00    +0.000 C 
ATOM      6  C   UNL     1       0.395  10.186  19.424  0.00  0.00    +0.000 C 
ATOM      7  C   UNL     1      -0.082   9.189  20.502  0.00  0.00    +0.000 C 
ATOM      8  C   UNL     1       1.051   8.301  21.030  0.00  0.00    +0.000 C 
ATOM      9  C   UNL     1       1.326  11.254  20.039  0.00  0.00    +0.000 C 
ATOM     10  C   UNL     1       1.812  12.254  18.991  0.00  0.00    +0.000 C 
ATOM     11  C   UNL     1       0.605  12.899  18.309  0.00  0.00    +0.000 C 
ATOM     12  N   UNL     1      -0.436  11.960  17.938  0.00  0.00    +0.000 N 
ATOM     13  C   UNL     1      -0.783  10.888  18.733  0.00  0.00    +0.000 C 
ATOM     14  O   UNL     1      -1.929  10.474  18.741  0.00  0.00    +0.000 OA
ATOM     15  H   UNL     1      -1.235  12.329  17.436  0.00  0.00    +0.000 HD
ENDROOT
BRANCH   2  16
ATOM     16  C   UNL     1       3.151   5.720  19.116  0.00  0.00    +0.000 A 
ATOM     17  C   UNL     1       2.652   5.057  17.975  0.00  0.00    +0.000 A 
ATOM     18  C   UNL     1       3.529   4.474  17.050  0.00  0.00    +0.000 A 
ATOM     19  C   UNL     1       4.887   4.605  17.269  0.00  0.00    +0.000 A 
ATOM     20  C   UNL     1       5.381   5.240  18.390  0.00  0.00    +0.000 A 
ATOM     21  C   UNL     1       4.531   5.737  19.353  0.00  0.00    +0.000 A 
ATOM     22  C   UNL     1       6.854   5.186  18.406  0.00  0.00    +0.000 C 
ATOM     23  C   UNL     1       7.087   4.694  16.981  0.00  0.00    +0.000 C 
ATOM     24  O   UNL     1       5.871   4.092  16.466  0.00  0.00    +0.000 OA
ENDBRANCH   2  16
BRANCH  10  25
ATOM     25  O   UNL     1       2.636  13.239  19.604  0.00  0.00    +0.000 OA
ATOM     26  H   UNL     1       2.178  14.095  19.570  0.00  0.00    +0.000 HD
ENDBRANCH  10  25
TORSDOF 2
ENDMDL
MODEL 4
REMARK VINA RESULT:      -8.0      2.220      7.689
REMARK  Name = 
REMARK  2 active torsions:
REMARK  status: ('A' for Active; 'I' for Inactive)
REMARK    1  A    between atoms: C_2  and  C_3
REMARK    2  A    between atoms: C_19  and  O_20
REMARK                            x       y       z     vdW  Elec       q    Type
REMARK                         _______ _______ _______ _____ _____    ______ ____
ROOT
ATOM      1  O   UNL     1       1.790   5.765  20.836  0.00  0.00    +0.000 OA
ATOM      2  C   UNL     1       2.185   6.494  19.928  0.00  0.00    +0.000 C 
ATOM      3  N   UNL     1       1.811   7.842  19.826  0.00  0.00    +0.000 N 
ATOM      4  C   UNL     1       2.175   8.731  18.726  0.00  0.00    +0.000 C 
ATOM      5  C   UNL     1       1.008   9.560  18.255  0.00  0.00    +0.000 C 
ATOM      6  C   UNL     1       0.394  10.375  19.404  0.00  0.00    +0.000 C 
ATOM      7  C   UNL     1      -0.043   9.367  20.488  0.00  0.00    +0.000 C 
ATOM      8  C   UNL     1       1.104   8.462  20.952  0.00  0.00    +0.000 C 
ATOM      9  C   UNL     1       1.362  11.426  19.990  0.00  0.00    +0.000 C 
ATOM     10  C   UNL     1       1.809  12.437  18.934  0.00  0.00    +0.000 C 
ATOM     11  C   UNL     1       0.577  13.102  18.317  0.00  0.00    +0.000 C 
ATOM     12  N   UNL     1      -0.488  12.177  17.981  0.00  0.00    +0.000 N 
ATOM     13  C   UNL     1      -0.808  11.097  18.777  0.00  0.00    +0.000 C 
ATOM     14  O   UNL     1      -1.957  10.693  18.832  0.00  0.00    +0.000 OA
ATOM     15  H   UNL     1      -1.306  12.560  17.522  0.00  0.00    +0.000 HD
ENDROOT
BRANCH   2  16
ATOM     16  C   UNL     1       3.090   5.889  18.909  0.00  0.00    +0.000 A 
ATOM     17  C   UNL     1       3.411   4.518  18.996  0.00  0.00    +0.000 A 
ATOM     18  C   UNL     1       4.260   3.924  18.052  0.00  0.00    +0.000 A 
ATOM     19  C   UNL     1       4.735   4.709  17.020  0.00  0.00    +0.000 A 
ATOM     20  C   UNL     1       4.436   6.054  16.937  0.00  0.00    +0.000 A 
ATOM     21  C   UNL     1       3.678   6.671  17.907  0.00  0.00    +0.000 A 
ATOM     22  C   UNL     1       5.116   6.664  15.779  0.00  0.00    +0.000 C 
ATOM     23  C   UNL     1       5.580   5.388  15.081  0.00  0.00    +0.000 C 
ATOM     24  O   UNL     1       5.574   4.285  16.024  0.00  0.00    +0.000 OA
ENDBRANCH   2  16
BRANCH  10  25
ATOM     25  O   UNL     1       2.669  13.405  19.522  0.00  0.00    +0.000 OA
ATOM     26  H   UNL     1       2.591  14.236  19.024  0.00  0.00    +0.000 HD
ENDBRANCH  10  25
TORSDOF 2
ENDMDL
MODEL 5
REMARK VINA RESULT:      -7.9      2.482      8.011
REMARK  Name = 
REMARK  2 active torsions:
REMARK  status: ('A' for Active; 'I' for Inactive)
REMARK    1  A    between atoms: C_2  and  C_3
REMARK    2  A    between atoms: C_19  and  O_20
REMARK                            x       y       z     vdW  Elec       q    Type
REMARK                         _______ _______ _______ _____ _____    ______ ____
ROOT
ATOM      1  O   UNL     1       1.827   6.397  20.546  0.00  0.00    +0.000 OA
ATOM      2  C   UNL     1       2.101   7.155  19.617  0.00  0.00    +0.000 C 
ATOM      3  N   UNL     1       1.587   8.457  19.529  0.00  0.00    +0.000 N 
ATOM      4  C   UNL     1       1.806   9.370  18.410  0.00  0.00    +0.000 C 
ATOM      5  C   UNL     1       0.539  10.071  17.993  0.00  0.00    +0.000 C 
ATOM      6  C   UNL     1      -0.100  10.829  19.168  0.00  0.00    +0.000 C 
ATOM      7  C   UNL     1      -0.379   9.791  20.276  0.00  0.00    +0.000 C 
ATOM      8  C   UNL     1       0.876   9.011  20.686  0.00  0.00    +0.000 C 
ATOM      9  C   UNL     1       0.783  11.978  19.703  0.00  0.00    +0.000 C 
ATOM     10  C   UNL     1       1.074  13.020  18.623  0.00  0.00    +0.000 C 
ATOM     11  C   UNL     1      -0.247  13.552  18.064  0.00  0.00    +0.000 C 
ATOM     12  N   UNL     1      -1.227  12.520  17.784  0.00  0.00    +0.000 N 
ATOM     13  C   UNL     1      -1.397  11.420  18.598  0.00  0.00    +0.000 C 
ATOM     14  O   UNL     1      -2.495  10.902  18.710  0.00  0.00    +0.000 OA
ATOM     15  H   UNL     1      -2.101  12.815  17.364  0.00  0.00    +0.000 HD
ENDROOT
BRANCH   2  16
ATOM     16  C   UNL     1       3.013   6.637  18.557  0.00  0.00    +0.000 A 
ATOM     17  C   UNL     1       3.740   7.549  17.764  0.00  0.00    +0.000 A 
ATOM     18  C   UNL     1       4.604   7.089  16.761  0.00  0.00    +0.000 A 
ATOM     19  C   UNL     1       4.750   5.725  16.603  0.00  0.00    +0.000 A 
ATOM     20  C   UNL     1       4.031   4.827  17.367  0.00  0.00    +0.000 A 
ATOM     21  C   UNL     1       3.112   5.266  18.294  0.00  0.00    +0.000 A 
ATOM     22  C   UNL     1       4.331   3.443  16.956  0.00  0.00    +0.000 C 
ATOM     23  C   UNL     1       5.540   3.720  16.065  0.00  0.00    +0.000 C 
ATOM     24  O   UNL     1       5.547   5.116  15.671  0.00  0.00    +0.000 OA
ENDBRANCH   2  16
BRANCH  10  25
ATOM     25  O   UNL     1       1.858  14.076  19.165  0.00  0.00    +0.000 OA
ATOM     26  H   UNL     1       1.665  14.892  18.674  0.00  0.00    +0.000 HD
ENDBRANCH  10  25
TORSDOF 2
ENDMDL
MODEL 6
REMARK VINA RESULT:      -7.9      3.803      6.483
REMARK  Name = 
REMARK  2 active torsions:
REMARK  status: ('A' for Active; 'I' for Inactive)
REMARK    1  A    between atoms: C_2  and  C_3
REMARK    2  A    between atoms: C_19  and  O_20
REMARK                            x       y       z     vdW  Elec       q    Type
REMARK                         _______ _______ _______ _____ _____    ______ ____
ROOT
ATOM      1  O   UNL     1       7.178   5.463  15.788  0.00  0.00    +0.000 OA
ATOM      2  C   UNL     1       6.782   5.753  16.916  0.00  0.00    +0.000 C 
ATOM      3  N   UNL     1       5.745   5.057  17.554  0.00  0.00    +0.000 N 
ATOM      4  C   UNL     1       5.175   5.410  18.852  0.00  0.00    +0.000 C 
ATOM      5  C   UNL     1       3.670   5.348  18.847  0.00  0.00    +0.000 C 
ATOM      6  C   UNL     1       3.163   3.964  18.412  0.00  0.00    +0.000 C 
ATOM      7  C   UNL     1       3.734   3.696  17.003  0.00  0.00    +0.000 C 
ATOM      8  C   UNL     1       5.262   3.810  16.952  0.00  0.00    +0.000 C 
ATOM      9  C   UNL     1       3.561   2.836  19.389  0.00  0.00    +0.000 C 
ATOM     10  C   UNL     1       3.006   3.078  20.792  0.00  0.00    +0.000 C 
ATOM     11  C   UNL     1       1.486   3.233  20.716  0.00  0.00    +0.000 C 
ATOM     12  N   UNL     1       1.033   4.088  19.636  0.00  0.00    +0.000 N 
ATOM     13  C   UNL     1       1.632   4.092  18.394  0.00  0.00    +0.000 C 
ATOM     14  O   UNL     1       0.975   4.329  17.395  0.00  0.00    +0.000 OA
ATOM     15  H   UNL     1       0.037   4.265  19.573  0.00  0.00    +0.000 HD
ENDROOT
BRANCH   2  16
ATOM     16  C   UNL     1       7.449   6.897  17.601  0.00  0.00    +0.000 A 
ATOM     17  C   UNL     1       8.183   6.663  18.782  0.00  0.00    +0.000 A 
ATOM     18  C   UNL     1       8.819   7.721  19.447  0.00  0.00    +0.000 A 
ATOM     19  C   UNL     1       8.738   8.982  18.889  0.00  0.00    +0.000 A 
ATOM     20  C   UNL     1       8.010   9.220  17.741  0.00  0.00    +0.000 A 
ATOM     21  C   UNL     1       7.306   8.207  17.128  0.00  0.00    +0.000 A 
ATOM     22  C   UNL     1       8.041  10.654  17.398  0.00  0.00    +0.000 C 
ATOM     23  C   UNL     1       9.138  11.101  18.359  0.00  0.00    +0.000 C 
ATOM     24  O   UNL     1       9.297  10.117  19.413  0.00  0.00    +0.000 OA
ENDBRANCH   2  16
BRANCH  10  25
ATOM     25  O   UNL     1       3.365   2.001  21.650  0.00  0.00    +0.000 OA
ATOM     26  H   UNL     1       3.091   2.219  22.556  0.00  0.00    +0.000 HD
ENDBRANCH  10  25
TORSDOF 2
ENDMDL
MODEL 7
REMARK VINA RESULT:      -7.9      3.575      8.208
REMARK  Name = 
REMARK  2 active torsions:
REMARK  status: ('A' for Active; 'I' for Inactive)
REMARK    1  A    between atoms: C_2  and  C_3
REMARK    2  A    between atoms: C_19  and  O_20
REMARK                            x       y       z     vdW  Elec       q    Type
REMARK                         _______ _______ _______ _____ _____    ______ ____
ROOT
ATOM      1  O   UNL     1       3.552   8.149  17.524  0.00  0.00    +0.000 OA
ATOM      2  C   UNL     1       2.578   8.074  18.271  0.00  0.00    +0.000 C 
ATOM      3  N   UNL     1       1.796   9.189  18.606  0.00  0.00    +0.000 N 
ATOM      4  C   UNL     1       0.685   9.178  19.553  0.00  0.00    +0.000 C 
ATOM      5  C   UNL     1       0.722  10.360  20.487  0.00  0.00    +0.000 C 
ATOM      6  C   UNL     1       0.739  11.689  19.716  0.00  0.00    +0.000 C 
ATOM      7  C   UNL     1       1.982  11.665  18.801  0.00  0.00    +0.000 C 
ATOM      8  C   UNL     1       2.012  10.443  17.876  0.00  0.00    +0.000 C 
ATOM      9  C   UNL     1      -0.545  11.930  18.891  0.00  0.00    +0.000 C 
ATOM     10  C   UNL     1      -1.791  11.959  19.776  0.00  0.00    +0.000 C 
ATOM     11  C   UNL     1      -1.619  13.028  20.857  0.00  0.00    +0.000 C 
ATOM     12  N   UNL     1      -0.318  13.018  21.496  0.00  0.00    +0.000 N 
ATOM     13  C   UNL     1       0.847  12.773  20.799  0.00  0.00    +0.000 C 
ATOM     14  O   UNL     1       1.893  13.293  21.148  0.00  0.00    +0.000 OA
ATOM     15  H   UNL     1      -0.170  13.673  22.255  0.00  0.00    +0.000 HD
ENDROOT
BRANCH   2  16
ATOM     16  C   UNL     1       2.245   6.731  18.829  0.00  0.00    +0.000 A 
ATOM     17  C   UNL     1       2.009   6.598  20.213  0.00  0.00    +0.000 A 
ATOM     18  C   UNL     1       1.696   5.347  20.764  0.00  0.00    +0.000 A 
ATOM     19  C   UNL     1       1.586   4.269  19.909  0.00  0.00    +0.000 A 
ATOM     20  C   UNL     1       1.829   4.390  18.555  0.00  0.00    +0.000 A 
ATOM     21  C   UNL     1       2.227   5.593  18.015  0.00  0.00    +0.000 A 
ATOM     22  C   UNL     1       1.701   3.082  17.888  0.00  0.00    +0.000 C 
ATOM     23  C   UNL     1       1.060   2.298  19.029  0.00  0.00    +0.000 C 
ATOM     24  O   UNL     1       1.292   2.985  20.286  0.00  0.00    +0.000 OA
ENDBRANCH   2  16
BRANCH  10  25
ATOM     25  O   UNL     1      -2.944  12.217  18.983  0.00  0.00    +0.000 OA
ATOM     26  H   UNL     1      -3.734  12.119  19.541  0.00  0.00    +0.000 HD
ENDBRANCH  10  25
TORSDOF 2
ENDMDL
MODEL 8
REMARK VINA RESULT:      -7.8      3.517      7.889
REMARK  Name = 
REMARK  2 active torsions:
REMARK  status: ('A' for Active; 'I' for Inactive)
REMARK    1  A    between atoms: C_2  and  C_3
REMARK    2  A    between atoms: C_19  and  O_20
REMARK                            x       y       z     vdW  Elec       q    Type
REMARK                         _______ _______ _______ _____ _____    ______ ____
ROOT
ATOM      1  O   UNL     1       3.768   7.677  17.528  0.00  0.00    +0.000 OA
ATOM      2  C   UNL     1       2.730   7.573  18.179  0.00  0.00    +0.000 C 
ATOM      3  N   UNL     1       1.911   8.673  18.474  0.00  0.00    +0.000 N 
ATOM      4  C   UNL     1       0.717   8.627  19.314  0.00  0.00    +0.000 C 
ATOM      5  C   UNL     1       0.658   9.780  20.283  0.00  0.00    +0.000 C 
ATOM      6  C   UNL     1       0.734  11.132  19.557  0.00  0.00    +0.000 C 
ATOM      7  C   UNL     1       2.056  11.143  18.760  0.00  0.00    +0.000 C 
ATOM      8  C   UNL     1       2.182   9.950  17.805  0.00  0.00    +0.000 C 
ATOM      9  C   UNL     1      -0.470  11.390  18.625  0.00  0.00    +0.000 C 
ATOM     10  C   UNL     1      -1.792  11.385  19.391  0.00  0.00    +0.000 C 
ATOM     11  C   UNL     1      -1.730  12.421  20.515  0.00  0.00    +0.000 C 
ATOM     12  N   UNL     1      -0.493  12.399  21.270  0.00  0.00    +0.000 N 
ATOM     13  C   UNL     1       0.733  12.182  20.677  0.00  0.00    +0.000 C 
ATOM     14  O   UNL     1       1.738  12.697  21.136  0.00  0.00    +0.000 OA
ATOM     15  H   UNL     1      -0.422  13.031  22.059  0.00  0.00    +0.000 HD
ENDROOT
BRANCH   2  16
ATOM     16  C   UNL     1       2.359   6.212  18.663  0.00  0.00    +0.000 A 
ATOM     17  C   UNL     1       1.818   5.279  17.755  0.00  0.00    +0.000 A 
ATOM     18  C   UNL     1       1.460   3.993  18.184  0.00  0.00    +0.000 A 
ATOM     19  C   UNL     1       1.690   3.660  19.504  0.00  0.00    +0.000 A 
ATOM     20  C   UNL     1       2.206   4.574  20.401  0.00  0.00    +0.000 A 
ATOM     21  C   UNL     1       2.477   5.867  20.015  0.00  0.00    +0.000 A 
ATOM     22  C   UNL     1       2.295   3.981  21.748  0.00  0.00    +0.000 C 
ATOM     23  C   UNL     1       2.034   2.523  21.381  0.00  0.00    +0.000 C 
ATOM     24  O   UNL     1       1.395   2.453  20.080  0.00  0.00    +0.000 OA
ENDBRANCH   2  16
BRANCH  10  25
ATOM     25  O   UNL     1      -2.870  11.661  18.504  0.00  0.00    +0.000 OA
ATOM     26  H   UNL     1      -3.338  10.830  18.313  0.00  0.00    +0.000 HD
ENDBRANCH  10  25
TORSDOF 2
ENDMDL
MODEL 9
REMARK VINA RESULT:      -7.7      2.580      3.944
REMARK  Name = 
REMARK  2 active torsions:
REMARK  status: ('A' for Active; 'I' for Inactive)
REMARK    1  A    between atoms: C_2  and  C_3
REMARK    2  A    between atoms: C_19  and  O_20
REMARK                            x       y       z     vdW  Elec       q    Type
REMARK                         _______ _______ _______ _____ _____    ______ ____
ROOT
ATOM      1  O   UNL     1       2.999   8.973  17.419  0.00  0.00    +0.000 OA
ATOM      2  C   UNL     1       2.529   8.257  18.302  0.00  0.00    +0.000 C 
ATOM      3  N   UNL     1       2.869   6.903  18.437  0.00  0.00    +0.000 N 
ATOM      4  C   UNL     1       2.281   5.985  19.408  0.00  0.00    +0.000 C 
ATOM      5  C   UNL     1       1.934   4.653  18.793  0.00  0.00    +0.000 C 
ATOM      6  C   UNL     1       3.158   4.001  18.132  0.00  0.00    +0.000 C 
ATOM      7  C   UNL     1       3.675   4.988  17.064  0.00  0.00    +0.000 C 
ATOM      8  C   UNL     1       3.981   6.376  17.639  0.00  0.00    +0.000 C 
ATOM      9  C   UNL     1       4.276   3.647  19.138  0.00  0.00    +0.000 C 
ATOM     10  C   UNL     1       3.789   2.669  20.206  0.00  0.00    +0.000 C 
ATOM     11  C   UNL     1       3.236   1.414  19.530  0.00  0.00    +0.000 C 
ATOM     12  N   UNL     1       2.374   1.685  18.397  0.00  0.00    +0.000 N 
ATOM     13  C   UNL     1       2.624   2.705  17.504  0.00  0.00    +0.000 C 
ATOM     14  O   UNL     1       2.294   2.595  16.335  0.00  0.00    +0.000 OA
ATOM     15  H   UNL     1       1.940   0.889  17.944  0.00  0.00    +0.000 HD
ENDROOT
BRANCH   2  16
ATOM     16  C   UNL     1       1.559   8.883  19.246  0.00  0.00    +0.000 A 
ATOM     17  C   UNL     1       0.499   9.660  18.733  0.00  0.00    +0.000 A 
ATOM     18  C   UNL     1      -0.427  10.260  19.599  0.00  0.00    +0.000 A 
ATOM     19  C   UNL     1      -0.291  10.034  20.954  0.00  0.00    +0.000 A 
ATOM     20  C   UNL     1       0.752   9.287  21.463  0.00  0.00    +0.000 A 
ATOM     21  C   UNL     1       1.719   8.767  20.632  0.00  0.00    +0.000 A 
ATOM     22  C   UNL     1       0.693   9.253  22.936  0.00  0.00    +0.000 C 
ATOM     23  C   UNL     1      -0.703   9.840  23.128  0.00  0.00    +0.000 C 
ATOM     24  O   UNL     1      -1.105  10.548  21.928  0.00  0.00    +0.000 OA
ENDBRANCH   2  16
BRANCH  10  25
ATOM     25  O   UNL     1       4.856   2.343  21.090  0.00  0.00    +0.000 OA
ATOM     26  H   UNL     1       5.652   2.160  20.563  0.00  0.00    +0.000 HD
ENDBRANCH  10  25
TORSDOF 2
ENDMDL
