MODEL 1
REMARK VINA RESULT:      -7.8      0.000      0.000
REMARK  Name = 
REMARK  6 active torsions:
REMARK  status: ('A' for Active; 'I' for Inactive)
REMARK    1  A    between atoms: C_2  and  C_3
REMARK    2  A    between atoms: C_3  and  C_4
REMARK    3  A    between atoms: C_4  and  C_5
REMARK    4  A    between atoms: C_4  and  N_6
REMARK    5  A    between atoms: C_7  and  S_8
REMARK    6  A    between atoms: S_8  and  C_9
REMARK                            x       y       z     vdW  Elec       q    Type
REMARK                         _______ _______ _______ _____ _____    ______ ____
ROOT
ATOM      1  N   UNL     1       3.876   5.307  17.742  0.00  0.00    +0.000 N 
ATOM      2  C   UNL     1       2.975   6.245  18.212  0.00  0.00    +0.000 A 
ATOM      3  N   UNL     1       1.999   5.687  18.899  0.00  0.00    +0.000 NA
ATOM      4  C   UNL     1       2.287   4.340  18.912  0.00  0.00    +0.000 A 
ATOM      5  C   UNL     1       1.636   3.232  19.486  0.00  0.00    +0.000 A 
ATOM      6  N   UNL     1       0.443   3.316  20.188  0.00  0.00    +0.000 N 
ATOM      7  N   UNL     1       2.207   2.012  19.360  0.00  0.00    +0.000 NA
ATOM      8  C   UNL     1       3.353   1.909  18.658  0.00  0.00    +0.000 A 
ATOM      9  N   UNL     1       4.046   2.889  18.044  0.00  0.00    +0.000 NA
ATOM     10  C   UNL     1       3.456   4.084  18.216  0.00  0.00    +0.000 A 
ATOM     11  H   UNL     1       0.221   4.241  20.537  0.00  0.00    +0.000 HD
ATOM     12  H   UNL     1       0.292   2.527  20.797  0.00  0.00    +0.000 HD
ENDROOT
BRANCH   1  13
ATOM     13  C   UNL     1       5.078   5.522  16.931  0.00  0.00    +0.000 C 
ATOM     14  C   UNL     1       5.175   4.525  15.766  0.00  0.00    +0.000 C 
BRANCH  13  15
ATOM     15  C   UNL     1       6.351   5.522  17.800  0.00  0.00    +0.000 C 
BRANCH  15  17
ATOM     16  C   UNL     1       7.730   7.804  17.589  0.00  0.00    +0.000 C 
ATOM     17  C   UNL     1       7.104   6.783  17.673  0.00  0.00    +0.000 C 
ENDBRANCH  15  17
ENDBRANCH  13  15
ENDBRANCH   1  13
BRANCH   2  18
ATOM     18  S   UNL     1       3.036   7.920  17.761  0.00  0.00    +0.000 S 
BRANCH  18  19
ATOM     19  C   UNL     1       1.784   8.732  18.751  0.00  0.00    +0.000 A 
ATOM     20  C   UNL     1       0.811   9.464  18.049  0.00  0.00    +0.000 A 
ATOM     21  C   UNL     1      -0.257  10.070  18.719  0.00  0.00    +0.000 A 
ATOM     22 CL   UNL     1      -1.438  10.949  17.826  0.00  0.00    +0.000 Cl
ATOM     23  C   UNL     1      -0.384   9.956  20.096  0.00  0.00    +0.000 A 
ATOM     24  C   UNL     1       0.572   9.226  20.799  0.00  0.00    +0.000 A 
ATOM     25 CL   UNL     1       0.404   9.039  22.501  0.00  0.00    +0.000 Cl
ATOM     26  C   UNL     1       1.649   8.622  20.138  0.00  0.00    +0.000 A 
ENDBRANCH  18  19
ENDBRANCH   2  18
TORSDOF 5
ENDMDL
MODEL 2
REMARK VINA RESULT:      -7.8      0.158      1.840
REMARK  Name = 
REMARK  6 active torsions:
REMARK  status: ('A' for Active; 'I' for Inactive)
REMARK    1  A    between atoms: C_2  and  C_3
REMARK    2  A    between atoms: C_3  and  C_4
REMARK    3  A    between atoms: C_4  and  C_5
REMARK    4  A    between atoms: C_4  and  N_6
REMARK    5  A    between atoms: C_7  and  S_8
REMARK    6  A    between atoms: S_8  and  C_9
REMARK                            x       y       z     vdW  Elec       q    Type
REMARK                         _______ _______ _______ _____ _____    ______ ____
ROOT
ATOM      1  N   UNL     1       3.907   5.212  17.677  0.00  0.00    +0.000 N 
ATOM      2  C   UNL     1       3.047   6.168  18.187  0.00  0.00    +0.000 A 
ATOM      3  N   UNL     1       2.064   5.628  18.877  0.00  0.00    +0.000 NA
ATOM      4  C   UNL     1       2.306   4.272  18.853  0.00  0.00    +0.000 A 
ATOM      5  C   UNL     1       1.626   3.173  19.411  0.00  0.00    +0.000 A 
ATOM      6  N   UNL     1       0.448   3.281  20.137  0.00  0.00    +0.000 N 
ATOM      7  N   UNL     1       2.152   1.937  19.246  0.00  0.00    +0.000 NA
ATOM      8  C   UNL     1       3.281   1.812  18.521  0.00  0.00    +0.000 A 
ATOM      9  N   UNL     1       3.998   2.782  17.918  0.00  0.00    +0.000 NA
ATOM     10  C   UNL     1       3.452   3.992  18.129  0.00  0.00    +0.000 A 
ATOM     11  H   UNL     1       0.265   4.204  20.512  0.00  0.00    +0.000 HD
ATOM     12  H   UNL     1       0.281   2.482  20.730  0.00  0.00    +0.000 HD
ENDROOT
BRANCH   1  13
ATOM     13  C   UNL     1       5.101   5.405  16.851  0.00  0.00    +0.000 C 
ATOM     14  C   UNL     1       5.164   4.407  15.685  0.00  0.00    +0.000 C 
BRANCH  13  15
ATOM     15  C   UNL     1       6.385   5.382  17.702  0.00  0.00    +0.000 C 
BRANCH  15  17
ATOM     16  C   UNL     1       7.676   7.722  17.591  0.00  0.00    +0.000 C 
ATOM     17  C   UNL     1       7.106   6.666  17.647  0.00  0.00    +0.000 C 
ENDBRANCH  15  17
ENDBRANCH  13  15
ENDBRANCH   1  13
BRANCH   2  18
ATOM     18  S   UNL     1       3.158   7.850  17.775  0.00  0.00    +0.000 S 
BRANCH  18  19
ATOM     19  C   UNL     1       1.782   8.642  18.602  0.00  0.00    +0.000 A 
ATOM     20  C   UNL     1       1.755   8.543  20.004  0.00  0.00    +0.000 A 
ATOM     21  C   UNL     1       0.769   9.193  20.754  0.00  0.00    +0.000 A 
ATOM     22 CL   UNL     1       0.773   9.059  22.471  0.00  0.00    +0.000 Cl
ATOM     23  C   UNL     1      -0.204   9.960  20.128  0.00  0.00    +0.000 A 
ATOM     24  C   UNL     1      -0.180  10.070  18.741  0.00  0.00    +0.000 A 
ATOM     25 CL   UNL     1      -1.354  11.053  17.954  0.00  0.00    +0.000 Cl
ATOM     26  C   UNL     1       0.798   9.417  17.980  0.00  0.00    +0.000 A 
ENDBRANCH  18  19
ENDBRANCH   2  18
TORSDOF 5
ENDMDL
MODEL 3
REMARK VINA RESULT:      -7.7      1.963      4.676
REMARK  Name = 
REMARK  6 active torsions:
REMARK  status: ('A' for Active; 'I' for Inactive)
REMARK    1  A    between atoms: C_2  and  C_3
REMARK    2  A    between atoms: C_3  and  C_4
REMARK    3  A    between atoms: C_4  and  C_5
REMARK    4  A    between atoms: C_4  and  N_6
REMARK    5  A    between atoms: C_7  and  S_8
REMARK    6  A    between atoms: S_8  and  C_9
REMARK                            x       y       z     vdW  Elec       q    Type
REMARK                         _______ _______ _______ _____ _____    ______ ____
ROOT
ATOM      1  N   UNL     1       3.908   4.505  17.499  0.00  0.00    +0.000 N 
ATOM      2  C   UNL     1       4.076   5.411  18.531  0.00  0.00    +0.000 A 
ATOM      3  N   UNL     1       5.182   6.113  18.394  0.00  0.00    +0.000 NA
ATOM      4  C   UNL     1       5.742   5.682  17.211  0.00  0.00    +0.000 A 
ATOM      5  C   UNL     1       6.911   6.050  16.520  0.00  0.00    +0.000 A 
ATOM      6  N   UNL     1       7.815   6.997  16.981  0.00  0.00    +0.000 N 
ATOM      7  N   UNL     1       7.170   5.462  15.330  0.00  0.00    +0.000 NA
ATOM      8  C   UNL     1       6.316   4.520  14.880  0.00  0.00    +0.000 A 
ATOM      9  N   UNL     1       5.189   4.068  15.466  0.00  0.00    +0.000 NA
ATOM     10  C   UNL     1       4.960   4.697  16.631  0.00  0.00    +0.000 A 
ATOM     11  H   UNL     1       7.443   7.633  17.677  0.00  0.00    +0.000 HD
ATOM     12  H   UNL     1       8.391   7.377  16.246  0.00  0.00    +0.000 HD
ENDROOT
BRANCH   1  13
ATOM     13  C   UNL     1       2.824   3.540  17.299  0.00  0.00    +0.000 C 
ATOM     14  C   UNL     1       1.442   4.167  17.532  0.00  0.00    +0.000 C 
BRANCH  13  15
ATOM     15  C   UNL     1       3.035   2.272  18.149  0.00  0.00    +0.000 C 
BRANCH  15  17
ATOM     16  C   UNL     1       1.409   2.185  20.271  0.00  0.00    +0.000 C 
ATOM     17  C   UNL     1       2.130   2.231  19.312  0.00  0.00    +0.000 C 
ENDBRANCH  15  17
ENDBRANCH  13  15
ENDBRANCH   1  13
BRANCH   2  18
ATOM     18  S   UNL     1       3.049   5.448  19.929  0.00  0.00    +0.000 S 
BRANCH  18  19
ATOM     19  C   UNL     1       2.178   7.011  19.847  0.00  0.00    +0.000 A 
ATOM     20  C   UNL     1       1.398   7.350  20.967  0.00  0.00    +0.000 A 
ATOM     21  C   UNL     1       0.742   8.583  21.040  0.00  0.00    +0.000 A 
ATOM     22 CL   UNL     1      -0.195   8.971  22.432  0.00  0.00    +0.000 Cl
ATOM     23  C   UNL     1       0.853   9.506  20.009  0.00  0.00    +0.000 A 
ATOM     24  C   UNL     1       1.629   9.181  18.900  0.00  0.00    +0.000 A 
ATOM     25 CL   UNL     1       1.811  10.331  17.633  0.00  0.00    +0.000 Cl
ATOM     26  C   UNL     1       2.284   7.945  18.813  0.00  0.00    +0.000 A 
ENDBRANCH  18  19
ENDBRANCH   2  18
TORSDOF 5
ENDMDL
MODEL 4
REMARK VINA RESULT:      -7.6      2.093      4.613
REMARK  Name = 
REMARK  6 active torsions:
REMARK  status: ('A' for Active; 'I' for Inactive)
REMARK    1  A    between atoms: C_2  and  C_3
REMARK    2  A    between atoms: C_3  and  C_4
REMARK    3  A    between atoms: C_4  and  C_5
REMARK    4  A    between atoms: C_4  and  N_6
REMARK    5  A    between atoms: C_7  and  S_8
REMARK    6  A    between atoms: S_8  and  C_9
REMARK                            x       y       z     vdW  Elec       q    Type
REMARK                         _______ _______ _______ _____ _____    ______ ____
ROOT
ATOM      1  N   UNL     1       3.943   4.445  18.063  0.00  0.00    +0.000 N 
ATOM      2  C   UNL     1       3.921   5.127  19.266  0.00  0.00    +0.000 A 
ATOM      3  N   UNL     1       5.113   5.584  19.595  0.00  0.00    +0.000 NA
ATOM      4  C   UNL     1       5.940   5.221  18.555  0.00  0.00    +0.000 A 
ATOM      5  C   UNL     1       7.311   5.424  18.313  0.00  0.00    +0.000 A 
ATOM      6  N   UNL     1       8.164   6.071  19.197  0.00  0.00    +0.000 N 
ATOM      7  N   UNL     1       7.835   4.978  17.149  0.00  0.00    +0.000 NA
ATOM      8  C   UNL     1       7.026   4.323  16.291  0.00  0.00    +0.000 A 
ATOM      9  N   UNL     1       5.714   4.046  16.428  0.00  0.00    +0.000 NA
ATOM     10  C   UNL     1       5.233   4.529  17.586  0.00  0.00    +0.000 A 
ATOM     11  H   UNL     1       7.700   6.662  19.877  0.00  0.00    +0.000 HD
ATOM     12  H   UNL     1       8.997   6.421  18.749  0.00  0.00    +0.000 HD
ENDROOT
BRANCH   1  13
ATOM     13  C   UNL     1       2.837   3.781  17.370  0.00  0.00    +0.000 C 
ATOM     14  C   UNL     1       1.526   4.573  17.483  0.00  0.00    +0.000 C 
BRANCH  13  15
ATOM     15  C   UNL     1       2.674   2.321  17.838  0.00  0.00    +0.000 C 
BRANCH  15  17
ATOM     16  C   UNL     1       0.580   2.048  19.479  0.00  0.00    +0.000 C 
ATOM     17  C   UNL     1       1.523   2.158  18.744  0.00  0.00    +0.000 C 
ENDBRANCH  15  17
ENDBRANCH  13  15
ENDBRANCH   1  13
BRANCH   2  18
ATOM     18  S   UNL     1       2.524   5.180  20.295  0.00  0.00    +0.000 S 
BRANCH  18  19
ATOM     19  C   UNL     1       1.880   6.845  20.150  0.00  0.00    +0.000 A 
ATOM     20  C   UNL     1       1.133   7.322  21.242  0.00  0.00    +0.000 A 
ATOM     21  C   UNL     1       0.653   8.635  21.267  0.00  0.00    +0.000 A 
ATOM     22 CL   UNL     1      -0.247   9.190  22.625  0.00  0.00    +0.000 Cl
ATOM     23  C   UNL     1       0.910   9.502  20.214  0.00  0.00    +0.000 A 
ATOM     24  C   UNL     1       1.655   9.040  19.132  0.00  0.00    +0.000 A 
ATOM     25 CL   UNL     1       2.019  10.116  17.839  0.00  0.00    +0.000 Cl
ATOM     26  C   UNL     1       2.134   7.724  19.093  0.00  0.00    +0.000 A 
ENDBRANCH  18  19
ENDBRANCH   2  18
TORSDOF 5
ENDMDL
MODEL 5
REMARK VINA RESULT:      -7.6      2.123      4.372
REMARK  Name = 
REMARK  6 active torsions:
REMARK  status: ('A' for Active; 'I' for Inactive)
REMARK    1  A    between atoms: C_2  and  C_3
REMARK    2  A    between atoms: C_3  and  C_4
REMARK    3  A    between atoms: C_4  and  C_5
REMARK    4  A    between atoms: C_4  and  N_6
REMARK    5  A    between atoms: C_7  and  S_8
REMARK    6  A    between atoms: S_8  and  C_9
REMARK                            x       y       z     vdW  Elec       q    Type
REMARK                         _______ _______ _______ _____ _____    ______ ____
ROOT
ATOM      1  N   UNL     1       3.900   4.443  18.081  0.00  0.00    +0.000 N 
ATOM      2  C   UNL     1       3.866   5.073  19.312  0.00  0.00    +0.000 A 
ATOM      3  N   UNL     1       5.053   5.520  19.669  0.00  0.00    +0.000 NA
ATOM      4  C   UNL     1       5.889   5.207  18.620  0.00  0.00    +0.000 A 
ATOM      5  C   UNL     1       7.261   5.426  18.398  0.00  0.00    +0.000 A 
ATOM      6  N   UNL     1       8.104   6.038  19.315  0.00  0.00    +0.000 N 
ATOM      7  N   UNL     1       7.795   5.033  17.219  0.00  0.00    +0.000 NA
ATOM      8  C   UNL     1       6.996   4.413  16.328  0.00  0.00    +0.000 A 
ATOM      9  N   UNL     1       5.684   4.124  16.443  0.00  0.00    +0.000 NA
ATOM     10  C   UNL     1       5.192   4.554  17.618  0.00  0.00    +0.000 A 
ATOM     11  H   UNL     1       7.632   6.596  20.017  0.00  0.00    +0.000 HD
ATOM     12  H   UNL     1       8.939   6.411  18.890  0.00  0.00    +0.000 HD
ENDROOT
BRANCH   1  13
ATOM     13  C   UNL     1       2.802   3.805  17.351  0.00  0.00    +0.000 C 
ATOM     14  C   UNL     1       1.488   4.589  17.483  0.00  0.00    +0.000 C 
BRANCH  13  15
ATOM     15  C   UNL     1       2.638   2.328  17.759  0.00  0.00    +0.000 C 
BRANCH  15  17
ATOM     16  C   UNL     1       0.530   1.984  19.367  0.00  0.00    +0.000 C 
ATOM     17  C   UNL     1       1.480   2.126  18.647  0.00  0.00    +0.000 C 
ENDBRANCH  15  17
ENDBRANCH  13  15
ENDBRANCH   1  13
BRANCH   2  18
ATOM     18  S   UNL     1       2.461   5.074  20.331  0.00  0.00    +0.000 S 
BRANCH  18  19
ATOM     19  C   UNL     1       1.883   6.769  20.356  0.00  0.00    +0.000 A 
ATOM     20  C   UNL     1       2.172   7.544  19.219  0.00  0.00    +0.000 A 
ATOM     21  C   UNL     1       1.697   8.853  19.100  0.00  0.00    +0.000 A 
ATOM     22 CL   UNL     1       2.059   9.769  17.688  0.00  0.00    +0.000 Cl
ATOM     23  C   UNL     1       0.922   9.419  20.104  0.00  0.00    +0.000 A 
ATOM     24  C   UNL     1       0.626   8.656  21.231  0.00  0.00    +0.000 A 
ATOM     25 CL   UNL     1      -0.370   9.327  22.464  0.00  0.00    +0.000 Cl
ATOM     26  C   UNL     1       1.102   7.345  21.363  0.00  0.00    +0.000 A 
ENDBRANCH  18  19
ENDBRANCH   2  18
TORSDOF 5
ENDMDL
MODEL 6
REMARK VINA RESULT:      -7.5      0.645      2.443
REMARK  Name = 
REMARK  6 active torsions:
REMARK  status: ('A' for Active; 'I' for Inactive)
REMARK    1  A    between atoms: C_2  and  C_3
REMARK    2  A    between atoms: C_3  and  C_4
REMARK    3  A    between atoms: C_4  and  C_5
REMARK    4  A    between atoms: C_4  and  N_6
REMARK    5  A    between atoms: C_7  and  S_8
REMARK    6  A    between atoms: S_8  and  C_9
REMARK                            x       y       z     vdW  Elec       q    Type
REMARK                         _______ _______ _______ _____ _____    ______ ____
ROOT
ATOM      1  N   UNL     1       4.075   5.115  17.784  0.00  0.00    +0.000 N 
ATOM      2  C   UNL     1       3.138   6.058  18.167  0.00  0.00    +0.000 A 
ATOM      3  N   UNL     1       2.080   5.502  18.722  0.00  0.00    +0.000 NA
ATOM      4  C   UNL     1       2.346   4.151  18.738  0.00  0.00    +0.000 A 
ATOM      5  C   UNL     1       1.616   3.042  19.206  0.00  0.00    +0.000 A 
ATOM      6  N   UNL     1       0.350   3.131  19.766  0.00  0.00    +0.000 N 
ATOM      7  N   UNL     1       2.181   1.815  19.121  0.00  0.00    +0.000 NA
ATOM      8  C   UNL     1       3.400   1.708  18.555  0.00  0.00    +0.000 A 
ATOM      9  N   UNL     1       4.174   2.689  18.049  0.00  0.00    +0.000 NA
ATOM     10  C   UNL     1       3.584   3.889  18.177  0.00  0.00    +0.000 A 
ATOM     11  H   UNL     1       0.102   4.052  20.108  0.00  0.00    +0.000 HD
ATOM     12  H   UNL     1       0.118   2.332  20.336  0.00  0.00    +0.000 HD
ENDROOT
BRANCH   1  13
ATOM     13  C   UNL     1       5.365   5.327  17.124  0.00  0.00    +0.000 C 
ATOM     14  C   UNL     1       6.271   6.280  17.918  0.00  0.00    +0.000 C 
BRANCH  13  15
ATOM     15  C   UNL     1       5.184   5.785  15.664  0.00  0.00    +0.000 C 
BRANCH  15  17
ATOM     16  C   UNL     1       6.077   3.943  13.942  0.00  0.00    +0.000 C 
ATOM     17  C   UNL     1       5.674   4.778  14.705  0.00  0.00    +0.000 C 
ENDBRANCH  15  17
ENDBRANCH  13  15
ENDBRANCH   1  13
BRANCH   2  18
ATOM     18  S   UNL     1       3.274   7.740  17.764  0.00  0.00    +0.000 S 
BRANCH  18  19
ATOM     19  C   UNL     1       1.894   8.545  18.574  0.00  0.00    +0.000 A 
ATOM     20  C   UNL     1       1.866   8.475  19.978  0.00  0.00    +0.000 A 
ATOM     21  C   UNL     1       0.878   9.136  20.713  0.00  0.00    +0.000 A 
ATOM     22 CL   UNL     1       0.882   9.039  22.432  0.00  0.00    +0.000 Cl
ATOM     23  C   UNL     1      -0.098   9.887  20.070  0.00  0.00    +0.000 A 
ATOM     24  C   UNL     1      -0.073   9.968  18.681  0.00  0.00    +0.000 A 
ATOM     25 CL   UNL     1      -1.250  10.929  17.872  0.00  0.00    +0.000 Cl
ATOM     26  C   UNL     1       0.908   9.302  17.934  0.00  0.00    +0.000 A 
ENDBRANCH  18  19
ENDBRANCH   2  18
TORSDOF 5
ENDMDL
MODEL 7
REMARK VINA RESULT:      -7.5      0.620      1.600
REMARK  Name = 
REMARK  6 active torsions:
REMARK  status: ('A' for Active; 'I' for Inactive)
REMARK    1  A    between atoms: C_2  and  C_3
REMARK    2  A    between atoms: C_3  and  C_4
REMARK    3  A    between atoms: C_4  and  C_5
REMARK    4  A    between atoms: C_4  and  N_6
REMARK    5  A    between atoms: C_7  and  S_8
REMARK    6  A    between atoms: S_8  and  C_9
REMARK                            x       y       z     vdW  Elec       q    Type
REMARK                         _______ _______ _______ _____ _____    ______ ____
ROOT
ATOM      1  N   UNL     1       4.008   5.127  17.800  0.00  0.00    +0.000 N 
ATOM      2  C   UNL     1       3.069   6.072  18.172  0.00  0.00    +0.000 A 
ATOM      3  N   UNL     1       2.014   5.521  18.737  0.00  0.00    +0.000 NA
ATOM      4  C   UNL     1       2.285   4.171  18.772  0.00  0.00    +0.000 A 
ATOM      5  C   UNL     1       1.560   3.066  19.258  0.00  0.00    +0.000 A 
ATOM      6  N   UNL     1       0.295   3.159  19.819  0.00  0.00    +0.000 N 
ATOM      7  N   UNL     1       2.129   1.841  19.189  0.00  0.00    +0.000 NA
ATOM      8  C   UNL     1       3.347   1.730  18.622  0.00  0.00    +0.000 A 
ATOM      9  N   UNL     1       4.117   2.705  18.100  0.00  0.00    +0.000 NA
ATOM     10  C   UNL     1       3.523   3.906  18.212  0.00  0.00    +0.000 A 
ATOM     11  H   UNL     1       0.044   4.084  20.148  0.00  0.00    +0.000 HD
ATOM     12  H   UNL     1       0.067   2.367  20.400  0.00  0.00    +0.000 HD
ENDROOT
BRANCH   1  13
ATOM     13  C   UNL     1       5.297   5.334  17.135  0.00  0.00    +0.000 C 
ATOM     14  C   UNL     1       6.200   6.303  17.912  0.00  0.00    +0.000 C 
BRANCH  13  15
ATOM     15  C   UNL     1       5.110   5.768  15.667  0.00  0.00    +0.000 C 
BRANCH  15  17
ATOM     16  C   UNL     1       6.107   3.966  13.962  0.00  0.00    +0.000 C 
ATOM     17  C   UNL     1       5.670   4.783  14.725  0.00  0.00    +0.000 C 
ENDBRANCH  15  17
ENDBRANCH  13  15
ENDBRANCH   1  13
BRANCH   2  18
ATOM     18  S   UNL     1       3.198   7.749  17.744  0.00  0.00    +0.000 S 
BRANCH  18  19
ATOM     19  C   UNL     1       1.944   8.591  18.705  0.00  0.00    +0.000 A 
ATOM     20  C   UNL     1       0.973   9.302  17.978  0.00  0.00    +0.000 A 
ATOM     21  C   UNL     1      -0.097   9.928  18.626  0.00  0.00    +0.000 A 
ATOM     22 CL   UNL     1      -1.275  10.780  17.703  0.00  0.00    +0.000 Cl
ATOM     23  C   UNL     1      -0.229   9.854  20.006  0.00  0.00    +0.000 A 
ATOM     24  C   UNL     1       0.724   9.146  20.733  0.00  0.00    +0.000 A 
ATOM     25 CL   UNL     1       0.550   9.009  22.440  0.00  0.00    +0.000 Cl
ATOM     26  C   UNL     1       1.804   8.522  20.095  0.00  0.00    +0.000 A 
ENDBRANCH  18  19
ENDBRANCH   2  18
TORSDOF 5
ENDMDL
MODEL 8
REMARK VINA RESULT:      -7.3      3.538      6.917
REMARK  Name = 
REMARK  6 active torsions:
REMARK  status: ('A' for Active; 'I' for Inactive)
REMARK    1  A    between atoms: C_2  and  C_3
REMARK    2  A    between atoms: C_3  and  C_4
REMARK    3  A    between atoms: C_4  and  C_5
REMARK    4  A    between atoms: C_4  and  N_6
REMARK    5  A    between atoms: C_7  and  S_8
REMARK    6  A    between atoms: S_8  and  C_9
REMARK                            x       y       z     vdW  Elec       q    Type
REMARK                         _______ _______ _______ _____ _____    ______ ____
ROOT
ATOM      1  N   UNL     1       2.196   6.102  19.746  0.00  0.00    +0.000 N 
ATOM      2  C   UNL     1       2.624   6.154  18.432  0.00  0.00    +0.000 A 
ATOM      3  N   UNL     1       2.429   7.343  17.899  0.00  0.00    +0.000 NA
ATOM      4  C   UNL     1       1.890   8.110  18.908  0.00  0.00    +0.000 A 
ATOM      5  C   UNL     1       1.476   9.454  18.966  0.00  0.00    +0.000 A 
ATOM      6  N   UNL     1       1.521  10.323  17.885  0.00  0.00    +0.000 N 
ATOM      7  N   UNL     1       1.020   9.939  20.144  0.00  0.00    +0.000 NA
ATOM      8  C   UNL     1       0.945   9.100  21.197  0.00  0.00    +0.000 A 
ATOM      9  N   UNL     1       1.282   7.796  21.250  0.00  0.00    +0.000 NA
ATOM     10  C   UNL     1       1.752   7.366  20.067  0.00  0.00    +0.000 A 
ATOM     11  H   UNL     1       2.149  10.042  17.141  0.00  0.00    +0.000 HD
ATOM     12  H   UNL     1       1.513  11.292  18.163  0.00  0.00    +0.000 HD
ENDROOT
BRANCH   1  13
ATOM     13  C   UNL     1       2.224   4.966  20.671  0.00  0.00    +0.000 C 
ATOM     14  C   UNL     1       3.410   4.028  20.398  0.00  0.00    +0.000 C 
BRANCH  13  15
ATOM     15  C   UNL     1       0.880   4.212  20.678  0.00  0.00    +0.000 C 
BRANCH  15  17
ATOM     16  C   UNL     1       0.810   2.238  18.874  0.00  0.00    +0.000 C 
ATOM     17  C   UNL     1       0.848   3.131  19.676  0.00  0.00    +0.000 C 
ENDBRANCH  15  17
ENDBRANCH  13  15
ENDBRANCH   1  13
BRANCH   2  18
ATOM     18  S   UNL     1       3.155   4.753  17.556  0.00  0.00    +0.000 S 
BRANCH  18  19
ATOM     19  C   UNL     1       4.774   5.169  16.914  0.00  0.00    +0.000 A 
ATOM     20  C   UNL     1       5.660   5.791  17.810  0.00  0.00    +0.000 A 
ATOM     21  C   UNL     1       6.975   6.085  17.435  0.00  0.00    +0.000 A 
ATOM     22 CL   UNL     1       8.037   6.836  18.563  0.00  0.00    +0.000 Cl
ATOM     23  C   UNL     1       7.438   5.761  16.167  0.00  0.00    +0.000 A 
ATOM     24  C   UNL     1       6.569   5.137  15.276  0.00  0.00    +0.000 A 
ATOM     25 CL   UNL     1       7.141   4.690  13.715  0.00  0.00    +0.000 Cl
ATOM     26  C   UNL     1       5.248   4.846  15.639  0.00  0.00    +0.000 A 
ENDBRANCH  18  19
ENDBRANCH   2  18
TORSDOF 5
ENDMDL
MODEL 9
REMARK VINA RESULT:      -7.2      3.591      6.784
REMARK  Name = 
REMARK  6 active torsions:
REMARK  status: ('A' for Active; 'I' for Inactive)
REMARK    1  A    between atoms: C_2  and  C_3
REMARK    2  A    between atoms: C_3  and  C_4
REMARK    3  A    between atoms: C_4  and  C_5
REMARK    4  A    between atoms: C_4  and  N_6
REMARK    5  A    between atoms: C_7  and  S_8
REMARK    6  A    between atoms: S_8  and  C_9
REMARK                            x       y       z     vdW  Elec       q    Type
REMARK                         _______ _______ _______ _____ _____    ______ ____
ROOT
ATOM      1  N   UNL     1       2.206   6.006  19.737  0.00  0.00    +0.000 N 
ATOM      2  C   UNL     1       2.583   6.039  18.406  0.00  0.00    +0.000 A 
ATOM      3  N   UNL     1       2.365   7.219  17.862  0.00  0.00    +0.000 NA
ATOM      4  C   UNL     1       1.863   8.000  18.878  0.00  0.00    +0.000 A 
ATOM      5  C   UNL     1       1.450   9.345  18.931  0.00  0.00    +0.000 A 
ATOM      6  N   UNL     1       1.451  10.196  17.835  0.00  0.00    +0.000 N 
ATOM      7  N   UNL     1       1.038   9.848  20.117  0.00  0.00    +0.000 NA
ATOM      8  C   UNL     1       1.005   9.026  21.186  0.00  0.00    +0.000 A 
ATOM      9  N   UNL     1       1.347   7.723  21.247  0.00  0.00    +0.000 NA
ATOM     10  C   UNL     1       1.771   7.275  20.054  0.00  0.00    +0.000 A 
ATOM     11  H   UNL     1       2.051   9.904  17.073  0.00  0.00    +0.000 HD
ATOM     12  H   UNL     1       1.453  11.170  18.098  0.00  0.00    +0.000 HD
ENDROOT
BRANCH   1  13
ATOM     13  C   UNL     1       2.272   4.885  20.677  0.00  0.00    +0.000 C 
ATOM     14  C   UNL     1       3.447   3.945  20.374  0.00  0.00    +0.000 C 
BRANCH  13  15
ATOM     15  C   UNL     1       0.929   4.131  20.749  0.00  0.00    +0.000 C 
BRANCH  15  17
ATOM     16  C   UNL     1       0.766   2.234  18.871  0.00  0.00    +0.000 C 
ATOM     17  C   UNL     1       0.834   3.078  19.722  0.00  0.00    +0.000 C 
ENDBRANCH  15  17
ENDBRANCH  13  15
ENDBRANCH   1  13
BRANCH   2  18
ATOM     18  S   UNL     1       3.082   4.624  17.534  0.00  0.00    +0.000 S 
BRANCH  18  19
ATOM     19  C   UNL     1       4.723   4.991  16.917  0.00  0.00    +0.000 A 
ATOM     20  C   UNL     1       5.078   4.395  15.694  0.00  0.00    +0.000 A 
ATOM     21  C   UNL     1       6.303   4.678  15.083  0.00  0.00    +0.000 A 
ATOM     22 CL   UNL     1       6.701   3.939  13.580  0.00  0.00    +0.000 Cl
ATOM     23  C   UNL     1       7.198   5.564  15.669  0.00  0.00    +0.000 A 
ATOM     24  C   UNL     1       6.850   6.165  16.877  0.00  0.00    +0.000 A 
ATOM     25 CL   UNL     1       7.929   7.298  17.594  0.00  0.00    +0.000 Cl
ATOM     26  C   UNL     1       5.628   5.882  17.500  0.00  0.00    +0.000 A 
ENDBRANCH  18  19
ENDBRANCH   2  18
TORSDOF 5
ENDMDL
