MODEL 1
REMARK VINA RESULT:      -7.1      0.000      0.000
REMARK  Name = 
REMARK  7 active torsions:
REMARK  status: ('A' for Active; 'I' for Inactive)
REMARK    1  A    between atoms: C_1  and  O_2
REMARK    2  A    between atoms: O_2  and  C_3
REMARK    3  A    between atoms: C_3  and  C_4
REMARK    4  A    between atoms: C_4  and  N_5
REMARK    5  A    between atoms: C_6  and  C_8
REMARK    6  A    between atoms: C_17  and  O_18
REMARK    7  A    between atoms: O_18  and  C_19
REMARK                            x       y       z     vdW  Elec       q    Type
REMARK                         _______ _______ _______ _____ _____    ______ ____
ROOT
ATOM      1  C   UNL     1       5.687   5.491  15.346  0.00  0.00    +0.000 A 
ATOM      2  N   UNL     1       5.485   6.813  15.551  0.00  0.00    +0.000 NA
ATOM      3  O   UNL     1       4.676   6.912  16.691  0.00  0.00    +0.000 OA
ATOM      4  C   UNL     1       4.421   5.666  17.140  0.00  0.00    +0.000 A 
ATOM      5  C   UNL     1       5.018   4.736  16.333  0.00  0.00    +0.000 A 
ATOM      6  C   UNL     1       4.876   3.288  16.617  0.00  0.00    +0.000 C 
ATOM      7  C   UNL     1       4.723   3.068  18.142  0.00  0.00    +0.000 C 
ATOM      8  C   UNL     1       3.761   4.048  18.811  0.00  0.00    +0.000 A 
ATOM      9  C   UNL     1       3.039   3.658  19.942  0.00  0.00    +0.000 A 
ATOM     10  C   UNL     1       2.199   4.562  20.593  0.00  0.00    +0.000 A 
ATOM     11  C   UNL     1       2.102   5.877  20.126  0.00  0.00    +0.000 A 
ATOM     12  C   UNL     1       2.836   6.289  19.001  0.00  0.00    +0.000 A 
ATOM     13  C   UNL     1       3.660   5.383  18.340  0.00  0.00    +0.000 A 
ENDROOT
BRANCH   1  15
ATOM     14  N   UNL     1       5.870   4.023  13.456  0.00  0.00    +0.000 N 
ATOM     15  C   UNL     1       6.494   4.973  14.233  0.00  0.00    +0.000 C 
ATOM     16  O   UNL     1       7.639   5.357  14.018  0.00  0.00    +0.000 OA
ATOM     17  H   UNL     1       4.876   3.871  13.603  0.00  0.00    +0.000 HD
BRANCH  14  18
ATOM     18  C   UNL     1       6.491   3.451  12.277  0.00  0.00    +0.000 C 
BRANCH  18  19
ATOM     19  C   UNL     1       5.500   2.603  11.483  0.00  0.00    +0.000 C 
BRANCH  19  21
ATOM     20  C   UNL     1       3.545   3.454  10.478  0.00  0.00    +0.000 C 
ATOM     21  O   UNL     1       4.173   3.094  11.702  0.00  0.00    +0.000 OA
ENDBRANCH  19  21
ENDBRANCH  18  19
ENDBRANCH  14  18
ENDBRANCH   1  15
BRANCH  10  22
ATOM     22  O   UNL     1       1.538   4.026  21.665  0.00  0.00    +0.000 OA
ATOM     23  C   UNL     1       1.414   2.614  21.717  0.00  0.00    +0.000 C 
ENDBRANCH  10  22
TORSDOF 5
ENDMDL
MODEL 2
REMARK VINA RESULT:      -7.0      0.971      1.190
REMARK  Name = 
REMARK  7 active torsions:
REMARK  status: ('A' for Active; 'I' for Inactive)
REMARK    1  A    between atoms: C_1  and  O_2
REMARK    2  A    between atoms: O_2  and  C_3
REMARK    3  A    between atoms: C_3  and  C_4
REMARK    4  A    between atoms: C_4  and  N_5
REMARK    5  A    between atoms: C_6  and  C_8
REMARK    6  A    between atoms: C_17  and  O_18
REMARK    7  A    between atoms: O_18  and  C_19
REMARK                            x       y       z     vdW  Elec       q    Type
REMARK                         _______ _______ _______ _____ _____    ______ ____
ROOT
ATOM      1  C   UNL     1       5.935   5.465  15.488  0.00  0.00    +0.000 A 
ATOM      2  N   UNL     1       6.034   6.724  15.974  0.00  0.00    +0.000 NA
ATOM      3  O   UNL     1       5.172   6.784  17.078  0.00  0.00    +0.000 OA
ATOM      4  C   UNL     1       4.591   5.577  17.230  0.00  0.00    +0.000 A 
ATOM      5  C   UNL     1       5.020   4.714  16.258  0.00  0.00    +0.000 A 
ATOM      6  C   UNL     1       4.515   3.321  16.209  0.00  0.00    +0.000 C 
ATOM      7  C   UNL     1       4.178   2.837  17.639  0.00  0.00    +0.000 C 
ATOM      8  C   UNL     1       3.420   3.867  18.475  0.00  0.00    +0.000 A 
ATOM      9  C   UNL     1       2.528   3.446  19.464  0.00  0.00    +0.000 A 
ATOM     10  C   UNL     1       1.870   4.377  20.269  0.00  0.00    +0.000 A 
ATOM     11  C   UNL     1       2.130   5.741  20.103  0.00  0.00    +0.000 A 
ATOM     12  C   UNL     1       3.038   6.180  19.125  0.00  0.00    +0.000 A 
ATOM     13  C   UNL     1       3.680   5.252  18.308  0.00  0.00    +0.000 A 
ENDROOT
BRANCH   1  15
ATOM     14  N   UNL     1       6.035   4.090  13.523  0.00  0.00    +0.000 N 
ATOM     15  C   UNL     1       6.692   5.002  14.317  0.00  0.00    +0.000 C 
ATOM     16  O   UNL     1       7.827   5.398  14.071  0.00  0.00    +0.000 OA
ATOM     17  H   UNL     1       5.048   3.929  13.706  0.00  0.00    +0.000 HD
BRANCH  14  18
ATOM     18  C   UNL     1       6.604   3.576  12.292  0.00  0.00    +0.000 C 
BRANCH  18  19
ATOM     19  C   UNL     1       5.776   2.419  11.738  0.00  0.00    +0.000 C 
BRANCH  19  21
ATOM     20  C   UNL     1       6.117   0.149  11.203  0.00  0.00    +0.000 C 
ATOM     21  O   UNL     1       6.648   1.465  11.120  0.00  0.00    +0.000 OA
ENDBRANCH  19  21
ENDBRANCH  18  19
ENDBRANCH  14  18
ENDBRANCH   1  15
BRANCH  10  22
ATOM     22  O   UNL     1       1.008   3.814  21.171  0.00  0.00    +0.000 OA
ATOM     23  C   UNL     1       1.402   2.594  21.777  0.00  0.00    +0.000 C 
ENDBRANCH  10  22
TORSDOF 5
ENDMDL
MODEL 3
REMARK VINA RESULT:      -6.9      1.970      2.903
REMARK  Name = 
REMARK  7 active torsions:
REMARK  status: ('A' for Active; 'I' for Inactive)
REMARK    1  A    between atoms: C_1  and  O_2
REMARK    2  A    between atoms: O_2  and  C_3
REMARK    3  A    between atoms: C_3  and  C_4
REMARK    4  A    between atoms: C_4  and  N_5
REMARK    5  A    between atoms: C_6  and  C_8
REMARK    6  A    between atoms: C_17  and  O_18
REMARK    7  A    between atoms: O_18  and  C_19
REMARK                            x       y       z     vdW  Elec       q    Type
REMARK                         _______ _______ _______ _____ _____    ______ ____
ROOT
ATOM      1  C   UNL     1       5.271   4.227  16.538  0.00  0.00    +0.000 A 
ATOM      2  N   UNL     1       4.761   3.079  17.041  0.00  0.00    +0.000 NA
ATOM      3  O   UNL     1       3.858   3.461  18.043  0.00  0.00    +0.000 OA
ATOM      4  C   UNL     1       3.843   4.808  18.111  0.00  0.00    +0.000 A 
ATOM      5  C   UNL     1       4.716   5.341  17.202  0.00  0.00    +0.000 A 
ATOM      6  C   UNL     1       4.884   6.810  17.090  0.00  0.00    +0.000 C 
ATOM      7  C   UNL     1       3.559   7.518  17.463  0.00  0.00    +0.000 C 
ATOM      8  C   UNL     1       2.886   6.946  18.709  0.00  0.00    +0.000 A 
ATOM      9  C   UNL     1       2.106   7.770  19.525  0.00  0.00    +0.000 A 
ATOM     10  C   UNL     1       1.443   7.247  20.635  0.00  0.00    +0.000 A 
ATOM     11  C   UNL     1       1.536   5.880  20.917  0.00  0.00    +0.000 A 
ATOM     12  C   UNL     1       2.302   5.034  20.096  0.00  0.00    +0.000 A 
ATOM     13  C   UNL     1       2.979   5.559  18.998  0.00  0.00    +0.000 A 
ENDROOT
BRANCH   1  15
ATOM     14  N   UNL     1       5.818   3.777  14.244  0.00  0.00    +0.000 N 
ATOM     15  C   UNL     1       6.267   4.248  15.457  0.00  0.00    +0.000 C 
ATOM     16  O   UNL     1       7.412   4.654  15.628  0.00  0.00    +0.000 OA
ATOM     17  H   UNL     1       4.821   3.604  14.144  0.00  0.00    +0.000 HD
BRANCH  14  18
ATOM     18  C   UNL     1       6.643   3.786  13.051  0.00  0.00    +0.000 C 
BRANCH  18  19
ATOM     19  C   UNL     1       5.880   3.245  11.844  0.00  0.00    +0.000 C 
BRANCH  19  21
ATOM     20  C   UNL     1       3.736   3.222  10.866  0.00  0.00    +0.000 C 
ATOM     21  O   UNL     1       4.473   3.382  12.071  0.00  0.00    +0.000 OA
ENDBRANCH  19  21
ENDBRANCH  18  19
ENDBRANCH  14  18
ENDBRANCH   1  15
BRANCH  10  22
ATOM     22  O   UNL     1       0.745   8.181  21.351  0.00  0.00    +0.000 OA
ATOM     23  C   UNL     1       0.395   9.385  20.687  0.00  0.00    +0.000 C 
ENDBRANCH  10  22
TORSDOF 5
ENDMDL
MODEL 4
REMARK VINA RESULT:      -6.9      3.827      5.884
REMARK  Name = 
REMARK  7 active torsions:
REMARK  status: ('A' for Active; 'I' for Inactive)
REMARK    1  A    between atoms: C_1  and  O_2
REMARK    2  A    between atoms: O_2  and  C_3
REMARK    3  A    between atoms: C_3  and  C_4
REMARK    4  A    between atoms: C_4  and  N_5
REMARK    5  A    between atoms: C_6  and  C_8
REMARK    6  A    between atoms: C_17  and  O_18
REMARK    7  A    between atoms: O_18  and  C_19
REMARK                            x       y       z     vdW  Elec       q    Type
REMARK                         _______ _______ _______ _____ _____    ______ ____
ROOT
ATOM      1  C   UNL     1       2.909   5.677  18.877  0.00  0.00    +0.000 A 
ATOM      2  N   UNL     1       2.503   5.099  20.031  0.00  0.00    +0.000 NA
ATOM      3  O   UNL     1       1.860   6.104  20.765  0.00  0.00    +0.000 OA
ATOM      4  C   UNL     1       1.888   7.242  20.043  0.00  0.00    +0.000 A 
ATOM      5  C   UNL     1       2.542   7.040  18.858  0.00  0.00    +0.000 A 
ATOM      6  C   UNL     1       2.710   8.150  17.890  0.00  0.00    +0.000 C 
ATOM      7  C   UNL     1       1.520   9.132  18.008  0.00  0.00    +0.000 C 
ATOM      8  C   UNL     1       1.136   9.462  19.449  0.00  0.00    +0.000 A 
ATOM      9  C   UNL     1       0.579  10.706  19.758  0.00  0.00    +0.000 A 
ATOM     10  C   UNL     1       0.175  10.999  21.061  0.00  0.00    +0.000 A 
ATOM     11  C   UNL     1       0.302  10.028  22.060  0.00  0.00    +0.000 A 
ATOM     12  C   UNL     1       0.843   8.766  21.762  0.00  0.00    +0.000 A 
ATOM     13  C   UNL     1       1.264   8.480  20.466  0.00  0.00    +0.000 A 
ENDROOT
BRANCH   1  15
ATOM     14  N   UNL     1       4.954   5.297  17.679  0.00  0.00    +0.000 N 
ATOM     15  C   UNL     1       3.633   4.943  17.830  0.00  0.00    +0.000 C 
ATOM     16  O   UNL     1       3.094   4.081  17.142  0.00  0.00    +0.000 OA
ATOM     17  H   UNL     1       5.364   5.904  18.384  0.00  0.00    +0.000 HD
BRANCH  14  18
ATOM     18  C   UNL     1       5.837   4.631  16.740  0.00  0.00    +0.000 C 
BRANCH  18  19
ATOM     19  C   UNL     1       7.096   5.455  16.481  0.00  0.00    +0.000 C 
BRANCH  19  21
ATOM     20  C   UNL     1       6.606   4.444  14.409  0.00  0.00    +0.000 C 
ATOM     21  O   UNL     1       7.444   5.366  15.095  0.00  0.00    +0.000 OA
ENDBRANCH  19  21
ENDBRANCH  18  19
ENDBRANCH  14  18
ENDBRANCH   1  15
BRANCH  10  22
ATOM     22  O   UNL     1      -0.323  12.265  21.212  0.00  0.00    +0.000 OA
ATOM     23  C   UNL     1       0.085  13.244  20.270  0.00  0.00    +0.000 C 
ENDBRANCH  10  22
TORSDOF 5
ENDMDL
MODEL 5
REMARK VINA RESULT:      -6.9      4.001      6.265
REMARK  Name = 
REMARK  7 active torsions:
REMARK  status: ('A' for Active; 'I' for Inactive)
REMARK    1  A    between atoms: C_1  and  O_2
REMARK    2  A    between atoms: O_2  and  C_3
REMARK    3  A    between atoms: C_3  and  C_4
REMARK    4  A    between atoms: C_4  and  N_5
REMARK    5  A    between atoms: C_6  and  C_8
REMARK    6  A    between atoms: C_17  and  O_18
REMARK    7  A    between atoms: O_18  and  C_19
REMARK                            x       y       z     vdW  Elec       q    Type
REMARK                         _______ _______ _______ _____ _____    ______ ____
ROOT
ATOM      1  C   UNL     1       2.937   5.637  18.859  0.00  0.00    +0.000 A 
ATOM      2  N   UNL     1       2.514   5.066  20.011  0.00  0.00    +0.000 NA
ATOM      3  O   UNL     1       1.869   6.079  20.733  0.00  0.00    +0.000 OA
ATOM      4  C   UNL     1       1.912   7.213  20.006  0.00  0.00    +0.000 A 
ATOM      5  C   UNL     1       2.579   7.001  18.829  0.00  0.00    +0.000 A 
ATOM      6  C   UNL     1       2.765   8.106  17.858  0.00  0.00    +0.000 C 
ATOM      7  C   UNL     1       1.579   9.095  17.958  0.00  0.00    +0.000 C 
ATOM      8  C   UNL     1       1.180   9.435  19.393  0.00  0.00    +0.000 A 
ATOM      9  C   UNL     1       0.628  10.684  19.689  0.00  0.00    +0.000 A 
ATOM     10  C   UNL     1       0.210  10.985  20.986  0.00  0.00    +0.000 A 
ATOM     11  C   UNL     1       0.320  10.018  21.990  0.00  0.00    +0.000 A 
ATOM     12  C   UNL     1       0.857   8.752  21.705  0.00  0.00    +0.000 A 
ATOM     13  C   UNL     1       1.291   8.457  20.415  0.00  0.00    +0.000 A 
ENDROOT
BRANCH   1  15
ATOM     14  N   UNL     1       4.960   5.316  17.608  0.00  0.00    +0.000 N 
ATOM     15  C   UNL     1       3.669   4.893  17.824  0.00  0.00    +0.000 C 
ATOM     16  O   UNL     1       3.161   3.967  17.199  0.00  0.00    +0.000 OA
ATOM     17  H   UNL     1       5.357   5.981  18.267  0.00  0.00    +0.000 HD
BRANCH  14  18
ATOM     18  C   UNL     1       5.850   4.655  16.672  0.00  0.00    +0.000 C 
BRANCH  18  19
ATOM     19  C   UNL     1       7.288   4.645  17.185  0.00  0.00    +0.000 C 
BRANCH  19  21
ATOM     20  C   UNL     1       7.953   5.732  19.167  0.00  0.00    +0.000 C 
ATOM     21  O   UNL     1       7.282   4.606  18.616  0.00  0.00    +0.000 OA
ENDBRANCH  19  21
ENDBRANCH  18  19
ENDBRANCH  14  18
ENDBRANCH   1  15
BRANCH  10  22
ATOM     22  O   UNL     1      -0.282  12.255  21.125  0.00  0.00    +0.000 OA
ATOM     23  C   UNL     1      -0.392  13.045  19.952  0.00  0.00    +0.000 C 
ENDBRANCH  10  22
TORSDOF 5
ENDMDL
MODEL 6
REMARK VINA RESULT:      -6.8      4.419      8.290
REMARK  Name = 
REMARK  7 active torsions:
REMARK  status: ('A' for Active; 'I' for Inactive)
REMARK    1  A    between atoms: C_1  and  O_2
REMARK    2  A    between atoms: O_2  and  C_3
REMARK    3  A    between atoms: C_3  and  C_4
REMARK    4  A    between atoms: C_4  and  N_5
REMARK    5  A    between atoms: C_6  and  C_8
REMARK    6  A    between atoms: C_17  and  O_18
REMARK    7  A    between atoms: O_18  and  C_19
REMARK                            x       y       z     vdW  Elec       q    Type
REMARK                         _______ _______ _______ _____ _____    ______ ____
ROOT
ATOM      1  C   UNL     1       1.112   9.741  18.758  0.00  0.00    +0.000 A 
ATOM      2  N   UNL     1       1.590   9.881  17.500  0.00  0.00    +0.000 NA
ATOM      3  O   UNL     1       2.452   8.797  17.288  0.00  0.00    +0.000 OA
ATOM      4  C   UNL     1       2.466   8.040  18.404  0.00  0.00    +0.000 A 
ATOM      5  C   UNL     1       1.656   8.588  19.363  0.00  0.00    +0.000 A 
ATOM      6  C   UNL     1       1.512   7.939  20.688  0.00  0.00    +0.000 C 
ATOM      7  C   UNL     1       1.684   6.408  20.542  0.00  0.00    +0.000 C 
ATOM      8  C   UNL     1       2.855   6.004  19.649  0.00  0.00    +0.000 A 
ATOM      9  C   UNL     1       3.532   4.804  19.882  0.00  0.00    +0.000 A 
ATOM     10  C   UNL     1       4.567   4.398  19.039  0.00  0.00    +0.000 A 
ATOM     11  C   UNL     1       4.910   5.186  17.935  0.00  0.00    +0.000 A 
ATOM     12  C   UNL     1       4.227   6.386  17.677  0.00  0.00    +0.000 A 
ATOM     13  C   UNL     1       3.206   6.801  18.528  0.00  0.00    +0.000 A 
ENDROOT
BRANCH   1  15
ATOM     14  N   UNL     1       0.653  11.383  20.448  0.00  0.00    +0.000 N 
ATOM     15  C   UNL     1       0.168  10.692  19.361  0.00  0.00    +0.000 C 
ATOM     16  O   UNL     1      -0.969  10.851  18.927  0.00  0.00    +0.000 OA
ATOM     17  H   UNL     1       1.646  11.309  20.650  0.00  0.00    +0.000 HD
BRANCH  14  18
ATOM     18  C   UNL     1      -0.117  12.409  21.126  0.00  0.00    +0.000 C 
BRANCH  18  19
ATOM     19  C   UNL     1      -1.084  11.799  22.138  0.00  0.00    +0.000 C 
BRANCH  19  21
ATOM     20  C   UNL     1      -0.570   9.760  23.201  0.00  0.00    +0.000 C 
ATOM     21  O   UNL     1      -0.339  11.163  23.182  0.00  0.00    +0.000 OA
ENDBRANCH  19  21
ENDBRANCH  18  19
ENDBRANCH  14  18
ENDBRANCH   1  15
BRANCH  10  22
ATOM     22  O   UNL     1       5.152   3.218  19.412  0.00  0.00    +0.000 OA
ATOM     23  C   UNL     1       4.301   2.194  19.901  0.00  0.00    +0.000 C 
ENDBRANCH  10  22
TORSDOF 5
ENDMDL
MODEL 7
REMARK VINA RESULT:      -6.8      3.571      5.566
REMARK  Name = 
REMARK  7 active torsions:
REMARK  status: ('A' for Active; 'I' for Inactive)
REMARK    1  A    between atoms: C_1  and  O_2
REMARK    2  A    between atoms: O_2  and  C_3
REMARK    3  A    between atoms: C_3  and  C_4
REMARK    4  A    between atoms: C_4  and  N_5
REMARK    5  A    between atoms: C_6  and  C_8
REMARK    6  A    between atoms: C_17  and  O_18
REMARK    7  A    between atoms: O_18  and  C_19
REMARK                            x       y       z     vdW  Elec       q    Type
REMARK                         _______ _______ _______ _____ _____    ______ ____
ROOT
ATOM      1  C   UNL     1       3.529   5.194  19.323  0.00  0.00    +0.000 A 
ATOM      2  N   UNL     1       2.854   4.762  20.414  0.00  0.00    +0.000 NA
ATOM      3  O   UNL     1       2.028   5.825  20.806  0.00  0.00    +0.000 OA
ATOM      4  C   UNL     1       2.219   6.850  19.951  0.00  0.00    +0.000 A 
ATOM      5  C   UNL     1       3.155   6.518  19.009  0.00  0.00    +0.000 A 
ATOM      6  C   UNL     1       3.545   7.488  17.958  0.00  0.00    +0.000 C 
ATOM      7  C   UNL     1       2.346   8.410  17.628  0.00  0.00    +0.000 C 
ATOM      8  C   UNL     1       1.604   8.919  18.862  0.00  0.00    +0.000 A 
ATOM      9  C   UNL     1       0.966  10.162  18.833  0.00  0.00    +0.000 A 
ATOM     10  C   UNL     1       0.240  10.613  19.936  0.00  0.00    +0.000 A 
ATOM     11  C   UNL     1       0.126   9.801  21.069  0.00  0.00    +0.000 A 
ATOM     12  C   UNL     1       0.747   8.541  21.107  0.00  0.00    +0.000 A 
ATOM     13  C   UNL     1       1.487   8.098  20.015  0.00  0.00    +0.000 A 
ENDROOT
BRANCH   1  15
ATOM     14  N   UNL     1       4.634   4.632  17.268  0.00  0.00    +0.000 N 
ATOM     15  C   UNL     1       4.507   4.359  18.611  0.00  0.00    +0.000 C 
ATOM     16  O   UNL     1       5.156   3.484  19.175  0.00  0.00    +0.000 OA
ATOM     17  H   UNL     1       4.179   5.467  16.909  0.00  0.00    +0.000 HD
BRANCH  14  18
ATOM     18  C   UNL     1       5.598   3.953  16.423  0.00  0.00    +0.000 C 
BRANCH  18  19
ATOM     19  C   UNL     1       6.980   4.593  16.531  0.00  0.00    +0.000 C 
BRANCH  19  21
ATOM     20  C   UNL     1       6.598   4.384  14.215  0.00  0.00    +0.000 C 
ATOM     21  O   UNL     1       7.467   4.893  15.218  0.00  0.00    +0.000 OA
ENDBRANCH  19  21
ENDBRANCH  18  19
ENDBRANCH  14  18
ENDBRANCH   1  15
BRANCH  10  22
ATOM     22  O   UNL     1      -0.302  11.859  19.767  0.00  0.00    +0.000 OA
ATOM     23  C   UNL     1      -0.912  12.142  18.518  0.00  0.00    +0.000 C 
ENDBRANCH  10  22
TORSDOF 5
ENDMDL
MODEL 8
REMARK VINA RESULT:      -6.8      4.096      6.346
REMARK  Name = 
REMARK  7 active torsions:
REMARK  status: ('A' for Active; 'I' for Inactive)
REMARK    1  A    between atoms: C_1  and  O_2
REMARK    2  A    between atoms: O_2  and  C_3
REMARK    3  A    between atoms: C_3  and  C_4
REMARK    4  A    between atoms: C_4  and  N_5
REMARK    5  A    between atoms: C_6  and  C_8
REMARK    6  A    between atoms: C_17  and  O_18
REMARK    7  A    between atoms: O_18  and  C_19
REMARK                            x       y       z     vdW  Elec       q    Type
REMARK                         _______ _______ _______ _____ _____    ______ ____
ROOT
ATOM      1  C   UNL     1       2.847   6.068  18.886  0.00  0.00    +0.000 A 
ATOM      2  N   UNL     1       2.533   5.448  20.046  0.00  0.00    +0.000 NA
ATOM      3  O   UNL     1       1.842   6.391  20.818  0.00  0.00    +0.000 OA
ATOM      4  C   UNL     1       1.753   7.536  20.111  0.00  0.00    +0.000 A 
ATOM      5  C   UNL     1       2.374   7.398  18.899  0.00  0.00    +0.000 A 
ATOM      6  C   UNL     1       2.416   8.528  17.941  0.00  0.00    +0.000 C 
ATOM      7  C   UNL     1       1.158   9.411  18.117  0.00  0.00    +0.000 C 
ATOM      8  C   UNL     1       0.806   9.695  19.576  0.00  0.00    +0.000 A 
ATOM      9  C   UNL     1       0.166  10.888  19.923  0.00  0.00    +0.000 A 
ATOM     10  C   UNL     1      -0.208  11.135  21.244  0.00  0.00    +0.000 A 
ATOM     11  C   UNL     1       0.033  10.166  22.224  0.00  0.00    +0.000 A 
ATOM     12  C   UNL     1       0.660   8.954  21.889  0.00  0.00    +0.000 A 
ATOM     13  C   UNL     1       1.051   8.715  20.574  0.00  0.00    +0.000 A 
ENDROOT
BRANCH   1  15
ATOM     14  N   UNL     1       4.666   6.106  17.320  0.00  0.00    +0.000 N 
ATOM     15  C   UNL     1       3.584   5.405  17.802  0.00  0.00    +0.000 C 
ATOM     16  O   UNL     1       3.255   4.308  17.360  0.00  0.00    +0.000 OA
ATOM     17  H   UNL     1       4.964   6.929  17.837  0.00  0.00    +0.000 HD
BRANCH  14  18
ATOM     18  C   UNL     1       5.547   5.574  16.298  0.00  0.00    +0.000 C 
BRANCH  18  19
ATOM     19  C   UNL     1       6.995   5.533  16.778  0.00  0.00    +0.000 C 
BRANCH  19  21
ATOM     20  C   UNL     1       7.709   7.625  17.596  0.00  0.00    +0.000 C 
ATOM     21  O   UNL     1       7.637   6.773  16.460  0.00  0.00    +0.000 OA
ENDBRANCH  19  21
ENDBRANCH  18  19
ENDBRANCH  14  18
ENDBRANCH   1  15
BRANCH  10  22
ATOM     22  O   UNL     1      -0.798  12.355  21.432  0.00  0.00    +0.000 OA
ATOM     23  C   UNL     1      -1.471  12.932  20.325  0.00  0.00    +0.000 C 
ENDBRANCH  10  22
TORSDOF 5
ENDMDL
MODEL 9
REMARK VINA RESULT:      -6.8      3.387      5.026
REMARK  Name = 
REMARK  7 active torsions:
REMARK  status: ('A' for Active; 'I' for Inactive)
REMARK    1  A    between atoms: C_1  and  O_2
REMARK    2  A    between atoms: O_2  and  C_3
REMARK    3  A    between atoms: C_3  and  C_4
REMARK    4  A    between atoms: C_4  and  N_5
REMARK    5  A    between atoms: C_6  and  C_8
REMARK    6  A    between atoms: C_17  and  O_18
REMARK    7  A    between atoms: O_18  and  C_19
REMARK                            x       y       z     vdW  Elec       q    Type
REMARK                         _______ _______ _______ _____ _____    ______ ____
ROOT
ATOM      1  C   UNL     1       3.718   5.035  18.665  0.00  0.00    +0.000 A 
ATOM      2  N   UNL     1       3.215   4.438  19.770  0.00  0.00    +0.000 NA
ATOM      3  O   UNL     1       2.443   5.410  20.420  0.00  0.00    +0.000 OA
ATOM      4  C   UNL     1       2.495   6.547  19.698  0.00  0.00    +0.000 A 
ATOM      5  C   UNL     1       3.288   6.377  18.595  0.00  0.00    +0.000 A 
ATOM      6  C   UNL     1       3.508   7.494  17.645  0.00  0.00    +0.000 C 
ATOM      7  C   UNL     1       2.263   8.413  17.622  0.00  0.00    +0.000 C 
ATOM      8  C   UNL     1       1.704   8.725  19.009  0.00  0.00    +0.000 A 
ATOM      9  C   UNL     1       1.054   9.940  19.245  0.00  0.00    +0.000 A 
ATOM     10  C   UNL     1       0.492  10.213  20.492  0.00  0.00    +0.000 A 
ATOM     11  C   UNL     1       0.555   9.251  21.506  0.00  0.00    +0.000 A 
ATOM     12  C   UNL     1       1.189   8.017  21.279  0.00  0.00    +0.000 A 
ATOM     13  C   UNL     1       1.766   7.752  20.040  0.00  0.00    +0.000 A 
ENDROOT
BRANCH   1  15
ATOM     14  N   UNL     1       5.771   4.984  17.422  0.00  0.00    +0.000 N 
ATOM     15  C   UNL     1       4.591   4.337  17.710  0.00  0.00    +0.000 C 
ATOM     16  O   UNL     1       4.285   3.260  17.208  0.00  0.00    +0.000 OA
ATOM     17  H   UNL     1       6.020   5.789  17.990  0.00  0.00    +0.000 HD
BRANCH  14  18
ATOM     18  C   UNL     1       6.781   4.410  16.553  0.00  0.00    +0.000 C 
BRANCH  18  19
ATOM     19  C   UNL     1       6.572   4.835  15.101  0.00  0.00    +0.000 C 
BRANCH  19  21
ATOM     20  C   UNL     1       6.438   3.803  12.987  0.00  0.00    +0.000 C 
ATOM     21  O   UNL     1       6.054   3.729  14.354  0.00  0.00    +0.000 OA
ENDBRANCH  19  21
ENDBRANCH  18  19
ENDBRANCH  14  18
ENDBRANCH   1  15
BRANCH  10  22
ATOM     22  O   UNL     1      -0.083  11.452  20.578  0.00  0.00    +0.000 OA
ATOM     23  C   UNL     1      -0.935  11.701  21.685  0.00  0.00    +0.000 C 
ENDBRANCH  10  22
TORSDOF 5
ENDMDL
