MODEL 1
REMARK VINA RESULT:      -8.7      0.000      0.000
REMARK  Name = 
REMARK  4 active torsions:
REMARK  status: ('A' for Active; 'I' for Inactive)
REMARK    1  A    between atoms: C_2  and  C_3
REMARK    2  A    between atoms: C_5  and  C_6
REMARK    3  A    between atoms: C_11  and  C_12
REMARK    4  A    between atoms: N_24  and  C_25
REMARK                            x       y       z     vdW  Elec       q    Type
REMARK                         _______ _______ _______ _____ _____    ______ ____
ROOT
ATOM      1  O   UNL     1       2.150   4.956  21.502  0.00  0.00    +0.000 OA
ATOM      2  C   UNL     1       2.285   5.551  20.434  0.00  0.00    +0.000 C 
ATOM      3  N   UNL     1       2.801   4.944  19.284  0.00  0.00    +0.000 N 
ATOM      4  C   UNL     1       2.889   5.512  17.935  0.00  0.00    +0.000 C 
ATOM      5  C   UNL     1       4.363   5.623  17.541  0.00  0.00    +0.000 C 
ATOM      6  C   UNL     1       4.987   4.215  17.575  0.00  0.00    +0.000 C 
ATOM      7  C   UNL     1       4.793   3.543  18.942  0.00  0.00    +0.000 C 
ATOM      8  C   UNL     1       3.324   3.579  19.368  0.00  0.00    +0.000 C 
ATOM      9  C   UNL     1       6.455   4.189  17.114  0.00  0.00    +0.000 C 
ATOM     10  N   UNL     1       6.013   3.687  15.847  0.00  0.00    +0.000 N 
ATOM     11  C   UNL     1       4.682   3.401  16.295  0.00  0.00    +0.000 C 
ENDROOT
BRANCH   2  12
ATOM     12  C   UNL     1       1.841   6.974  20.402  0.00  0.00    +0.000 A 
ATOM     13  C   UNL     1       2.083   7.788  19.293  0.00  0.00    +0.000 A 
ATOM     14  C   UNL     1       1.495   9.053  19.184  0.00  0.00    +0.000 A 
ATOM     15  C   UNL     1       0.797   9.567  20.285  0.00  0.00    +0.000 A 
ATOM     16  C   UNL     1       0.678   8.829  21.476  0.00  0.00    +0.000 A 
ATOM     17  C   UNL     1       1.187   7.518  21.515  0.00  0.00    +0.000 A 
BRANCH  14  18
ATOM     18  C   UNL     1       1.580   9.818  17.887  0.00  0.00    +0.000 C 
ATOM     19  F   UNL     1       0.360  10.118  17.361  0.00  0.00    +0.000 F 
ATOM     20  F   UNL     1       2.219  11.011  18.035  0.00  0.00    +0.000 F 
ATOM     21  F   UNL     1       2.256   9.141  16.919  0.00  0.00    +0.000 F 
ENDBRANCH  14  18
BRANCH  16  22
ATOM     22  C   UNL     1       0.016   9.429  22.695  0.00  0.00    +0.000 C 
ATOM     23  F   UNL     1       0.787   9.353  23.815  0.00  0.00    +0.000 F 
ATOM     24  F   UNL     1      -0.280  10.747  22.536  0.00  0.00    +0.000 F 
ATOM     25  F   UNL     1      -1.154   8.811  23.009  0.00  0.00    +0.000 F 
ENDBRANCH  16  22
ENDBRANCH   2  12
BRANCH  10  26
ATOM     26  C   UNL     1       6.473   4.099  14.579  0.00  0.00    +0.000 A 
ATOM     27  C   UNL     1       5.973   3.485  13.419  0.00  0.00    +0.000 A 
ATOM     28  C   UNL     1       6.418   3.859  12.149  0.00  0.00    +0.000 A 
ATOM     29  C   UNL     1       7.367   4.866  12.015  0.00  0.00    +0.000 A 
ATOM     30  C   UNL     1       7.862   5.501  13.152  0.00  0.00    +0.000 A 
ATOM     31  C   UNL     1       7.410   5.125  14.423  0.00  0.00    +0.000 A 
ENDBRANCH  10  26
TORSDOF 4
ENDMDL
MODEL 2
REMARK VINA RESULT:      -8.6      0.054      1.095
REMARK  Name = 
REMARK  4 active torsions:
REMARK  status: ('A' for Active; 'I' for Inactive)
REMARK    1  A    between atoms: C_2  and  C_3
REMARK    2  A    between atoms: C_5  and  C_6
REMARK    3  A    between atoms: C_11  and  C_12
REMARK    4  A    between atoms: N_24  and  C_25
REMARK                            x       y       z     vdW  Elec       q    Type
REMARK                         _______ _______ _______ _____ _____    ______ ____
ROOT
ATOM      1  O   UNL     1       2.109   4.950  21.500  0.00  0.00    +0.000 OA
ATOM      2  C   UNL     1       2.254   5.549  20.435  0.00  0.00    +0.000 C 
ATOM      3  N   UNL     1       2.771   4.942  19.284  0.00  0.00    +0.000 N 
ATOM      4  C   UNL     1       2.870   5.515  17.939  0.00  0.00    +0.000 C 
ATOM      5  C   UNL     1       4.346   5.614  17.552  0.00  0.00    +0.000 C 
ATOM      6  C   UNL     1       4.958   4.201  17.584  0.00  0.00    +0.000 C 
ATOM      7  C   UNL     1       4.752   3.526  18.946  0.00  0.00    +0.000 C 
ATOM      8  C   UNL     1       3.281   3.572  19.366  0.00  0.00    +0.000 C 
ATOM      9  C   UNL     1       6.428   4.164  17.129  0.00  0.00    +0.000 C 
ATOM     10  N   UNL     1       5.988   3.672  15.858  0.00  0.00    +0.000 N 
ATOM     11  C   UNL     1       4.652   3.396  16.298  0.00  0.00    +0.000 C 
ENDROOT
BRANCH   2  12
ATOM     12  C   UNL     1       1.823   6.975  20.407  0.00  0.00    +0.000 A 
ATOM     13  C   UNL     1       2.062   7.787  19.296  0.00  0.00    +0.000 A 
ATOM     14  C   UNL     1       1.485   9.058  19.192  0.00  0.00    +0.000 A 
ATOM     15  C   UNL     1       0.801   9.577  20.300  0.00  0.00    +0.000 A 
ATOM     16  C   UNL     1       0.686   8.841  21.492  0.00  0.00    +0.000 A 
ATOM     17  C   UNL     1       1.184   7.524  21.526  0.00  0.00    +0.000 A 
BRANCH  14  18
ATOM     18  C   UNL     1       1.564   9.822  17.894  0.00  0.00    +0.000 C 
ATOM     19  F   UNL     1       0.343  10.102  17.361  0.00  0.00    +0.000 F 
ATOM     20  F   UNL     1       2.184  11.025  18.045  0.00  0.00    +0.000 F 
ATOM     21  F   UNL     1       2.256   9.154  16.932  0.00  0.00    +0.000 F 
ENDBRANCH  14  18
BRANCH  16  22
ATOM     22  C   UNL     1       0.040   9.447  22.717  0.00  0.00    +0.000 C 
ATOM     23  F   UNL     1      -0.234  10.774  22.576  0.00  0.00    +0.000 F 
ATOM     24  F   UNL     1      -1.142   8.854  23.034  0.00  0.00    +0.000 F 
ATOM     25  F   UNL     1       0.826   9.346  23.823  0.00  0.00    +0.000 F 
ENDBRANCH  16  22
ENDBRANCH   2  12
BRANCH  10  26
ATOM     26  C   UNL     1       6.458   4.085  14.594  0.00  0.00    +0.000 A 
ATOM     27  C   UNL     1       7.389   5.131  14.501  0.00  0.00    +0.000 A 
ATOM     28  C   UNL     1       7.864   5.575  13.265  0.00  0.00    +0.000 A 
ATOM     29  C   UNL     1       7.422   4.969  12.094  0.00  0.00    +0.000 A 
ATOM     30  C   UNL     1       6.512   3.917  12.164  0.00  0.00    +0.000 A 
ATOM     31  C   UNL     1       6.042   3.474  13.407  0.00  0.00    +0.000 A 
ENDBRANCH  10  26
TORSDOF 4
ENDMDL
MODEL 3
REMARK VINA RESULT:      -8.5      0.128      3.153
REMARK  Name = 
REMARK  4 active torsions:
REMARK  status: ('A' for Active; 'I' for Inactive)
REMARK    1  A    between atoms: C_2  and  C_3
REMARK    2  A    between atoms: C_5  and  C_6
REMARK    3  A    between atoms: C_11  and  C_12
REMARK    4  A    between atoms: N_24  and  C_25
REMARK                            x       y       z     vdW  Elec       q    Type
REMARK                         _______ _______ _______ _____ _____    ______ ____
ROOT
ATOM      1  O   UNL     1       2.214   4.920  21.568  0.00  0.00    +0.000 OA
ATOM      2  C   UNL     1       2.296   5.486  20.479  0.00  0.00    +0.000 C 
ATOM      3  N   UNL     1       2.845   4.878  19.343  0.00  0.00    +0.000 N 
ATOM      4  C   UNL     1       2.878   5.403  17.976  0.00  0.00    +0.000 C 
ATOM      5  C   UNL     1       4.337   5.607  17.561  0.00  0.00    +0.000 C 
ATOM      6  C   UNL     1       5.063   4.250  17.637  0.00  0.00    +0.000 C 
ATOM      7  C   UNL     1       4.930   3.615  19.027  0.00  0.00    +0.000 C 
ATOM      8  C   UNL     1       3.466   3.558  19.469  0.00  0.00    +0.000 C 
ATOM      9  C   UNL     1       6.524   4.315  17.159  0.00  0.00    +0.000 C 
ATOM     10  N   UNL     1       6.109   3.738  15.916  0.00  0.00    +0.000 N 
ATOM     11  C   UNL     1       4.806   3.372  16.388  0.00  0.00    +0.000 C 
ENDROOT
BRANCH   2  12
ATOM     12  C   UNL     1       1.749   6.871  20.402  0.00  0.00    +0.000 A 
ATOM     13  C   UNL     1       1.028   7.430  21.460  0.00  0.00    +0.000 A 
ATOM     14  C   UNL     1       0.691   8.788  21.465  0.00  0.00    +0.000 A 
ATOM     15  C   UNL     1       0.934   9.546  20.312  0.00  0.00    +0.000 A 
ATOM     16  C   UNL     1       1.512   8.962  19.170  0.00  0.00    +0.000 A 
ATOM     17  C   UNL     1       1.939   7.623  19.235  0.00  0.00    +0.000 A 
BRANCH  14  18
ATOM     18  C   UNL     1       0.121   9.421  22.710  0.00  0.00    +0.000 C 
ATOM     19  F   UNL     1       0.949   9.330  23.786  0.00  0.00    +0.000 F 
ATOM     20  F   UNL     1      -0.121  10.751  22.544  0.00  0.00    +0.000 F 
ATOM     21  F   UNL     1      -1.061   8.864  23.090  0.00  0.00    +0.000 F 
ENDBRANCH  14  18
BRANCH  16  22
ATOM     22  C   UNL     1       1.675   9.756  17.894  0.00  0.00    +0.000 C 
ATOM     23  F   UNL     1       2.292  10.956  18.085  0.00  0.00    +0.000 F 
ATOM     24  F   UNL     1       2.416   9.102  16.960  0.00  0.00    +0.000 F 
ATOM     25  F   UNL     1       0.484  10.043  17.304  0.00  0.00    +0.000 F 
ENDBRANCH  16  22
ENDBRANCH   2  12
BRANCH  10  26
ATOM     26  C   UNL     1       6.526   4.137  14.630  0.00  0.00    +0.000 A 
ATOM     27  C   UNL     1       5.962   3.538  13.492  0.00  0.00    +0.000 A 
ATOM     28  C   UNL     1       6.363   3.900  12.204  0.00  0.00    +0.000 A 
ATOM     29  C   UNL     1       7.333   4.881  12.030  0.00  0.00    +0.000 A 
ATOM     30  C   UNL     1       7.893   5.501  13.144  0.00  0.00    +0.000 A 
ATOM     31  C   UNL     1       7.485   5.137  14.433  0.00  0.00    +0.000 A 
ENDBRANCH  10  26
TORSDOF 4
ENDMDL
MODEL 4
REMARK VINA RESULT:      -8.4      0.129      3.270
REMARK  Name = 
REMARK  4 active torsions:
REMARK  status: ('A' for Active; 'I' for Inactive)
REMARK    1  A    between atoms: C_2  and  C_3
REMARK    2  A    between atoms: C_5  and  C_6
REMARK    3  A    between atoms: C_11  and  C_12
REMARK    4  A    between atoms: N_24  and  C_25
REMARK                            x       y       z     vdW  Elec       q    Type
REMARK                         _______ _______ _______ _____ _____    ______ ____
ROOT
ATOM      1  O   UNL     1       2.216   4.950  21.594  0.00  0.00    +0.000 OA
ATOM      2  C   UNL     1       2.288   5.506  20.499  0.00  0.00    +0.000 C 
ATOM      3  N   UNL     1       2.824   4.886  19.364  0.00  0.00    +0.000 N 
ATOM      4  C   UNL     1       2.846   5.399  17.991  0.00  0.00    +0.000 C 
ATOM      5  C   UNL     1       4.301   5.594  17.560  0.00  0.00    +0.000 C 
ATOM      6  C   UNL     1       5.022   4.235  17.641  0.00  0.00    +0.000 C 
ATOM      7  C   UNL     1       4.902   3.613  19.038  0.00  0.00    +0.000 C 
ATOM      8  C   UNL     1       3.442   3.565  19.495  0.00  0.00    +0.000 C 
ATOM      9  C   UNL     1       6.479   4.291  17.148  0.00  0.00    +0.000 C 
ATOM     10  N   UNL     1       6.049   3.704  15.914  0.00  0.00    +0.000 N 
ATOM     11  C   UNL     1       4.750   3.348  16.403  0.00  0.00    +0.000 C 
ENDROOT
BRANCH   2  12
ATOM     12  C   UNL     1       1.745   6.892  20.416  0.00  0.00    +0.000 A 
ATOM     13  C   UNL     1       1.030   7.459  21.472  0.00  0.00    +0.000 A 
ATOM     14  C   UNL     1       0.697   8.819  21.470  0.00  0.00    +0.000 A 
ATOM     15  C   UNL     1       0.939   9.569  20.312  0.00  0.00    +0.000 A 
ATOM     16  C   UNL     1       1.511   8.977  19.172  0.00  0.00    +0.000 A 
ATOM     17  C   UNL     1       1.934   7.636  19.243  0.00  0.00    +0.000 A 
BRANCH  14  18
ATOM     18  C   UNL     1       0.132   9.461  22.713  0.00  0.00    +0.000 C 
ATOM     19  F   UNL     1      -1.068   8.941  23.087  0.00  0.00    +0.000 F 
ATOM     20  F   UNL     1       0.952   9.306  23.789  0.00  0.00    +0.000 F 
ATOM     21  F   UNL     1      -0.061  10.801  22.571  0.00  0.00    +0.000 F 
ENDBRANCH  14  18
BRANCH  16  22
ATOM     22  C   UNL     1       1.673   9.762  17.891  0.00  0.00    +0.000 C 
ATOM     23  F   UNL     1       2.407   9.105  16.949  0.00  0.00    +0.000 F 
ATOM     24  F   UNL     1       0.484  10.052  17.299  0.00  0.00    +0.000 F 
ATOM     25  F   UNL     1       2.302  10.953  18.086  0.00  0.00    +0.000 F 
ENDBRANCH  16  22
ENDBRANCH   2  12
BRANCH  10  26
ATOM     26  C   UNL     1       6.456   4.091  14.620  0.00  0.00    +0.000 A 
ATOM     27  C   UNL     1       7.450   5.070  14.461  0.00  0.00    +0.000 A 
ATOM     28  C   UNL     1       7.865   5.486  13.194  0.00  0.00    +0.000 A 
ATOM     29  C   UNL     1       7.298   4.920  12.058  0.00  0.00    +0.000 A 
ATOM     30  C   UNL     1       6.324   3.934  12.192  0.00  0.00    +0.000 A 
ATOM     31  C   UNL     1       5.913   3.518  13.465  0.00  0.00    +0.000 A 
ENDBRANCH  10  26
TORSDOF 4
ENDMDL
MODEL 5
REMARK VINA RESULT:      -8.2      6.917      8.415
REMARK  Name = 
REMARK  4 active torsions:
REMARK  status: ('A' for Active; 'I' for Inactive)
REMARK    1  A    between atoms: C_2  and  C_3
REMARK    2  A    between atoms: C_5  and  C_6
REMARK    3  A    between atoms: C_11  and  C_12
REMARK    4  A    between atoms: N_24  and  C_25
REMARK                            x       y       z     vdW  Elec       q    Type
REMARK                         _______ _______ _______ _____ _____    ______ ____
ROOT
ATOM      1  O   UNL     1      -1.017  14.916  19.943  0.00  0.00    +0.000 OA
ATOM      2  C   UNL     1      -0.087  14.111  19.934  0.00  0.00    +0.000 C 
ATOM      3  N   UNL     1       1.258  14.501  19.964  0.00  0.00    +0.000 N 
ATOM      4  C   UNL     1       2.436  13.638  20.083  0.00  0.00    +0.000 C 
ATOM      5  C   UNL     1       3.278  13.774  18.813  0.00  0.00    +0.000 C 
ATOM      6  C   UNL     1       3.701  15.247  18.660  0.00  0.00    +0.000 C 
ATOM      7  C   UNL     1       2.488  16.187  18.665  0.00  0.00    +0.000 C 
ATOM      8  C   UNL     1       1.592  15.923  19.877  0.00  0.00    +0.000 C 
ATOM      9  C   UNL     1       4.627  15.492  17.456  0.00  0.00    +0.000 C 
ATOM     10  N   UNL     1       5.738  15.530  18.360  0.00  0.00    +0.000 N 
ATOM     11  C   UNL     1       4.925  15.604  19.538  0.00  0.00    +0.000 C 
ENDROOT
BRANCH   2  12
ATOM     12  C   UNL     1      -0.453  12.666  19.917  0.00  0.00    +0.000 A 
ATOM     13  C   UNL     1      -1.090  12.088  18.818  0.00  0.00    +0.000 A 
ATOM     14  C   UNL     1      -1.252  10.701  18.723  0.00  0.00    +0.000 A 
ATOM     15  C   UNL     1      -0.920   9.909  19.830  0.00  0.00    +0.000 A 
ATOM     16  C   UNL     1      -0.427  10.487  21.013  0.00  0.00    +0.000 A 
ATOM     17  C   UNL     1      -0.174  11.872  21.038  0.00  0.00    +0.000 A 
BRANCH  14  18
ATOM     18  C   UNL     1      -1.730  10.080  17.434  0.00  0.00    +0.000 C 
ATOM     19  F   UNL     1      -2.885   9.374  17.576  0.00  0.00    +0.000 F 
ATOM     20  F   UNL     1      -1.985  11.016  16.478  0.00  0.00    +0.000 F 
ATOM     21  F   UNL     1      -0.822   9.223  16.895  0.00  0.00    +0.000 F 
ENDBRANCH  14  18
BRANCH  16  22
ATOM     22  C   UNL     1      -0.171   9.642  22.240  0.00  0.00    +0.000 C 
ATOM     23  F   UNL     1       1.132   9.262  22.366  0.00  0.00    +0.000 F 
ATOM     24  F   UNL     1      -0.483  10.286  23.396  0.00  0.00    +0.000 F 
ATOM     25  F   UNL     1      -0.893   8.489  22.238  0.00  0.00    +0.000 F 
ENDBRANCH  16  22
ENDBRANCH   2  12
BRANCH  10  26
ATOM     26  C   UNL     1       6.994  14.921  18.164  0.00  0.00    +0.000 A 
ATOM     27  C   UNL     1       7.068  13.612  17.661  0.00  0.00    +0.000 A 
ATOM     28  C   UNL     1       8.295  12.974  17.469  0.00  0.00    +0.000 A 
ATOM     29  C   UNL     1       9.478  13.641  17.767  0.00  0.00    +0.000 A 
ATOM     30  C   UNL     1       9.429  14.947  18.250  0.00  0.00    +0.000 A 
ATOM     31  C   UNL     1       8.196  15.583  18.437  0.00  0.00    +0.000 A 
ENDBRANCH  10  26
TORSDOF 4
ENDMDL
MODEL 6
REMARK VINA RESULT:      -8.0      6.926      8.509
REMARK  Name = 
REMARK  4 active torsions:
REMARK  status: ('A' for Active; 'I' for Inactive)
REMARK    1  A    between atoms: C_2  and  C_3
REMARK    2  A    between atoms: C_5  and  C_6
REMARK    3  A    between atoms: C_11  and  C_12
REMARK    4  A    between atoms: N_24  and  C_25
REMARK                            x       y       z     vdW  Elec       q    Type
REMARK                         _______ _______ _______ _____ _____    ______ ____
ROOT
ATOM      1  O   UNL     1      -0.998  14.904  20.262  0.00  0.00    +0.000 OA
ATOM      2  C   UNL     1      -0.077  14.092  20.190  0.00  0.00    +0.000 C 
ATOM      3  N   UNL     1       1.272  14.468  20.192  0.00  0.00    +0.000 N 
ATOM      4  C   UNL     1       2.445  13.591  20.238  0.00  0.00    +0.000 C 
ATOM      5  C   UNL     1       3.248  13.773  18.948  0.00  0.00    +0.000 C 
ATOM      6  C   UNL     1       3.680  15.248  18.844  0.00  0.00    +0.000 C 
ATOM      7  C   UNL     1       2.477  16.197  18.927  0.00  0.00    +0.000 C 
ATOM      8  C   UNL     1       1.618  15.891  20.155  0.00  0.00    +0.000 C 
ATOM      9  C   UNL     1       4.571  15.535  17.622  0.00  0.00    +0.000 C 
ATOM     10  N   UNL     1       5.709  15.525  18.491  0.00  0.00    +0.000 N 
ATOM     11  C   UNL     1       4.935  15.557  19.696  0.00  0.00    +0.000 C 
ENDROOT
BRANCH   2  12
ATOM     12  C   UNL     1      -0.458  12.653  20.124  0.00  0.00    +0.000 A 
ATOM     13  C   UNL     1      -1.173  12.136  19.041  0.00  0.00    +0.000 A 
ATOM     14  C   UNL     1      -1.354  10.757  18.887  0.00  0.00    +0.000 A 
ATOM     15  C   UNL     1      -0.957   9.907  19.928  0.00  0.00    +0.000 A 
ATOM     16  C   UNL     1      -0.382  10.420  21.103  0.00  0.00    +0.000 A 
ATOM     17  C   UNL     1      -0.114  11.800  21.181  0.00  0.00    +0.000 A 
BRANCH  14  18
ATOM     18  C   UNL     1      -1.923  10.207  17.603  0.00  0.00    +0.000 C 
ATOM     19  F   UNL     1      -2.284  11.176  16.718  0.00  0.00    +0.000 F 
ATOM     20  F   UNL     1      -1.030   9.420  16.942  0.00  0.00    +0.000 F 
ATOM     21  F   UNL     1      -3.030   9.442  17.803  0.00  0.00    +0.000 F 
ENDBRANCH  14  18
BRANCH  16  22
ATOM     22  C   UNL     1      -0.053   9.511  22.266  0.00  0.00    +0.000 C 
ATOM     23  F   UNL     1      -0.045  10.157  23.465  0.00  0.00    +0.000 F 
ATOM     24  F   UNL     1      -0.940   8.489  22.399  0.00  0.00    +0.000 F 
ATOM     25  F   UNL     1       1.174   8.937  22.146  0.00  0.00    +0.000 F 
ENDBRANCH  16  22
ENDBRANCH   2  12
BRANCH  10  26
ATOM     26  C   UNL     1       6.953  14.914  18.230  0.00  0.00    +0.000 A 
ATOM     27  C   UNL     1       8.144  15.579  18.561  0.00  0.00    +0.000 A 
ATOM     28  C   UNL     1       9.392  15.008  18.303  0.00  0.00    +0.000 A 
ATOM     29  C   UNL     1       9.472  13.750  17.716  0.00  0.00    +0.000 A 
ATOM     30  C   UNL     1       8.303  13.065  17.396  0.00  0.00    +0.000 A 
ATOM     31  C   UNL     1       7.054  13.640  17.660  0.00  0.00    +0.000 A 
ENDBRANCH  10  26
TORSDOF 4
ENDMDL
MODEL 7
REMARK VINA RESULT:      -8.0      5.304      8.481
REMARK  Name = 
REMARK  4 active torsions:
REMARK  status: ('A' for Active; 'I' for Inactive)
REMARK    1  A    between atoms: C_2  and  C_3
REMARK    2  A    between atoms: C_5  and  C_6
REMARK    3  A    between atoms: C_11  and  C_12
REMARK    4  A    between atoms: N_24  and  C_25
REMARK                            x       y       z     vdW  Elec       q    Type
REMARK                         _______ _______ _______ _____ _____    ______ ____
ROOT
ATOM      1  O   UNL     1      -1.846  14.328  20.056  0.00  0.00    +0.000 OA
ATOM      2  C   UNL     1      -2.069  13.139  20.279  0.00  0.00    +0.000 C 
ATOM      3  N   UNL     1      -1.053  12.185  20.415  0.00  0.00    +0.000 N 
ATOM      4  C   UNL     1      -1.193  10.779  20.803  0.00  0.00    +0.000 C 
ATOM      5  C   UNL     1      -0.735   9.897  19.640  0.00  0.00    +0.000 C 
ATOM      6  C   UNL     1       0.736  10.227  19.324  0.00  0.00    +0.000 C 
ATOM      7  C   UNL     1       0.933  11.722  19.042  0.00  0.00    +0.000 C 
ATOM      8  C   UNL     1       0.335  12.577  20.161  0.00  0.00    +0.000 C 
ATOM      9  C   UNL     1       1.335   9.339  18.219  0.00  0.00    +0.000 C 
ATOM     10  N   UNL     1       1.988   8.571  19.237  0.00  0.00    +0.000 N 
ATOM     11  C   UNL     1       1.720   9.513  20.282  0.00  0.00    +0.000 C 
ENDROOT
BRANCH   2  12
ATOM     12  C   UNL     1      -3.499  12.745  20.431  0.00  0.00    +0.000 A 
ATOM     13  C   UNL     1      -4.156  12.844  21.659  0.00  0.00    +0.000 A 
ATOM     14  C   UNL     1      -5.541  12.664  21.753  0.00  0.00    +0.000 A 
ATOM     15  C   UNL     1      -6.238  12.210  20.625  0.00  0.00    +0.000 A 
ATOM     16  C   UNL     1      -5.568  11.946  19.418  0.00  0.00    +0.000 A 
ATOM     17  C   UNL     1      -4.195  12.240  19.324  0.00  0.00    +0.000 A 
BRANCH  14  18
ATOM     18  C   UNL     1      -6.263  13.000  23.034  0.00  0.00    +0.000 C 
ATOM     19  F   UNL     1      -6.703  14.287  23.080  0.00  0.00    +0.000 F 
ATOM     20  F   UNL     1      -7.368  12.226  23.218  0.00  0.00    +0.000 F 
ATOM     21  F   UNL     1      -5.486  12.824  24.137  0.00  0.00    +0.000 F 
ENDBRANCH  14  18
BRANCH  16  22
ATOM     22  C   UNL     1      -6.306  11.356  18.237  0.00  0.00    +0.000 C 
ATOM     23  F   UNL     1      -7.263  12.186  17.735  0.00  0.00    +0.000 F 
ATOM     24  F   UNL     1      -5.481  11.067  17.194  0.00  0.00    +0.000 F 
ATOM     25  F   UNL     1      -6.947  10.198  18.549  0.00  0.00    +0.000 F 
ENDBRANCH  16  22
ENDBRANCH   2  12
BRANCH  10  26
ATOM     26  C   UNL     1       2.085   7.164  19.288  0.00  0.00    +0.000 A 
ATOM     27  C   UNL     1       2.575   6.455  18.179  0.00  0.00    +0.000 A 
ATOM     28  C   UNL     1       2.670   5.062  18.191  0.00  0.00    +0.000 A 
ATOM     29  C   UNL     1       2.286   4.350  19.322  0.00  0.00    +0.000 A 
ATOM     30  C   UNL     1       1.815   5.035  20.440  0.00  0.00    +0.000 A 
ATOM     31  C   UNL     1       1.725   6.432  20.424  0.00  0.00    +0.000 A 
ENDBRANCH  10  26
TORSDOF 4
ENDMDL
MODEL 8
REMARK VINA RESULT:      -8.0      2.419      3.496
REMARK  Name = 
REMARK  4 active torsions:
REMARK  status: ('A' for Active; 'I' for Inactive)
REMARK    1  A    between atoms: C_2  and  C_3
REMARK    2  A    between atoms: C_5  and  C_6
REMARK    3  A    between atoms: C_11  and  C_12
REMARK    4  A    between atoms: N_24  and  C_25
REMARK                            x       y       z     vdW  Elec       q    Type
REMARK                         _______ _______ _______ _____ _____    ______ ____
ROOT
ATOM      1  O   UNL     1       1.325   8.128  21.266  0.00  0.00    +0.000 OA
ATOM      2  C   UNL     1       1.488   8.236  20.052  0.00  0.00    +0.000 C 
ATOM      3  N   UNL     1       2.055   7.226  19.266  0.00  0.00    +0.000 N 
ATOM      4  C   UNL     1       2.181   7.193  17.807  0.00  0.00    +0.000 C 
ATOM      5  C   UNL     1       3.666   7.177  17.439  0.00  0.00    +0.000 C 
ATOM      6  C   UNL     1       4.313   5.926  18.066  0.00  0.00    +0.000 C 
ATOM      7  C   UNL     1       4.082   5.869  19.582  0.00  0.00    +0.000 C 
ATOM      8  C   UNL     1       2.598   6.032  19.918  0.00  0.00    +0.000 C 
ATOM      9  C   UNL     1       5.796   5.758  17.693  0.00  0.00    +0.000 C 
ATOM     10  N   UNL     1       5.409   4.767  16.734  0.00  0.00    +0.000 N 
ATOM     11  C   UNL     1       4.067   4.651  17.225  0.00  0.00    +0.000 C 
ENDROOT
BRANCH   2  12
ATOM     12  C   UNL     1       1.022   9.506  19.426  0.00  0.00    +0.000 A 
ATOM     13  C   UNL     1      -0.253   9.618  18.867  0.00  0.00    +0.000 A 
ATOM     14  C   UNL     1      -0.758  10.859  18.462  0.00  0.00    +0.000 A 
ATOM     15  C   UNL     1       0.101  11.967  18.464  0.00  0.00    +0.000 A 
ATOM     16  C   UNL     1       1.441  11.844  18.870  0.00  0.00    +0.000 A 
ATOM     17  C   UNL     1       1.887  10.607  19.374  0.00  0.00    +0.000 A 
BRANCH  14  18
ATOM     18  C   UNL     1      -2.210  10.998  18.078  0.00  0.00    +0.000 C 
ATOM     19  F   UNL     1      -2.942  11.693  18.991  0.00  0.00    +0.000 F 
ATOM     20  F   UNL     1      -2.368  11.659  16.899  0.00  0.00    +0.000 F 
ATOM     21  F   UNL     1      -2.831   9.796  17.927  0.00  0.00    +0.000 F 
ENDBRANCH  14  18
BRANCH  16  22
ATOM     22  C   UNL     1       2.391  13.016  18.771  0.00  0.00    +0.000 C 
ATOM     23  F   UNL     1       3.442  12.783  17.936  0.00  0.00    +0.000 F 
ATOM     24  F   UNL     1       1.788  14.142  18.305  0.00  0.00    +0.000 F 
ATOM     25  F   UNL     1       2.937  13.345  19.972  0.00  0.00    +0.000 F 
ENDBRANCH  16  22
ENDBRANCH   2  12
BRANCH  10  26
ATOM     26  C   UNL     1       5.907   4.636  15.421  0.00  0.00    +0.000 A 
ATOM     27  C   UNL     1       5.198   3.879  14.475  0.00  0.00    +0.000 A 
ATOM     28  C   UNL     1       5.670   3.717  13.171  0.00  0.00    +0.000 A 
ATOM     29  C   UNL     1       6.861   4.322  12.784  0.00  0.00    +0.000 A 
ATOM     30  C   UNL     1       7.570   5.093  13.701  0.00  0.00    +0.000 A 
ATOM     31  C   UNL     1       7.091   5.255  15.007  0.00  0.00    +0.000 A 
ENDBRANCH  10  26
TORSDOF 4
ENDMDL
MODEL 9
REMARK VINA RESULT:      -8.0      6.332      9.134
REMARK  Name = 
REMARK  4 active torsions:
REMARK  status: ('A' for Active; 'I' for Inactive)
REMARK    1  A    between atoms: C_2  and  C_3
REMARK    2  A    between atoms: C_5  and  C_6
REMARK    3  A    between atoms: C_11  and  C_12
REMARK    4  A    between atoms: N_24  and  C_25
REMARK                            x       y       z     vdW  Elec       q    Type
REMARK                         _______ _______ _______ _____ _____    ______ ____
ROOT
ATOM      1  O   UNL     1      -0.795  14.547  20.510  0.00  0.00    +0.000 OA
ATOM      2  C   UNL     1       0.303  13.994  20.500  0.00  0.00    +0.000 C 
ATOM      3  N   UNL     1       1.512  14.700  20.520  0.00  0.00    +0.000 N 
ATOM      4  C   UNL     1       2.866  14.151  20.638  0.00  0.00    +0.000 C 
ATOM      5  C   UNL     1       3.645  14.479  19.363  0.00  0.00    +0.000 C 
ATOM      6  C   UNL     1       3.695  16.010  19.199  0.00  0.00    +0.000 C 
ATOM      7  C   UNL     1       2.289  16.626  19.204  0.00  0.00    +0.000 C 
ATOM      8  C   UNL     1       1.490  16.161  20.423  0.00  0.00    +0.000 C 
ATOM      9  C   UNL     1       4.528  16.465  17.988  0.00  0.00    +0.000 C 
ATOM     10  N   UNL     1       5.599  16.779  18.885  0.00  0.00    +0.000 N 
ATOM     11  C   UNL     1       4.798  16.661  20.067  0.00  0.00    +0.000 C 
ENDROOT
BRANCH   2  12
ATOM     12  C   UNL     1       0.301  12.503  20.494  0.00  0.00    +0.000 A 
ATOM     13  C   UNL     1       0.664  11.778  19.358  0.00  0.00    +0.000 A 
ATOM     14  C   UNL     1       0.852  10.392  19.415  0.00  0.00    +0.000 A 
ATOM     15  C   UNL     1       0.501   9.714  20.590  0.00  0.00    +0.000 A 
ATOM     16  C   UNL     1      -0.024  10.406  21.696  0.00  0.00    +0.000 A 
ATOM     17  C   UNL     1      -0.098  11.810  21.645  0.00  0.00    +0.000 A 
BRANCH  14  18
ATOM     18  C   UNL     1       1.465   9.662  18.245  0.00  0.00    +0.000 C 
ATOM     19  F   UNL     1       2.321  10.434  17.521  0.00  0.00    +0.000 F 
ATOM     20  F   UNL     1       2.189   8.579  18.639  0.00  0.00    +0.000 F 
ATOM     21  F   UNL     1       0.533   9.200  17.368  0.00  0.00    +0.000 F 
ENDBRANCH  14  18
BRANCH  16  22
ATOM     22  C   UNL     1      -0.499   9.659  22.921  0.00  0.00    +0.000 C 
ATOM     23  F   UNL     1      -1.505  10.298  23.581  0.00  0.00    +0.000 F 
ATOM     24  F   UNL     1      -0.977   8.419  22.627  0.00  0.00    +0.000 F 
ATOM     25  F   UNL     1       0.489   9.479  23.837  0.00  0.00    +0.000 F 
ENDBRANCH  16  22
ENDBRANCH   2  12
BRANCH  10  26
ATOM     26  C   UNL     1       6.966  16.493  18.686  0.00  0.00    +0.000 A 
ATOM     27  C   UNL     1       7.904  17.538  18.662  0.00  0.00    +0.000 A 
ATOM     28  C   UNL     1       9.263  17.291  18.453  0.00  0.00    +0.000 A 
ATOM     29  C   UNL     1       9.712  15.987  18.274  0.00  0.00    +0.000 A 
ATOM     30  C   UNL     1       8.801  14.934  18.313  0.00  0.00    +0.000 A 
ATOM     31  C   UNL     1       7.440  15.187  18.527  0.00  0.00    +0.000 A 
ENDBRANCH  10  26
TORSDOF 4
ENDMDL
