MODEL 1
REMARK VINA RESULT:      -6.9      0.000      0.000
REMARK  Name = 
REMARK  1 active torsions:
REMARK  status: ('A' for Active; 'I' for Inactive)
REMARK    1  A    between atoms: C_9  and  C_10
REMARK                            x       y       z     vdW  Elec       q    Type
REMARK                         _______ _______ _______ _____ _____    ______ ____
ROOT
ATOM      1  O   UNL     1       4.042   2.108  17.428  0.00  0.00    +0.000 OA
ATOM      2  C   UNL     1       3.067   2.424  18.080  0.00  0.00    +0.000 C 
ATOM      3  N   UNL     1       1.949   1.639  18.245  0.00  0.00    +0.000 N 
ATOM      4  C   UNL     1       0.988   2.209  19.148  0.00  0.00    +0.000 C 
ATOM      5  C   UNL     1       1.618   3.513  19.506  0.00  0.00    +0.000 A 
ATOM      6  C   UNL     1       1.120   4.498  20.339  0.00  0.00    +0.000 A 
ATOM      7  C   UNL     1       1.888   5.646  20.524  0.00  0.00    +0.000 A 
ATOM      8  C   UNL     1       3.131   5.791  19.877  0.00  0.00    +0.000 A 
ATOM      9  C   UNL     1       3.653   4.795  19.028  0.00  0.00    +0.000 A 
ATOM     10  C   UNL     1       2.863   3.658  18.870  0.00  0.00    +0.000 A 
ATOM     11  H   UNL     1       1.883   0.730  17.808  0.00  0.00    +0.000 HD
ENDROOT
BRANCH   9  12
ATOM     12  C   UNL     1       4.951   5.013  18.373  0.00  0.00    +0.000 A 
ATOM     13  C   UNL     1       5.365   6.000  17.490  0.00  0.00    +0.000 A 
ATOM     14  C   UNL     1       6.709   5.746  17.125  0.00  0.00    +0.000 A 
ATOM     15  C   UNL     1       7.103   4.618  17.803  0.00  0.00    +0.000 A 
ATOM     16  N   UNL     1       6.043   4.186  18.549  0.00  0.00    +0.000 N 
ATOM     17  H   UNL     1       6.027   3.324  19.085  0.00  0.00    +0.000 HD
ENDBRANCH   9  12
TORSDOF 1
ENDMDL
MODEL 2
REMARK VINA RESULT:      -6.8      1.718      1.782
REMARK  Name = 
REMARK  1 active torsions:
REMARK  status: ('A' for Active; 'I' for Inactive)
REMARK    1  A    between atoms: C_9  and  C_10
REMARK                            x       y       z     vdW  Elec       q    Type
REMARK                         _______ _______ _______ _____ _____    ______ ____
ROOT
ATOM      1  O   UNL     1       4.909   2.296  19.888  0.00  0.00    +0.000 OA
ATOM      2  C   UNL     1       3.935   2.926  20.250  0.00  0.00    +0.000 C 
ATOM      3  N   UNL     1       3.006   2.477  21.159  0.00  0.00    +0.000 N 
ATOM      4  C   UNL     1       2.013   3.461  21.486  0.00  0.00    +0.000 C 
ATOM      5  C   UNL     1       2.397   4.607  20.609  0.00  0.00    +0.000 A 
ATOM      6  C   UNL     1       1.770   5.834  20.490  0.00  0.00    +0.000 A 
ATOM      7  C   UNL     1       2.308   6.756  19.594  0.00  0.00    +0.000 A 
ATOM      8  C   UNL     1       3.454   6.440  18.838  0.00  0.00    +0.000 A 
ATOM      9  C   UNL     1       4.105   5.195  18.951  0.00  0.00    +0.000 A 
ATOM     10  C   UNL     1       3.545   4.298  19.859  0.00  0.00    +0.000 A 
ATOM     11  H   UNL     1       3.091   1.561  21.580  0.00  0.00    +0.000 HD
ENDROOT
BRANCH   9  12
ATOM     12  C   UNL     1       5.288   4.923  18.124  0.00  0.00    +0.000 A 
ATOM     13  C   UNL     1       5.410   4.714  16.757  0.00  0.00    +0.000 A 
ATOM     14  C   UNL     1       6.771   4.462  16.457  0.00  0.00    +0.000 A 
ATOM     15  C   UNL     1       7.464   4.537  17.641  0.00  0.00    +0.000 A 
ATOM     16  N   UNL     1       6.567   4.814  18.634  0.00  0.00    +0.000 N 
ATOM     17  H   UNL     1       6.792   4.842  19.624  0.00  0.00    +0.000 HD
ENDBRANCH   9  12
TORSDOF 1
ENDMDL
MODEL 3
REMARK VINA RESULT:      -6.7      2.006      2.892
REMARK  Name = 
REMARK  1 active torsions:
REMARK  status: ('A' for Active; 'I' for Inactive)
REMARK    1  A    between atoms: C_9  and  C_10
REMARK                            x       y       z     vdW  Elec       q    Type
REMARK                         _______ _______ _______ _____ _____    ______ ____
ROOT
ATOM      1  O   UNL     1       4.269   6.455  19.089  0.00  0.00    +0.000 OA
ATOM      2  C   UNL     1       3.385   5.709  19.461  0.00  0.00    +0.000 C 
ATOM      3  N   UNL     1       2.477   6.004  20.451  0.00  0.00    +0.000 N 
ATOM      4  C   UNL     1       1.477   4.987  20.621  0.00  0.00    +0.000 C 
ATOM      5  C   UNL     1       1.899   3.953  19.631  0.00  0.00    +0.000 A 
ATOM      6  C   UNL     1       1.306   2.731  19.372  0.00  0.00    +0.000 A 
ATOM      7  C   UNL     1       1.884   1.919  18.399  0.00  0.00    +0.000 A 
ATOM      8  C   UNL     1       3.038   2.336  17.706  0.00  0.00    +0.000 A 
ATOM      9  C   UNL     1       3.651   3.579  17.957  0.00  0.00    +0.000 A 
ATOM     10  C   UNL     1       3.045   4.370  18.932  0.00  0.00    +0.000 A 
ATOM     11  H   UNL     1       2.509   6.889  20.939  0.00  0.00    +0.000 HD
ENDROOT
BRANCH   9  12
ATOM     12  C   UNL     1       4.861   3.951  17.209  0.00  0.00    +0.000 A 
ATOM     13  C   UNL     1       5.055   4.171  15.853  0.00  0.00    +0.000 A 
ATOM     14  C   UNL     1       6.420   4.478  15.635  0.00  0.00    +0.000 A 
ATOM     15  C   UNL     1       7.037   4.459  16.862  0.00  0.00    +0.000 A 
ATOM     16  N   UNL     1       6.095   4.142  17.799  0.00  0.00    +0.000 N 
ATOM     17  H   UNL     1       6.290   3.977  18.782  0.00  0.00    +0.000 HD
ENDBRANCH   9  12
TORSDOF 1
ENDMDL
MODEL 4
REMARK VINA RESULT:      -6.7      1.683      4.602
REMARK  Name = 
REMARK  1 active torsions:
REMARK  status: ('A' for Active; 'I' for Inactive)
REMARK    1  A    between atoms: C_9  and  C_10
REMARK                            x       y       z     vdW  Elec       q    Type
REMARK                         _______ _______ _______ _____ _____    ______ ____
ROOT
ATOM      1  O   UNL     1       5.195   3.025  19.530  0.00  0.00    +0.000 OA
ATOM      2  C   UNL     1       5.442   4.039  18.908  0.00  0.00    +0.000 C 
ATOM      3  N   UNL     1       6.668   4.346  18.366  0.00  0.00    +0.000 N 
ATOM      4  C   UNL     1       6.657   5.557  17.594  0.00  0.00    +0.000 C 
ATOM      5  C   UNL     1       5.251   6.029  17.757  0.00  0.00    +0.000 A 
ATOM      6  C   UNL     1       4.672   7.173  17.240  0.00  0.00    +0.000 A 
ATOM      7  C   UNL     1       3.331   7.415  17.532  0.00  0.00    +0.000 A 
ATOM      8  C   UNL     1       2.596   6.518  18.331  0.00  0.00    +0.000 A 
ATOM      9  C   UNL     1       3.171   5.346  18.862  0.00  0.00    +0.000 A 
ATOM     10  C   UNL     1       4.512   5.131  18.547  0.00  0.00    +0.000 A 
ATOM     11  H   UNL     1       7.454   3.719  18.471  0.00  0.00    +0.000 HD
ENDROOT
BRANCH   9  12
ATOM     12  C   UNL     1       2.353   4.457  19.699  0.00  0.00    +0.000 A 
ATOM     13  C   UNL     1       1.206   3.736  19.402  0.00  0.00    +0.000 A 
ATOM     14  C   UNL     1       0.785   3.053  20.570  0.00  0.00    +0.000 A 
ATOM     15  C   UNL     1       1.691   3.352  21.558  0.00  0.00    +0.000 A 
ATOM     16  N   UNL     1       2.627   4.194  21.027  0.00  0.00    +0.000 N 
ATOM     17  H   UNL     1       3.368   4.641  21.558  0.00  0.00    +0.000 HD
ENDBRANCH   9  12
TORSDOF 1
ENDMDL
MODEL 5
REMARK VINA RESULT:      -6.7      1.538      4.467
REMARK  Name = 
REMARK  1 active torsions:
REMARK  status: ('A' for Active; 'I' for Inactive)
REMARK    1  A    between atoms: C_9  and  C_10
REMARK                            x       y       z     vdW  Elec       q    Type
REMARK                         _______ _______ _______ _____ _____    ______ ____
ROOT
ATOM      1  O   UNL     1       4.071   2.382  17.613  0.00  0.00    +0.000 OA
ATOM      2  C   UNL     1       4.541   3.416  17.183  0.00  0.00    +0.000 C 
ATOM      3  N   UNL     1       5.604   3.490  16.314  0.00  0.00    +0.000 N 
ATOM      4  C   UNL     1       5.890   4.831  15.885  0.00  0.00    +0.000 C 
ATOM      5  C   UNL     1       4.889   5.633  16.648  0.00  0.00    +0.000 A 
ATOM      6  C   UNL     1       4.715   7.004  16.641  0.00  0.00    +0.000 A 
ATOM      7  C   UNL     1       3.710   7.538  17.446  0.00  0.00    +0.000 A 
ATOM      8  C   UNL     1       2.903   6.699  18.240  0.00  0.00    +0.000 A 
ATOM      9  C   UNL     1       3.067   5.299  18.255  0.00  0.00    +0.000 A 
ATOM     10  C   UNL     1       4.077   4.798  17.434  0.00  0.00    +0.000 A 
ATOM     11  H   UNL     1       6.067   2.653  15.985  0.00  0.00    +0.000 HD
ENDROOT
BRANCH   9  12
ATOM     12  C   UNL     1       2.201   4.481  19.115  0.00  0.00    +0.000 A 
ATOM     13  C   UNL     1       2.016   4.495  20.490  0.00  0.00    +0.000 A 
ATOM     14  C   UNL     1       1.088   3.481  20.832  0.00  0.00    +0.000 A 
ATOM     15  C   UNL     1       0.706   2.875  19.661  0.00  0.00    +0.000 A 
ATOM     16  N   UNL     1       1.378   3.480  18.637  0.00  0.00    +0.000 N 
ATOM     17  H   UNL     1       1.349   3.177  17.668  0.00  0.00    +0.000 HD
ENDBRANCH   9  12
TORSDOF 1
ENDMDL
MODEL 6
REMARK VINA RESULT:      -6.7      0.984      1.100
REMARK  Name = 
REMARK  1 active torsions:
REMARK  status: ('A' for Active; 'I' for Inactive)
REMARK    1  A    between atoms: C_9  and  C_10
REMARK                            x       y       z     vdW  Elec       q    Type
REMARK                         _______ _______ _______ _____ _____    ______ ____
ROOT
ATOM      1  O   UNL     1       3.713   1.629  17.799  0.00  0.00    +0.000 OA
ATOM      2  C   UNL     1       2.868   2.220  18.441  0.00  0.00    +0.000 C 
ATOM      3  N   UNL     1       1.711   1.652  18.922  0.00  0.00    +0.000 N 
ATOM      4  C   UNL     1       0.938   2.548  19.736  0.00  0.00    +0.000 C 
ATOM      5  C   UNL     1       1.734   3.809  19.671  0.00  0.00    +0.000 A 
ATOM      6  C   UNL     1       1.449   5.026  20.261  0.00  0.00    +0.000 A 
ATOM      7  C   UNL     1       2.343   6.076  20.056  0.00  0.00    +0.000 A 
ATOM      8  C   UNL     1       3.498   5.893  19.269  0.00  0.00    +0.000 A 
ATOM      9  C   UNL     1       3.803   4.658  18.665  0.00  0.00    +0.000 A 
ATOM     10  C   UNL     1       2.892   3.628  18.894  0.00  0.00    +0.000 A 
ATOM     11  H   UNL     1       1.499   0.679  18.749  0.00  0.00    +0.000 HD
ENDROOT
BRANCH   9  12
ATOM     12  C   UNL     1       5.017   4.536  17.845  0.00  0.00    +0.000 A 
ATOM     13  C   UNL     1       6.352   4.730  18.170  0.00  0.00    +0.000 A 
ATOM     14  C   UNL     1       7.136   4.514  17.011  0.00  0.00    +0.000 A 
ATOM     15  C   UNL     1       6.272   4.174  15.999  0.00  0.00    +0.000 A 
ATOM     16  N   UNL     1       5.004   4.189  16.508  0.00  0.00    +0.000 N 
ATOM     17  H   UNL     1       4.160   4.057  15.960  0.00  0.00    +0.000 HD
ENDBRANCH   9  12
TORSDOF 1
ENDMDL
MODEL 7
REMARK VINA RESULT:      -6.6      1.754      4.249
REMARK  Name = 
REMARK  1 active torsions:
REMARK  status: ('A' for Active; 'I' for Inactive)
REMARK    1  A    between atoms: C_9  and  C_10
REMARK                            x       y       z     vdW  Elec       q    Type
REMARK                         _______ _______ _______ _____ _____    ______ ____
ROOT
ATOM      1  O   UNL     1       4.103   2.291  17.868  0.00  0.00    +0.000 OA
ATOM      2  C   UNL     1       4.400   3.373  17.402  0.00  0.00    +0.000 C 
ATOM      3  N   UNL     1       5.272   3.562  16.356  0.00  0.00    +0.000 N 
ATOM      4  C   UNL     1       5.364   4.933  15.938  0.00  0.00    +0.000 C 
ATOM      5  C   UNL     1       4.463   5.625  16.906  0.00  0.00    +0.000 A 
ATOM      6  C   UNL     1       4.181   6.976  16.989  0.00  0.00    +0.000 A 
ATOM      7  C   UNL     1       3.306   7.399  17.987  0.00  0.00    +0.000 A 
ATOM      8  C   UNL     1       2.731   6.473  18.880  0.00  0.00    +0.000 A 
ATOM      9  C   UNL     1       3.007   5.093  18.806  0.00  0.00    +0.000 A 
ATOM     10  C   UNL     1       3.881   4.703  17.793  0.00  0.00    +0.000 A 
ATOM     11  H   UNL     1       5.730   2.777  15.913  0.00  0.00    +0.000 HD
ENDROOT
BRANCH   9  12
ATOM     12  C   UNL     1       2.386   4.180  19.775  0.00  0.00    +0.000 A 
ATOM     13  C   UNL     1       1.050   3.909  20.037  0.00  0.00    +0.000 A 
ATOM     14  C   UNL     1       0.978   2.969  21.093  0.00  0.00    +0.000 A 
ATOM     15  C   UNL     1       2.269   2.665  21.449  0.00  0.00    +0.000 A 
ATOM     16  N   UNL     1       3.106   3.395  20.654  0.00  0.00    +0.000 N 
ATOM     17  H   UNL     1       4.115   3.430  20.757  0.00  0.00    +0.000 HD
ENDBRANCH   9  12
TORSDOF 1
ENDMDL
MODEL 8
REMARK VINA RESULT:      -6.5      2.293      3.629
REMARK  Name = 
REMARK  1 active torsions:
REMARK  status: ('A' for Active; 'I' for Inactive)
REMARK    1  A    between atoms: C_9  and  C_10
REMARK                            x       y       z     vdW  Elec       q    Type
REMARK                         _______ _______ _______ _____ _____    ______ ____
ROOT
ATOM      1  O   UNL     1       5.181   5.433  18.735  0.00  0.00    +0.000 OA
ATOM      2  C   UNL     1       4.704   4.416  19.198  0.00  0.00    +0.000 C 
ATOM      3  N   UNL     1       5.375   3.223  19.322  0.00  0.00    +0.000 N 
ATOM      4  C   UNL     1       4.610   2.212  19.996  0.00  0.00    +0.000 C 
ATOM      5  C   UNL     1       3.312   2.904  20.246  0.00  0.00    +0.000 A 
ATOM      6  C   UNL     1       2.179   2.396  20.854  0.00  0.00    +0.000 A 
ATOM      7  C   UNL     1       1.072   3.233  20.974  0.00  0.00    +0.000 A 
ATOM      8  C   UNL     1       1.113   4.554  20.486  0.00  0.00    +0.000 A 
ATOM      9  C   UNL     1       2.260   5.087  19.867  0.00  0.00    +0.000 A 
ATOM     10  C   UNL     1       3.352   4.226  19.768  0.00  0.00    +0.000 A 
ATOM     11  H   UNL     1       6.334   3.131  19.014  0.00  0.00    +0.000 HD
ENDROOT
BRANCH   9  12
ATOM     12  C   UNL     1       2.235   6.469  19.368  0.00  0.00    +0.000 A 
ATOM     13  C   UNL     1       1.903   7.657  20.005  0.00  0.00    +0.000 A 
ATOM     14  C   UNL     1       2.012   8.717  19.073  0.00  0.00    +0.000 A 
ATOM     15  C   UNL     1       2.425   8.165  17.885  0.00  0.00    +0.000 A 
ATOM     16  N   UNL     1       2.556   6.819  18.071  0.00  0.00    +0.000 N 
ATOM     17  H   UNL     1       2.768   6.152  17.335  0.00  0.00    +0.000 HD
ENDBRANCH   9  12
TORSDOF 1
ENDMDL
MODEL 9
REMARK VINA RESULT:      -6.5      0.829      1.004
REMARK  Name = 
REMARK  1 active torsions:
REMARK  status: ('A' for Active; 'I' for Inactive)
REMARK    1  A    between atoms: C_9  and  C_10
REMARK                            x       y       z     vdW  Elec       q    Type
REMARK                         _______ _______ _______ _____ _____    ______ ____
ROOT
ATOM      1  O   UNL     1       4.172   2.564  17.219  0.00  0.00    +0.000 OA
ATOM      2  C   UNL     1       3.155   2.710  17.867  0.00  0.00    +0.000 C 
ATOM      3  N   UNL     1       2.094   1.834  17.867  0.00  0.00    +0.000 N 
ATOM      4  C   UNL     1       1.065   2.195  18.801  0.00  0.00    +0.000 C 
ATOM      5  C   UNL     1       1.583   3.471  19.374  0.00  0.00    +0.000 A 
ATOM      6  C   UNL     1       0.986   4.284  20.320  0.00  0.00    +0.000 A 
ATOM      7  C   UNL     1       1.660   5.442  20.704  0.00  0.00    +0.000 A 
ATOM      8  C   UNL     1       2.909   5.767  20.140  0.00  0.00    +0.000 A 
ATOM      9  C   UNL     1       3.531   4.948  19.177  0.00  0.00    +0.000 A 
ATOM     10  C   UNL     1       2.834   3.795  18.820  0.00  0.00    +0.000 A 
ATOM     11  H   UNL     1       2.110   0.998  17.298  0.00  0.00    +0.000 HD
ENDROOT
BRANCH   9  12
ATOM     12  C   UNL     1       4.829   5.350  18.618  0.00  0.00    +0.000 A 
ATOM     13  C   UNL     1       6.092   5.385  19.193  0.00  0.00    +0.000 A 
ATOM     14  C   UNL     1       7.011   5.880  18.236  0.00  0.00    +0.000 A 
ATOM     15  C   UNL     1       6.302   6.124  17.086  0.00  0.00    +0.000 A 
ATOM     16  N   UNL     1       4.995   5.804  17.324  0.00  0.00    +0.000 N 
ATOM     17  H   UNL     1       4.233   5.965  16.672  0.00  0.00    +0.000 HD
ENDBRANCH   9  12
TORSDOF 1
ENDMDL
