MODEL 1
REMARK VINA RESULT:      -7.9      0.000      0.000
REMARK  Name = 
REMARK  4 active torsions:
REMARK  status: ('A' for Active; 'I' for Inactive)
REMARK    1  A    between atoms: C_1  and  C_2
REMARK    2  A    between atoms: C_5  and  C_6
REMARK    3  A    between atoms: C_10  and  C_12
REMARK    4  A    between atoms: C_16  and  C_17
REMARK                            x       y       z     vdW  Elec       q    Type
REMARK                         _______ _______ _______ _____ _____    ______ ____
ROOT
ATOM      1  C   UNL     1       6.742   5.577  15.991  0.00  0.00    +0.000 A 
ATOM      2  S   UNL     1       7.691   5.063  14.643  0.00  0.00    +0.000 S 
ATOM      3  C   UNL     1       6.349   4.204  14.043  0.00  0.00    +0.000 A 
ATOM      4  N   UNL     1       6.542   3.535  12.864  0.00  0.00    +0.000 N 
ATOM      5  C   UNL     1       5.473   2.974  12.209  0.00  0.00    +0.000 C 
ATOM      6  O   UNL     1       4.288   3.067  12.508  0.00  0.00    +0.000 OA
ATOM      7  N   UNL     1       5.267   4.253  14.765  0.00  0.00    +0.000 NA
ATOM      8  C   UNL     1       5.463   5.048  15.882  0.00  0.00    +0.000 A 
ATOM      9  H   UNL     1       7.477   3.487  12.493  0.00  0.00    +0.000 HD
ENDROOT
BRANCH   1  14
ATOM     10  C   UNL     1       8.537   9.391  18.392  0.00  0.00    +0.000 C 
ATOM     11  C   UNL     1       8.122   8.010  18.087  0.00  0.00    +0.000 A 
ATOM     12  N   UNL     1       8.262   6.991  18.943  0.00  0.00    +0.000 NA
ATOM     13  O   UNL     1       7.710   5.913  18.246  0.00  0.00    +0.000 OA
ATOM     14  C   UNL     1       7.308   6.390  17.022  0.00  0.00    +0.000 A 
ATOM     15  N   UNL     1       7.539   7.681  16.895  0.00  0.00    +0.000 NA
ENDBRANCH   1  14
BRANCH   8  16
ATOM     16  C   UNL     1       4.349   5.241  16.808  0.00  0.00    +0.000 A 
ATOM     17  C   UNL     1       3.575   4.131  17.181  0.00  0.00    +0.000 A 
ATOM     18  C   UNL     1       2.502   4.273  18.064  0.00  0.00    +0.000 A 
ATOM     19  C   UNL     1       2.189   5.526  18.584  0.00  0.00    +0.000 A 
ATOM     20  C   UNL     1       2.934   6.639  18.204  0.00  0.00    +0.000 A 
ATOM     21  C   UNL     1       3.996   6.501  17.307  0.00  0.00    +0.000 A 
ENDBRANCH   8  16
BRANCH   5  22
ATOM     22  C   UNL     1       5.844   2.157  11.012  0.00  0.00    +0.000 C 
ATOM     23  C   UNL     1       7.255   1.616  10.922  0.00  0.00    +0.000 C 
ATOM     24  C   UNL     1       6.113   0.674  11.168  0.00  0.00    +0.000 C 
ENDBRANCH   5  22
TORSDOF 3
ENDMDL
MODEL 2
REMARK VINA RESULT:      -7.9      0.082      1.007
REMARK  Name = 
REMARK  4 active torsions:
REMARK  status: ('A' for Active; 'I' for Inactive)
REMARK    1  A    between atoms: C_1  and  C_2
REMARK    2  A    between atoms: C_5  and  C_6
REMARK    3  A    between atoms: C_10  and  C_12
REMARK    4  A    between atoms: C_16  and  C_17
REMARK                            x       y       z     vdW  Elec       q    Type
REMARK                         _______ _______ _______ _____ _____    ______ ____
ROOT
ATOM      1  C   UNL     1       6.736   5.578  15.995  0.00  0.00    +0.000 A 
ATOM      2  S   UNL     1       7.686   5.052  14.652  0.00  0.00    +0.000 S 
ATOM      3  C   UNL     1       6.339   4.204  14.048  0.00  0.00    +0.000 A 
ATOM      4  N   UNL     1       6.531   3.530  12.872  0.00  0.00    +0.000 N 
ATOM      5  C   UNL     1       5.459   2.977  12.214  0.00  0.00    +0.000 C 
ATOM      6  O   UNL     1       4.274   3.081  12.508  0.00  0.00    +0.000 OA
ATOM      7  N   UNL     1       5.254   4.264  14.766  0.00  0.00    +0.000 NA
ATOM      8  C   UNL     1       5.453   5.061  15.881  0.00  0.00    +0.000 A 
ATOM      9  H   UNL     1       7.467   3.473  12.505  0.00  0.00    +0.000 HD
ENDROOT
BRANCH   1  14
ATOM     10  C   UNL     1       8.537   9.387  18.399  0.00  0.00    +0.000 C 
ATOM     11  C   UNL     1       8.121   8.007  18.092  0.00  0.00    +0.000 A 
ATOM     12  N   UNL     1       8.265   6.986  18.945  0.00  0.00    +0.000 NA
ATOM     13  O   UNL     1       7.711   5.909  18.247  0.00  0.00    +0.000 OA
ATOM     14  C   UNL     1       7.305   6.389  17.026  0.00  0.00    +0.000 A 
ATOM     15  N   UNL     1       7.535   7.680  16.902  0.00  0.00    +0.000 NA
ENDBRANCH   1  14
BRANCH   8  16
ATOM     16  C   UNL     1       4.337   5.265  16.803  0.00  0.00    +0.000 A 
ATOM     17  C   UNL     1       4.055   6.565  17.251  0.00  0.00    +0.000 A 
ATOM     18  C   UNL     1       2.997   6.802  18.132  0.00  0.00    +0.000 A 
ATOM     19  C   UNL     1       2.210   5.744  18.577  0.00  0.00    +0.000 A 
ATOM     20  C   UNL     1       2.493   4.447  18.159  0.00  0.00    +0.000 A 
ATOM     21  C   UNL     1       3.562   4.206  17.292  0.00  0.00    +0.000 A 
ENDBRANCH   8  16
BRANCH   5  22
ATOM     22  C   UNL     1       5.828   2.153  11.021  0.00  0.00    +0.000 C 
ATOM     23  C   UNL     1       7.241   1.619  10.928  0.00  0.00    +0.000 C 
ATOM     24  C   UNL     1       6.105   0.673  11.186  0.00  0.00    +0.000 C 
ENDBRANCH   5  22
TORSDOF 3
ENDMDL
MODEL 3
REMARK VINA RESULT:      -7.6      2.648      6.517
REMARK  Name = 
REMARK  4 active torsions:
REMARK  status: ('A' for Active; 'I' for Inactive)
REMARK    1  A    between atoms: C_1  and  C_2
REMARK    2  A    between atoms: C_5  and  C_6
REMARK    3  A    between atoms: C_10  and  C_12
REMARK    4  A    between atoms: C_16  and  C_17
REMARK                            x       y       z     vdW  Elec       q    Type
REMARK                         _______ _______ _______ _____ _____    ______ ____
ROOT
ATOM      1  C   UNL     1       5.380   4.901  16.353  0.00  0.00    +0.000 A 
ATOM      2  S   UNL     1       3.999   3.873  16.485  0.00  0.00    +0.000 S 
ATOM      3  C   UNL     1       3.712   4.480  18.050  0.00  0.00    +0.000 A 
ATOM      4  N   UNL     1       2.623   3.969  18.703  0.00  0.00    +0.000 N 
ATOM      5  C   UNL     1       2.204   4.531  19.885  0.00  0.00    +0.000 C 
ATOM      6  O   UNL     1       2.647   5.537  20.425  0.00  0.00    +0.000 OA
ATOM      7  N   UNL     1       4.563   5.364  18.486  0.00  0.00    +0.000 NA
ATOM      8  C   UNL     1       5.521   5.634  17.524  0.00  0.00    +0.000 A 
ATOM      9  H   UNL     1       2.138   3.194  18.281  0.00  0.00    +0.000 HD
ENDROOT
BRANCH   1  14
ATOM     10  C   UNL     1       7.066   3.890  11.918  0.00  0.00    +0.000 C 
ATOM     11  C   UNL     1       6.982   4.447  13.281  0.00  0.00    +0.000 A 
ATOM     12  N   UNL     1       7.928   5.225  13.819  0.00  0.00    +0.000 NA
ATOM     13  O   UNL     1       7.408   5.530  15.080  0.00  0.00    +0.000 OA
ATOM     14  C   UNL     1       6.201   4.884  15.183  0.00  0.00    +0.000 A 
ATOM     15  N   UNL     1       5.904   4.215  14.087  0.00  0.00    +0.000 NA
ENDBRANCH   1  14
BRANCH   8  16
ATOM     16  C   UNL     1       6.556   6.622  17.824  0.00  0.00    +0.000 A 
ATOM     17  C   UNL     1       7.572   6.288  18.731  0.00  0.00    +0.000 A 
ATOM     18  C   UNL     1       8.579   7.203  19.044  0.00  0.00    +0.000 A 
ATOM     19  C   UNL     1       8.582   8.465  18.456  0.00  0.00    +0.000 A 
ATOM     20  C   UNL     1       7.565   8.818  17.572  0.00  0.00    +0.000 A 
ATOM     21  C   UNL     1       6.548   7.909  17.272  0.00  0.00    +0.000 A 
ENDBRANCH   8  16
BRANCH   5  22
ATOM     22  C   UNL     1       1.092   3.790  20.558  0.00  0.00    +0.000 C 
ATOM     23  C   UNL     1       0.907   2.324  20.232  0.00  0.00    +0.000 C 
ATOM     24  C   UNL     1       1.414   2.725  21.587  0.00  0.00    +0.000 C 
ENDBRANCH   5  22
TORSDOF 3
ENDMDL
MODEL 4
REMARK VINA RESULT:      -7.6      2.657      6.570
REMARK  Name = 
REMARK  4 active torsions:
REMARK  status: ('A' for Active; 'I' for Inactive)
REMARK    1  A    between atoms: C_1  and  C_2
REMARK    2  A    between atoms: C_5  and  C_6
REMARK    3  A    between atoms: C_10  and  C_12
REMARK    4  A    between atoms: C_16  and  C_17
REMARK                            x       y       z     vdW  Elec       q    Type
REMARK                         _______ _______ _______ _____ _____    ______ ____
ROOT
ATOM      1  C   UNL     1       5.392   4.924  16.404  0.00  0.00    +0.000 A 
ATOM      2  S   UNL     1       4.013   3.894  16.544  0.00  0.00    +0.000 S 
ATOM      3  C   UNL     1       3.732   4.506  18.108  0.00  0.00    +0.000 A 
ATOM      4  N   UNL     1       2.645   3.996  18.767  0.00  0.00    +0.000 N 
ATOM      5  C   UNL     1       2.230   4.560  19.948  0.00  0.00    +0.000 C 
ATOM      6  O   UNL     1       2.674   5.569  20.485  0.00  0.00    +0.000 OA
ATOM      7  N   UNL     1       4.583   5.392  18.539  0.00  0.00    +0.000 NA
ATOM      8  C   UNL     1       5.537   5.660  17.572  0.00  0.00    +0.000 A 
ATOM      9  H   UNL     1       2.159   3.219  18.349  0.00  0.00    +0.000 HD
ENDROOT
BRANCH   1  14
ATOM     10  C   UNL     1       7.055   3.914  11.960  0.00  0.00    +0.000 C 
ATOM     11  C   UNL     1       6.980   4.468  13.324  0.00  0.00    +0.000 A 
ATOM     12  N   UNL     1       7.934   5.236  13.861  0.00  0.00    +0.000 NA
ATOM     13  O   UNL     1       7.421   5.542  15.126  0.00  0.00    +0.000 OA
ATOM     14  C   UNL     1       6.209   4.904  15.231  0.00  0.00    +0.000 A 
ATOM     15  N   UNL     1       5.903   4.241  14.134  0.00  0.00    +0.000 NA
ENDBRANCH   1  14
BRANCH   8  16
ATOM     16  C   UNL     1       6.571   6.650  17.865  0.00  0.00    +0.000 A 
ATOM     17  C   UNL     1       6.499   7.912  17.255  0.00  0.00    +0.000 A 
ATOM     18  C   UNL     1       7.468   8.885  17.509  0.00  0.00    +0.000 A 
ATOM     19  C   UNL     1       8.522   8.609  18.375  0.00  0.00    +0.000 A 
ATOM     20  C   UNL     1       8.620   7.353  18.969  0.00  0.00    +0.000 A 
ATOM     21  C   UNL     1       7.660   6.374  18.701  0.00  0.00    +0.000 A 
ENDBRANCH   8  16
BRANCH   5  22
ATOM     22  C   UNL     1       1.122   3.821  20.628  0.00  0.00    +0.000 C 
ATOM     23  C   UNL     1       0.876   2.379  20.236  0.00  0.00    +0.000 C 
ATOM     24  C   UNL     1       1.448   2.694  21.588  0.00  0.00    +0.000 C 
ENDBRANCH   5  22
TORSDOF 3
ENDMDL
MODEL 5
REMARK VINA RESULT:      -7.5      3.510      7.245
REMARK  Name = 
REMARK  4 active torsions:
REMARK  status: ('A' for Active; 'I' for Inactive)
REMARK    1  A    between atoms: C_1  and  C_2
REMARK    2  A    between atoms: C_5  and  C_6
REMARK    3  A    between atoms: C_10  and  C_12
REMARK    4  A    between atoms: C_16  and  C_17
REMARK                            x       y       z     vdW  Elec       q    Type
REMARK                         _______ _______ _______ _____ _____    ______ ____
ROOT
ATOM      1  C   UNL     1       4.280   6.332  17.236  0.00  0.00    +0.000 A 
ATOM      2  S   UNL     1       3.878   8.008  17.343  0.00  0.00    +0.000 S 
ATOM      3  C   UNL     1       2.740   7.645  18.556  0.00  0.00    +0.000 A 
ATOM      4  N   UNL     1       2.051   8.709  19.071  0.00  0.00    +0.000 N 
ATOM      5  C   UNL     1       1.254   8.541  20.178  0.00  0.00    +0.000 C 
ATOM      6  O   UNL     1       1.132   7.528  20.858  0.00  0.00    +0.000 OA
ATOM      7  N   UNL     1       2.621   6.387  18.873  0.00  0.00    +0.000 NA
ATOM      8  C   UNL     1       3.506   5.615  18.139  0.00  0.00    +0.000 A 
ATOM      9  H   UNL     1       2.163   9.606  18.629  0.00  0.00    +0.000 HD
ENDROOT
BRANCH   1  14
ATOM     10  C   UNL     1       6.375   3.907  13.594  0.00  0.00    +0.000 C 
ATOM     11  C   UNL     1       6.203   4.813  14.744  0.00  0.00    +0.000 A 
ATOM     12  N   UNL     1       7.198   5.536  15.268  0.00  0.00    +0.000 NA
ATOM     13  O   UNL     1       6.567   6.250  16.292  0.00  0.00    +0.000 OA
ATOM     14  C   UNL     1       5.248   5.866  16.293  0.00  0.00    +0.000 A 
ATOM     15  N   UNL     1       4.988   4.988  15.346  0.00  0.00    +0.000 NA
ENDBRANCH   1  14
BRANCH   8  16
ATOM     16  C   UNL     1       3.534   4.172  18.370  0.00  0.00    +0.000 A 
ATOM     17  C   UNL     1       2.701   3.343  17.604  0.00  0.00    +0.000 A 
ATOM     18  C   UNL     1       2.698   1.960  17.794  0.00  0.00    +0.000 A 
ATOM     19  C   UNL     1       3.527   1.387  18.755  0.00  0.00    +0.000 A 
ATOM     20  C   UNL     1       4.342   2.200  19.539  0.00  0.00    +0.000 A 
ATOM     21  C   UNL     1       4.332   3.585  19.361  0.00  0.00    +0.000 A 
ENDBRANCH   8  16
BRANCH   5  22
ATOM     22  C   UNL     1       0.453   9.749  20.549  0.00  0.00    +0.000 C 
ATOM     23  C   UNL     1       0.531  10.964  19.650  0.00  0.00    +0.000 C 
ATOM     24  C   UNL     1      -0.732  10.155  19.698  0.00  0.00    +0.000 C 
ENDBRANCH   5  22
TORSDOF 3
ENDMDL
MODEL 6
REMARK VINA RESULT:      -7.4      3.523      7.279
REMARK  Name = 
REMARK  4 active torsions:
REMARK  status: ('A' for Active; 'I' for Inactive)
REMARK    1  A    between atoms: C_1  and  C_2
REMARK    2  A    between atoms: C_5  and  C_6
REMARK    3  A    between atoms: C_10  and  C_12
REMARK    4  A    between atoms: C_16  and  C_17
REMARK                            x       y       z     vdW  Elec       q    Type
REMARK                         _______ _______ _______ _____ _____    ______ ____
ROOT
ATOM      1  C   UNL     1       4.253   6.319  17.249  0.00  0.00    +0.000 A 
ATOM      2  S   UNL     1       3.857   7.996  17.369  0.00  0.00    +0.000 S 
ATOM      3  C   UNL     1       2.716   7.626  18.578  0.00  0.00    +0.000 A 
ATOM      4  N   UNL     1       2.028   8.688  19.100  0.00  0.00    +0.000 N 
ATOM      5  C   UNL     1       1.230   8.513  20.204  0.00  0.00    +0.000 C 
ATOM      6  O   UNL     1       1.104   7.496  20.876  0.00  0.00    +0.000 OA
ATOM      7  N   UNL     1       2.593   6.366  18.884  0.00  0.00    +0.000 NA
ATOM      8  C   UNL     1       3.477   5.597  18.145  0.00  0.00    +0.000 A 
ATOM      9  H   UNL     1       2.144   9.589  18.665  0.00  0.00    +0.000 HD
ENDROOT
BRANCH   1  14
ATOM     10  C   UNL     1       6.350   3.909  13.599  0.00  0.00    +0.000 C 
ATOM     11  C   UNL     1       6.177   4.812  14.751  0.00  0.00    +0.000 A 
ATOM     12  N   UNL     1       7.172   5.536  15.276  0.00  0.00    +0.000 NA
ATOM     13  O   UNL     1       6.540   6.245  16.302  0.00  0.00    +0.000 OA
ATOM     14  C   UNL     1       5.222   5.858  16.304  0.00  0.00    +0.000 A 
ATOM     15  N   UNL     1       4.963   4.982  15.355  0.00  0.00    +0.000 NA
ENDBRANCH   1  14
BRANCH   8  16
ATOM     16  C   UNL     1       3.500   4.153  18.365  0.00  0.00    +0.000 A 
ATOM     17  C   UNL     1       4.337   3.630  19.364  0.00  0.00    +0.000 A 
ATOM     18  C   UNL     1       4.388   2.256  19.605  0.00  0.00    +0.000 A 
ATOM     19  C   UNL     1       3.606   1.386  18.851  0.00  0.00    +0.000 A 
ATOM     20  C   UNL     1       2.789   1.888  17.841  0.00  0.00    +0.000 A 
ATOM     21  C   UNL     1       2.751   3.261  17.587  0.00  0.00    +0.000 A 
ENDBRANCH   8  16
BRANCH   5  22
ATOM     22  C   UNL     1       0.432   9.721  20.584  0.00  0.00    +0.000 C 
ATOM     23  C   UNL     1       0.591  10.976  19.752  0.00  0.00    +0.000 C 
ATOM     24  C   UNL     1      -0.689  10.195  19.682  0.00  0.00    +0.000 C 
ENDBRANCH   5  22
TORSDOF 3
ENDMDL
MODEL 7
REMARK VINA RESULT:      -7.3      4.371      7.901
REMARK  Name = 
REMARK  4 active torsions:
REMARK  status: ('A' for Active; 'I' for Inactive)
REMARK    1  A    between atoms: C_1  and  C_2
REMARK    2  A    between atoms: C_5  and  C_6
REMARK    3  A    between atoms: C_10  and  C_12
REMARK    4  A    between atoms: C_16  and  C_17
REMARK                            x       y       z     vdW  Elec       q    Type
REMARK                         _______ _______ _______ _____ _____    ______ ____
ROOT
ATOM      1  C   UNL     1       3.170   6.487  18.294  0.00  0.00    +0.000 A 
ATOM      2  S   UNL     1       3.068   8.153  17.851  0.00  0.00    +0.000 S 
ATOM      3  C   UNL     1       1.828   8.369  18.996  0.00  0.00    +0.000 A 
ATOM      4  N   UNL     1       1.314   9.634  19.095  0.00  0.00    +0.000 N 
ATOM      5  C   UNL     1       0.449   9.947  20.115  0.00  0.00    +0.000 C 
ATOM      6  O   UNL     1       0.118   9.231  21.053  0.00  0.00    +0.000 OA
ATOM      7  N   UNL     1       1.472   7.309  19.664  0.00  0.00    +0.000 NA
ATOM      8  C   UNL     1       2.240   6.219  19.290  0.00  0.00    +0.000 A 
ATOM      9  H   UNL     1       1.605  10.319  18.416  0.00  0.00    +0.000 HD
ENDROOT
BRANCH   1  14
ATOM     10  C   UNL     1       7.264   4.545  16.563  0.00  0.00    +0.000 C 
ATOM     11  C   UNL     1       5.831   4.747  16.844  0.00  0.00    +0.000 A 
ATOM     12  N   UNL     1       4.869   3.936  16.390  0.00  0.00    +0.000 NA
ATOM     13  O   UNL     1       3.705   4.494  16.926  0.00  0.00    +0.000 OA
ATOM     14  C   UNL     1       4.084   5.605  17.638  0.00  0.00    +0.000 A 
ATOM     15  N   UNL     1       5.389   5.785  17.615  0.00  0.00    +0.000 NA
ENDBRANCH   1  14
BRANCH   8  16
ATOM     16  C   UNL     1       2.000   4.936  19.947  0.00  0.00    +0.000 A 
ATOM     17  C   UNL     1       1.241   3.961  19.282  0.00  0.00    +0.000 A 
ATOM     18  C   UNL     1       0.989   2.723  19.875  0.00  0.00    +0.000 A 
ATOM     19  C   UNL     1       1.493   2.443  21.143  0.00  0.00    +0.000 A 
ATOM     20  C   UNL     1       2.228   3.409  21.825  0.00  0.00    +0.000 A 
ATOM     21  C   UNL     1       2.464   4.654  21.238  0.00  0.00    +0.000 A 
ENDBRANCH   8  16
BRANCH   5  22
ATOM     22  C   UNL     1      -0.141  11.319  20.023  0.00  0.00    +0.000 C 
ATOM     23  C   UNL     1      -0.221  11.974  18.660  0.00  0.00    +0.000 C 
ATOM     24  C   UNL     1      -1.479  11.517  19.340  0.00  0.00    +0.000 C 
ENDBRANCH   5  22
TORSDOF 3
ENDMDL
MODEL 8
REMARK VINA RESULT:      -7.3      4.368      7.902
REMARK  Name = 
REMARK  4 active torsions:
REMARK  status: ('A' for Active; 'I' for Inactive)
REMARK    1  A    between atoms: C_1  and  C_2
REMARK    2  A    between atoms: C_5  and  C_6
REMARK    3  A    between atoms: C_10  and  C_12
REMARK    4  A    between atoms: C_16  and  C_17
REMARK                            x       y       z     vdW  Elec       q    Type
REMARK                         _______ _______ _______ _____ _____    ______ ____
ROOT
ATOM      1  C   UNL     1       3.185   6.490  18.302  0.00  0.00    +0.000 A 
ATOM      2  S   UNL     1       3.099   8.162  17.877  0.00  0.00    +0.000 S 
ATOM      3  C   UNL     1       1.822   8.365  18.985  0.00  0.00    +0.000 A 
ATOM      4  N   UNL     1       1.307   9.629  19.083  0.00  0.00    +0.000 N 
ATOM      5  C   UNL     1       0.409   9.930  20.078  0.00  0.00    +0.000 C 
ATOM      6  O   UNL     1       0.046   9.202  20.995  0.00  0.00    +0.000 OA
ATOM      7  N   UNL     1       1.444   7.296  19.626  0.00  0.00    +0.000 NA
ATOM      8  C   UNL     1       2.223   6.210  19.263  0.00  0.00    +0.000 A 
ATOM      9  H   UNL     1       1.620  10.322  18.423  0.00  0.00    +0.000 HD
ENDROOT
BRANCH   1  14
ATOM     10  C   UNL     1       7.336   4.538  16.724  0.00  0.00    +0.000 C 
ATOM     11  C   UNL     1       5.893   4.755  16.934  0.00  0.00    +0.000 A 
ATOM     12  N   UNL     1       4.945   3.978  16.400  0.00  0.00    +0.000 NA
ATOM     13  O   UNL     1       3.762   4.537  16.893  0.00  0.00    +0.000 OA
ATOM     14  C   UNL     1       4.120   5.616  17.664  0.00  0.00    +0.000 A 
ATOM     15  N   UNL     1       5.427   5.773  17.718  0.00  0.00    +0.000 NA
ENDBRANCH   1  14
BRANCH   8  16
ATOM     16  C   UNL     1       1.961   4.919  19.895  0.00  0.00    +0.000 A 
ATOM     17  C   UNL     1       2.473   4.673  21.178  0.00  0.00    +0.000 A 
ATOM     18  C   UNL     1       2.245   3.452  21.817  0.00  0.00    +0.000 A 
ATOM     19  C   UNL     1       1.504   2.460  21.180  0.00  0.00    +0.000 A 
ATOM     20  C   UNL     1       1.011   2.681  19.896  0.00  0.00    +0.000 A 
ATOM     21  C   UNL     1       1.253   3.896  19.251  0.00  0.00    +0.000 A 
ENDBRANCH   8  16
BRANCH   5  22
ATOM     22  C   UNL     1      -0.177  11.303  19.985  0.00  0.00    +0.000 C 
ATOM     23  C   UNL     1      -0.106  12.023  18.655  0.00  0.00    +0.000 C 
ATOM     24  C   UNL     1      -1.430  11.532  19.164  0.00  0.00    +0.000 C 
ENDBRANCH   5  22
TORSDOF 3
ENDMDL
MODEL 9
REMARK VINA RESULT:      -7.2      3.016      4.335
REMARK  Name = 
REMARK  4 active torsions:
REMARK  status: ('A' for Active; 'I' for Inactive)
REMARK    1  A    between atoms: C_1  and  C_2
REMARK    2  A    between atoms: C_5  and  C_6
REMARK    3  A    between atoms: C_10  and  C_12
REMARK    4  A    between atoms: C_16  and  C_17
REMARK                            x       y       z     vdW  Elec       q    Type
REMARK                         _______ _______ _______ _____ _____    ______ ____
ROOT
ATOM      1  C   UNL     1       3.545   6.544  17.677  0.00  0.00    +0.000 A 
ATOM      2  S   UNL     1       4.638   7.301  16.574  0.00  0.00    +0.000 S 
ATOM      3  C   UNL     1       5.152   5.766  16.049  0.00  0.00    +0.000 A 
ATOM      4  N   UNL     1       6.110   5.755  15.071  0.00  0.00    +0.000 N 
ATOM      5  C   UNL     1       6.448   4.575  14.454  0.00  0.00    +0.000 C 
ATOM      6  O   UNL     1       5.921   3.479  14.608  0.00  0.00    +0.000 OA
ATOM      7  N   UNL     1       4.596   4.743  16.634  0.00  0.00    +0.000 NA
ATOM      8  C   UNL     1       3.658   5.165  17.561  0.00  0.00    +0.000 A 
ATOM      9  H   UNL     1       6.535   6.630  14.813  0.00  0.00    +0.000 HD
ENDROOT
BRANCH   1  14
ATOM     10  C   UNL     1       0.717  10.080  19.417  0.00  0.00    +0.000 C 
ATOM     11  C   UNL     1       1.526   8.849  19.357  0.00  0.00    +0.000 A 
ATOM     12  N   UNL     1       1.709   8.035  20.402  0.00  0.00    +0.000 NA
ATOM     13  O   UNL     1       2.497   7.010  19.871  0.00  0.00    +0.000 OA
ATOM     14  C   UNL     1       2.728   7.322  18.554  0.00  0.00    +0.000 A 
ATOM     15  N   UNL     1       2.135   8.445  18.202  0.00  0.00    +0.000 NA
ENDBRANCH   1  14
BRANCH   8  16
ATOM     16  C   UNL     1       2.911   4.156  18.309  0.00  0.00    +0.000 A 
ATOM     17  C   UNL     1       3.490   3.591  19.456  0.00  0.00    +0.000 A 
ATOM     18  C   UNL     1       2.809   2.624  20.199  0.00  0.00    +0.000 A 
ATOM     19  C   UNL     1       1.542   2.207  19.803  0.00  0.00    +0.000 A 
ATOM     20  C   UNL     1       0.965   2.741  18.653  0.00  0.00    +0.000 A 
ATOM     21  C   UNL     1       1.653   3.696  17.901  0.00  0.00    +0.000 A 
ENDBRANCH   8  16
BRANCH   5  22
ATOM     22  C   UNL     1       7.602   4.684  13.508  0.00  0.00    +0.000 C 
ATOM     23  C   UNL     1       7.453   4.089  12.124  0.00  0.00    +0.000 C 
ATOM     24  C   UNL     1       7.494   5.580  12.290  0.00  0.00    +0.000 C 
ENDBRANCH   5  22
TORSDOF 3
ENDMDL
