MODEL 1
REMARK VINA RESULT:      -6.6      0.000      0.000
REMARK  Name = 
REMARK  0 active torsions:
REMARK  status: ('A' for Active; 'I' for Inactive)
REMARK                            x       y       z     vdW  Elec       q    Type
REMARK                         _______ _______ _______ _____ _____    ______ ____
ROOT
ATOM      1  O   UNL     1       3.710   5.957  17.192  0.00  0.00    +0.000 OA
ATOM      2  C   UNL     1       3.156   6.055  18.282  0.00  0.00    +0.000 A 
ATOM      3  C   UNL     1       3.125   4.906  19.245  0.00  0.00    +0.000 A 
ATOM      4  C   UNL     1       2.451   5.066  20.405  0.00  0.00    +0.000 A 
ATOM      5  N   UNL     1       1.801   6.242  20.734  0.00  0.00    +0.000 N 
ATOM      6  C   UNL     1       1.832   7.371  19.909  0.00  0.00    +0.000 A 
ATOM      7  C   UNL     1       1.182   8.553  20.278  0.00  0.00    +0.000 A 
ATOM      8  C   UNL     1       1.212   9.661  19.427  0.00  0.00    +0.000 A 
ATOM      9 BR   UNL     1       0.334  11.256  19.940  0.00  0.00    +0.000 Br
ATOM     10  C   UNL     1       1.881   9.605  18.204  0.00  0.00    +0.000 A 
ATOM     11  C   UNL     1       2.522   8.427  17.824  0.00  0.00    +0.000 A 
ATOM     12  C   UNL     1       2.491   7.318  18.675  0.00  0.00    +0.000 A 
ATOM     13  C   UNL     1       2.343   3.955  21.433  0.00  0.00    +0.000 C 
ATOM     14  C   UNL     1       2.626   2.552  20.906  0.00  0.00    +0.000 C 
ATOM     15  S   UNL     1       4.240   2.502  20.094  0.00  0.00    +0.000 S 
ATOM     16  C   UNL     1       3.871   3.692  18.773  0.00  0.00    +0.000 C 
ATOM     17  H   UNL     1       1.379   6.321  21.652  0.00  0.00    +0.000 HD
ENDROOT
TORSDOF 0
ENDMDL
MODEL 2
REMARK VINA RESULT:      -6.6      4.609      5.647
REMARK  Name = 
REMARK  0 active torsions:
REMARK  status: ('A' for Active; 'I' for Inactive)
REMARK                            x       y       z     vdW  Elec       q    Type
REMARK                         _______ _______ _______ _____ _____    ______ ____
ROOT
ATOM      1  O   UNL     1       5.949   4.675  19.727  0.00  0.00    +0.000 OA
ATOM      2  C   UNL     1       5.192   4.471  18.784  0.00  0.00    +0.000 A 
ATOM      3  C   UNL     1       3.742   4.162  19.002  0.00  0.00    +0.000 A 
ATOM      4  C   UNL     1       2.978   3.896  17.920  0.00  0.00    +0.000 A 
ATOM      5  N   UNL     1       3.481   3.904  16.632  0.00  0.00    +0.000 N 
ATOM      6  C   UNL     1       4.810   4.235  16.349  0.00  0.00    +0.000 A 
ATOM      7  C   UNL     1       5.285   4.254  15.033  0.00  0.00    +0.000 A 
ATOM      8  C   UNL     1       6.622   4.570  14.779  0.00  0.00    +0.000 A 
ATOM      9 BR   UNL     1       7.251   4.598  12.995  0.00  0.00    +0.000 Br
ATOM     10  C   UNL     1       7.499   4.863  15.823  0.00  0.00    +0.000 A 
ATOM     11  C   UNL     1       7.036   4.835  17.138  0.00  0.00    +0.000 A 
ATOM     12  C   UNL     1       5.698   4.518  17.393  0.00  0.00    +0.000 A 
ATOM     13  C   UNL     1       1.506   3.549  18.040  0.00  0.00    +0.000 C 
ATOM     14  C   UNL     1       1.058   3.078  19.420  0.00  0.00    +0.000 C 
ATOM     15  S   UNL     1       1.523   4.292  20.676  0.00  0.00    +0.000 S 
ATOM     16  C   UNL     1       3.321   4.190  20.443  0.00  0.00    +0.000 C 
ATOM     17  H   UNL     1       2.838   3.769  15.860  0.00  0.00    +0.000 HD
ENDROOT
TORSDOF 0
ENDMDL
MODEL 3
REMARK VINA RESULT:      -6.6      3.927      5.001
REMARK  Name = 
REMARK  0 active torsions:
REMARK  status: ('A' for Active; 'I' for Inactive)
REMARK                            x       y       z     vdW  Elec       q    Type
REMARK                         _______ _______ _______ _____ _____    ______ ____
ROOT
ATOM      1  O   UNL     1       3.205   6.864  18.636  0.00  0.00    +0.000 OA
ATOM      2  C   UNL     1       3.590   5.727  18.388  0.00  0.00    +0.000 A 
ATOM      3  C   UNL     1       3.244   4.576  19.284  0.00  0.00    +0.000 A 
ATOM      4  C   UNL     1       3.747   3.358  18.979  0.00  0.00    +0.000 A 
ATOM      5  N   UNL     1       4.557   3.140  17.879  0.00  0.00    +0.000 N 
ATOM      6  C   UNL     1       4.877   4.155  16.972  0.00  0.00    +0.000 A 
ATOM      7  C   UNL     1       5.682   3.899  15.856  0.00  0.00    +0.000 A 
ATOM      8  C   UNL     1       6.003   4.934  14.976  0.00  0.00    +0.000 A 
ATOM      9 BR   UNL     1       7.087   4.574  13.468  0.00  0.00    +0.000 Br
ATOM     10  C   UNL     1       5.535   6.230  15.194  0.00  0.00    +0.000 A 
ATOM     11  C   UNL     1       4.742   6.496  16.309  0.00  0.00    +0.000 A 
ATOM     12  C   UNL     1       4.421   5.460  17.192  0.00  0.00    +0.000 A 
ATOM     13  C   UNL     1       3.474   2.137  19.837  0.00  0.00    +0.000 C 
ATOM     14  C   UNL     1       3.005   2.432  21.259  0.00  0.00    +0.000 C 
ATOM     15  S   UNL     1       1.560   3.517  21.230  0.00  0.00    +0.000 S 
ATOM     16  C   UNL     1       2.357   4.943  20.438  0.00  0.00    +0.000 C 
ATOM     17  H   UNL     1       4.838   2.190  17.667  0.00  0.00    +0.000 HD
ENDROOT
TORSDOF 0
ENDMDL
MODEL 4
REMARK VINA RESULT:      -6.5      3.686      5.456
REMARK  Name = 
REMARK  0 active torsions:
REMARK  status: ('A' for Active; 'I' for Inactive)
REMARK                            x       y       z     vdW  Elec       q    Type
REMARK                         _______ _______ _______ _____ _____    ______ ____
ROOT
ATOM      1  O   UNL     1       2.168   9.345  17.436  0.00  0.00    +0.000 OA
ATOM      2  C   UNL     1       1.965   8.731  18.478  0.00  0.00    +0.000 A 
ATOM      3  C   UNL     1       1.147   9.326  19.585  0.00  0.00    +0.000 A 
ATOM      4  C   UNL     1       1.009   8.616  20.726  0.00  0.00    +0.000 A 
ATOM      5  N   UNL     1       1.585   7.371  20.905  0.00  0.00    +0.000 N 
ATOM      6  C   UNL     1       2.315   6.733  19.898  0.00  0.00    +0.000 A 
ATOM      7  C   UNL     1       2.868   5.463  20.101  0.00  0.00    +0.000 A 
ATOM      8  C   UNL     1       3.610   4.856  19.085  0.00  0.00    +0.000 A 
ATOM      9 BR   UNL     1       4.348   3.137  19.370  0.00  0.00    +0.000 Br
ATOM     10  C   UNL     1       3.815   5.499  17.865  0.00  0.00    +0.000 A 
ATOM     11  C   UNL     1       3.276   6.768  17.658  0.00  0.00    +0.000 A 
ATOM     12  C   UNL     1       2.534   7.378  18.675  0.00  0.00    +0.000 A 
ATOM     13  C   UNL     1       0.221   9.143  21.911  0.00  0.00    +0.000 C 
ATOM     14  C   UNL     1      -0.008  10.651  21.922  0.00  0.00    +0.000 C 
ATOM     15  S   UNL     1      -0.773  11.179  20.372  0.00  0.00    +0.000 S 
ATOM     16  C   UNL     1       0.575  10.677  19.264  0.00  0.00    +0.000 C 
ATOM     17  H   UNL     1       1.379   6.861  21.756  0.00  0.00    +0.000 HD
ENDROOT
TORSDOF 0
ENDMDL
MODEL 5
REMARK VINA RESULT:      -6.4      1.839      2.575
REMARK  Name = 
REMARK  0 active torsions:
REMARK  status: ('A' for Active; 'I' for Inactive)
REMARK                            x       y       z     vdW  Elec       q    Type
REMARK                         _______ _______ _______ _____ _____    ______ ____
ROOT
ATOM      1  O   UNL     1       2.273   9.013  17.300  0.00  0.00    +0.000 OA
ATOM      2  C   UNL     1       2.153   8.422  18.367  0.00  0.00    +0.000 A 
ATOM      3  C   UNL     1       2.769   7.073  18.583  0.00  0.00    +0.000 A 
ATOM      4  C   UNL     1       2.551   6.455  19.766  0.00  0.00    +0.000 A 
ATOM      5  N   UNL     1       1.793   7.022  20.775  0.00  0.00    +0.000 N 
ATOM      6  C   UNL     1       1.233   8.299  20.663  0.00  0.00    +0.000 A 
ATOM      7  C   UNL     1       0.488   8.854  21.709  0.00  0.00    +0.000 A 
ATOM      8  C   UNL     1      -0.077  10.123  21.565  0.00  0.00    +0.000 A 
ATOM      9 BR   UNL     1      -1.078  10.866  22.989  0.00  0.00    +0.000 Br
ATOM     10  C   UNL     1       0.086  10.850  20.386  0.00  0.00    +0.000 A 
ATOM     11  C   UNL     1       0.818  10.299  19.335  0.00  0.00    +0.000 A 
ATOM     12  C   UNL     1       1.383   9.028  19.478  0.00  0.00    +0.000 A 
ATOM     13  C   UNL     1       3.112   5.079  20.070  0.00  0.00    +0.000 C 
ATOM     14  C   UNL     1       3.526   4.261  18.851  0.00  0.00    +0.000 C 
ATOM     15  S   UNL     1       4.685   5.201  17.831  0.00  0.00    +0.000 S 
ATOM     16  C   UNL     1       3.570   6.572  17.416  0.00  0.00    +0.000 C 
ATOM     17  H   UNL     1       1.732   6.539  21.663  0.00  0.00    +0.000 HD
ENDROOT
TORSDOF 0
ENDMDL
MODEL 6
REMARK VINA RESULT:      -6.2      3.761      5.617
REMARK  Name = 
REMARK  0 active torsions:
REMARK  status: ('A' for Active; 'I' for Inactive)
REMARK                            x       y       z     vdW  Elec       q    Type
REMARK                         _______ _______ _______ _____ _____    ______ ____
ROOT
ATOM      1  O   UNL     1       2.733   5.259  20.474  0.00  0.00    +0.000 OA
ATOM      2  C   UNL     1       2.925   6.057  19.563  0.00  0.00    +0.000 A 
ATOM      3  C   UNL     1       2.222   7.380  19.527  0.00  0.00    +0.000 A 
ATOM      4  C   UNL     1       2.440   8.188  18.466  0.00  0.00    +0.000 A 
ATOM      5  N   UNL     1       3.285   7.842  17.426  0.00  0.00    +0.000 N 
ATOM      6  C   UNL     1       4.013   6.649  17.419  0.00  0.00    +0.000 A 
ATOM      7  C   UNL     1       4.876   6.336  16.363  0.00  0.00    +0.000 A 
ATOM      8  C   UNL     1       5.578   5.129  16.371  0.00  0.00    +0.000 A 
ATOM      9 BR   UNL     1       6.746   4.719  14.940  0.00  0.00    +0.000 Br
ATOM     10  C   UNL     1       5.429   4.220  17.419  0.00  0.00    +0.000 A 
ATOM     11  C   UNL     1       4.563   4.520  18.470  0.00  0.00    +0.000 A 
ATOM     12  C   UNL     1       3.859   5.728  18.462  0.00  0.00    +0.000 A 
ATOM     13  C   UNL     1       1.757   9.536  18.326  0.00  0.00    +0.000 C 
ATOM     14  C   UNL     1       0.506   9.722  19.179  0.00  0.00    +0.000 C 
ATOM     15  S   UNL     1       0.874   9.380  20.915  0.00  0.00    +0.000 S 
ATOM     16  C   UNL     1       1.339   7.637  20.714  0.00  0.00    +0.000 C 
ATOM     17  H   UNL     1       3.461   8.526  16.699  0.00  0.00    +0.000 HD
ENDROOT
TORSDOF 0
ENDMDL
MODEL 7
REMARK VINA RESULT:      -6.1      3.762      5.283
REMARK  Name = 
REMARK  0 active torsions:
REMARK  status: ('A' for Active; 'I' for Inactive)
REMARK                            x       y       z     vdW  Elec       q    Type
REMARK                         _______ _______ _______ _____ _____    ______ ____
ROOT
ATOM      1  O   UNL     1       3.930   7.244  17.525  0.00  0.00    +0.000 OA
ATOM      2  C   UNL     1       4.096   6.029  17.557  0.00  0.00    +0.000 A 
ATOM      3  C   UNL     1       4.931   5.331  16.525  0.00  0.00    +0.000 A 
ATOM      4  C   UNL     1       5.027   3.984  16.589  0.00  0.00    +0.000 A 
ATOM      5  N   UNL     1       4.393   3.237  17.566  0.00  0.00    +0.000 N 
ATOM      6  C   UNL     1       3.642   3.824  18.589  0.00  0.00    +0.000 A 
ATOM      7  C   UNL     1       3.030   3.043  19.575  0.00  0.00    +0.000 A 
ATOM      8  C   UNL     1       2.270   3.653  20.575  0.00  0.00    +0.000 A 
ATOM      9 BR   UNL     1       1.451   2.587  21.906  0.00  0.00    +0.000 Br
ATOM     10  C   UNL     1       2.105   5.038  20.606  0.00  0.00    +0.000 A 
ATOM     11  C   UNL     1       2.703   5.823  19.621  0.00  0.00    +0.000 A 
ATOM     12  C   UNL     1       3.464   5.213  18.618  0.00  0.00    +0.000 A 
ATOM     13  C   UNL     1       5.828   3.186  15.578  0.00  0.00    +0.000 C 
ATOM     14  C   UNL     1       6.125   3.907  14.268  0.00  0.00    +0.000 C 
ATOM     15  S   UNL     1       6.927   5.494  14.594  0.00  0.00    +0.000 S 
ATOM     16  C   UNL     1       5.567   6.254  15.527  0.00  0.00    +0.000 C 
ATOM     17  H   UNL     1       4.568   2.240  17.600  0.00  0.00    +0.000 HD
ENDROOT
TORSDOF 0
ENDMDL
MODEL 8
REMARK VINA RESULT:      -6.0      2.109      3.282
REMARK  Name = 
REMARK  0 active torsions:
REMARK  status: ('A' for Active; 'I' for Inactive)
REMARK                            x       y       z     vdW  Elec       q    Type
REMARK                         _______ _______ _______ _____ _____    ______ ____
ROOT
ATOM      1  O   UNL     1       3.019   5.013  20.446  0.00  0.00    +0.000 OA
ATOM      2  C   UNL     1       3.048   5.877  19.576  0.00  0.00    +0.000 A 
ATOM      3  C   UNL     1       3.899   5.720  18.352  0.00  0.00    +0.000 A 
ATOM      4  C   UNL     1       3.924   6.736  17.460  0.00  0.00    +0.000 A 
ATOM      5  N   UNL     1       3.196   7.899  17.634  0.00  0.00    +0.000 N 
ATOM      6  C   UNL     1       2.341   8.092  18.724  0.00  0.00    +0.000 A 
ATOM      7  C   UNL     1       1.601   9.271  18.862  0.00  0.00    +0.000 A 
ATOM      8  C   UNL     1       0.770   9.447  19.970  0.00  0.00    +0.000 A 
ATOM      9 BR   UNL     1      -0.230  11.044  20.142  0.00  0.00    +0.000 Br
ATOM     10  C   UNL     1       0.667   8.462  20.952  0.00  0.00    +0.000 A 
ATOM     11  C   UNL     1       1.409   7.288  20.827  0.00  0.00    +0.000 A 
ATOM     12  C   UNL     1       2.243   7.111  19.719  0.00  0.00    +0.000 A 
ATOM     13  C   UNL     1       4.771   6.681  16.203  0.00  0.00    +0.000 C 
ATOM     14  C   UNL     1       5.906   5.663  16.227  0.00  0.00    +0.000 C 
ATOM     15  S   UNL     1       5.266   4.020  16.624  0.00  0.00    +0.000 S 
ATOM     16  C   UNL     1       4.633   4.413  18.281  0.00  0.00    +0.000 C 
ATOM     17  H   UNL     1       3.201   8.588  16.891  0.00  0.00    +0.000 HD
ENDROOT
TORSDOF 0
ENDMDL
MODEL 9
REMARK VINA RESULT:      -5.9      2.659      3.985
REMARK  Name = 
REMARK  0 active torsions:
REMARK  status: ('A' for Active; 'I' for Inactive)
REMARK                            x       y       z     vdW  Elec       q    Type
REMARK                         _______ _______ _______ _____ _____    ______ ____
ROOT
ATOM      1  O   UNL     1       3.776   3.177  19.012  0.00  0.00    +0.000 OA
ATOM      2  C   UNL     1       3.756   4.320  18.568  0.00  0.00    +0.000 A 
ATOM      3  C   UNL     1       4.535   4.693  17.342  0.00  0.00    +0.000 A 
ATOM      4  C   UNL     1       4.510   5.983  16.940  0.00  0.00    +0.000 A 
ATOM      5  N   UNL     1       3.794   6.959  17.609  0.00  0.00    +0.000 N 
ATOM      6  C   UNL     1       3.004   6.674  18.727  0.00  0.00    +0.000 A 
ATOM      7  C   UNL     1       2.274   7.679  19.371  0.00  0.00    +0.000 A 
ATOM      8  C   UNL     1       1.508   7.372  20.497  0.00  0.00    +0.000 A 
ATOM      9 BR   UNL     1       0.521   8.739  21.356  0.00  0.00    +0.000 Br
ATOM     10  C   UNL     1       1.460   6.071  20.998  0.00  0.00    +0.000 A 
ATOM     11  C   UNL     1       2.193   5.065  20.369  0.00  0.00    +0.000 A 
ATOM     12  C   UNL     1       2.962   5.372  19.242  0.00  0.00    +0.000 A 
ATOM     13  C   UNL     1       5.284   6.462  15.727  0.00  0.00    +0.000 C 
ATOM     14  C   UNL     1       6.418   5.547  15.275  0.00  0.00    +0.000 C 
ATOM     15  S   UNL     1       5.799   3.871  15.004  0.00  0.00    +0.000 S 
ATOM     16  C   UNL     1       5.264   3.543  16.707  0.00  0.00    +0.000 C 
ATOM     17  H   UNL     1       3.758   7.890  17.211  0.00  0.00    +0.000 HD
ENDROOT
TORSDOF 0
ENDMDL
