MODEL 1
REMARK VINA RESULT:      -8.7      0.000      0.000
REMARK  Name = 
REMARK  5 active torsions:
REMARK  status: ('A' for Active; 'I' for Inactive)
REMARK    1  A    between atoms: S_2  and  N_4
REMARK    2  A    between atoms: S_2  and  C_20
REMARK    3  A    between atoms: N_4  and  C_5
REMARK    4  A    between atoms: C_10  and  C_11
REMARK    5  A    between atoms: C_25  and  O_26
REMARK                            x       y       z     vdW  Elec       q    Type
REMARK                         _______ _______ _______ _____ _____    ______ ____
ROOT
ATOM      1  C   UNL     1       2.820   5.995  18.947  0.00  0.00    +0.000 A 
ATOM      2  C   UNL     1       2.932   6.925  17.905  0.00  0.00    +0.000 A 
ATOM      3  C   UNL     1       2.412   8.223  18.025  0.00  0.00    +0.000 A 
ATOM      4  C   UNL     1       1.809   8.518  19.241  0.00  0.00    +0.000 A 
ATOM      5  O   UNL     1       1.194   9.680  19.609  0.00  0.00    +0.000 OA
ATOM      6  C   UNL     1       0.774   9.442  20.897  0.00  0.00    +0.000 A 
ATOM      7  N   UNL     1       1.081   8.242  21.359  0.00  0.00    +0.000 NA
ATOM      8  C   UNL     1       1.723   7.642  20.308  0.00  0.00    +0.000 A 
ATOM      9  C   UNL     1       2.243   6.350  20.173  0.00  0.00    +0.000 A 
ENDROOT
BRANCH   6  10
ATOM     10  C   UNL     1       0.084  10.537  21.578  0.00  0.00    +0.000 A 
ATOM     11  C   UNL     1      -0.777  10.311  22.661  0.00  0.00    +0.000 A 
ATOM     12  C   UNL     1      -1.461  11.372  23.262  0.00  0.00    +0.000 A 
ATOM     13  C   UNL     1      -1.287  12.671  22.791  0.00  0.00    +0.000 A 
ATOM     14  C   UNL     1      -0.415  12.916  21.733  0.00  0.00    +0.000 A 
ATOM     15  C   UNL     1       0.270  11.855  21.134  0.00  0.00    +0.000 A 
ENDBRANCH   6  10
BRANCH   1  16
ATOM     16  N   UNL     1       3.280   4.657  18.741  0.00  0.00    +0.000 N 
ATOM     17  H   UNL     1       2.737   3.931  19.216  0.00  0.00    +0.000 HD
BRANCH  16  19
ATOM     18  O   UNL     1       5.483   5.421  19.751  0.00  0.00    +0.000 OA
ATOM     19  S   UNL     1       4.926   4.316  18.999  0.00  0.00    +0.000 S 
ATOM     20  O   UNL     1       5.035   2.956  19.487  0.00  0.00    +0.000 OA
BRANCH  19  21
ATOM     21  C   UNL     1       5.626   4.379  17.370  0.00  0.00    +0.000 A 
ATOM     22  C   UNL     1       4.772   4.319  16.259  0.00  0.00    +0.000 A 
ATOM     23  C   UNL     1       5.302   4.389  14.974  0.00  0.00    +0.000 A 
ATOM     24  C   UNL     1       6.682   4.511  14.790  0.00  0.00    +0.000 A 
ATOM     25  C   UNL     1       7.534   4.560  15.895  0.00  0.00    +0.000 A 
ATOM     26  C   UNL     1       7.005   4.502  17.185  0.00  0.00    +0.000 A 
BRANCH  26  27
ATOM     27  O   UNL     1       7.843   4.636  18.258  0.00  0.00    +0.000 OA
ATOM     28  H   UNL     1       8.558   5.257  18.026  0.00  0.00    +0.000 HD
ENDBRANCH  26  27
ENDBRANCH  19  21
ENDBRANCH  16  19
ENDBRANCH   1  16
TORSDOF 5
ENDMDL
MODEL 2
REMARK VINA RESULT:      -8.4      2.298      3.593
REMARK  Name = 
REMARK  5 active torsions:
REMARK  status: ('A' for Active; 'I' for Inactive)
REMARK    1  A    between atoms: S_2  and  N_4
REMARK    2  A    between atoms: S_2  and  C_20
REMARK    3  A    between atoms: N_4  and  C_5
REMARK    4  A    between atoms: C_10  and  C_11
REMARK    5  A    between atoms: C_25  and  O_26
REMARK                            x       y       z     vdW  Elec       q    Type
REMARK                         _______ _______ _______ _____ _____    ______ ____
ROOT
ATOM      1  C   UNL     1       3.614   6.091  18.188  0.00  0.00    +0.000 A 
ATOM      2  C   UNL     1       3.570   7.117  17.236  0.00  0.00    +0.000 A 
ATOM      3  C   UNL     1       2.836   8.293  17.460  0.00  0.00    +0.000 A 
ATOM      4  C   UNL     1       2.187   8.370  18.686  0.00  0.00    +0.000 A 
ATOM      5  O   UNL     1       1.382   9.372  19.144  0.00  0.00    +0.000 OA
ATOM      6  C   UNL     1       1.003   8.951  20.397  0.00  0.00    +0.000 A 
ATOM      7  N   UNL     1       1.508   7.783  20.757  0.00  0.00    +0.000 NA
ATOM      8  C   UNL     1       2.248   7.398  19.669  0.00  0.00    +0.000 A 
ATOM      9  C   UNL     1       2.980   6.230  19.430  0.00  0.00    +0.000 A 
ENDROOT
BRANCH   6  10
ATOM     10  C   UNL     1       0.135   9.846  21.159  0.00  0.00    +0.000 A 
ATOM     11  C   UNL     1      -0.383  11.026  20.606  0.00  0.00    +0.000 A 
ATOM     12  C   UNL     1      -1.172  11.888  21.373  0.00  0.00    +0.000 A 
ATOM     13  C   UNL     1      -1.455  11.579  22.702  0.00  0.00    +0.000 A 
ATOM     14  C   UNL     1      -0.969  10.398  23.259  0.00  0.00    +0.000 A 
ATOM     15  C   UNL     1      -0.184   9.535  22.490  0.00  0.00    +0.000 A 
ENDBRANCH   6  10
BRANCH   1  16
ATOM     16  N   UNL     1       4.296   4.875  17.873  0.00  0.00    +0.000 N 
ATOM     17  H   UNL     1       4.967   4.938  17.103  0.00  0.00    +0.000 HD
BRANCH  16  19
ATOM     18  O   UNL     1       2.247   3.824  16.799  0.00  0.00    +0.000 OA
ATOM     19  S   UNL     1       3.374   3.466  17.633  0.00  0.00    +0.000 S 
ATOM     20  O   UNL     1       4.274   2.397  17.246  0.00  0.00    +0.000 OA
BRANCH  19  21
ATOM     21  C   UNL     1       2.742   3.101  19.250  0.00  0.00    +0.000 A 
ATOM     22  C   UNL     1       1.375   3.282  19.503  0.00  0.00    +0.000 A 
ATOM     23  C   UNL     1       0.858   2.979  20.760  0.00  0.00    +0.000 A 
ATOM     24  C   UNL     1       1.699   2.503  21.769  0.00  0.00    +0.000 A 
ATOM     25  C   UNL     1       3.063   2.333  21.521  0.00  0.00    +0.000 A 
ATOM     26  C   UNL     1       3.583   2.624  20.258  0.00  0.00    +0.000 A 
BRANCH  26  27
ATOM     27  O   UNL     1       4.903   2.372  20.005  0.00  0.00    +0.000 OA
ATOM     28  H   UNL     1       5.118   1.471  20.307  0.00  0.00    +0.000 HD
ENDBRANCH  26  27
ENDBRANCH  19  21
ENDBRANCH  16  19
ENDBRANCH   1  16
TORSDOF 5
ENDMDL
MODEL 3
REMARK VINA RESULT:      -8.2      2.680      3.474
REMARK  Name = 
REMARK  5 active torsions:
REMARK  status: ('A' for Active; 'I' for Inactive)
REMARK    1  A    between atoms: S_2  and  N_4
REMARK    2  A    between atoms: S_2  and  C_20
REMARK    3  A    between atoms: N_4  and  C_5
REMARK    4  A    between atoms: C_10  and  C_11
REMARK    5  A    between atoms: C_25  and  O_26
REMARK                            x       y       z     vdW  Elec       q    Type
REMARK                         _______ _______ _______ _____ _____    ______ ____
ROOT
ATOM      1  C   UNL     1       2.904   7.097  18.549  0.00  0.00    +0.000 A 
ATOM      2  C   UNL     1       2.806   8.063  17.539  0.00  0.00    +0.000 A 
ATOM      3  C   UNL     1       2.021   9.215  17.702  0.00  0.00    +0.000 A 
ATOM      4  C   UNL     1       1.378   9.334  18.927  0.00  0.00    +0.000 A 
ATOM      5  O   UNL     1       0.531  10.324  19.333  0.00  0.00    +0.000 OA
ATOM      6  C   UNL     1       0.181   9.961  20.613  0.00  0.00    +0.000 A 
ATOM      7  N   UNL     1       0.742   8.840  21.035  0.00  0.00    +0.000 NA
ATOM      8  C   UNL     1       1.490   8.426  19.964  0.00  0.00    +0.000 A 
ATOM      9  C   UNL     1       2.274   7.280  19.787  0.00  0.00    +0.000 A 
ENDROOT
BRANCH   6  10
ATOM     10  C   UNL     1      -0.722  10.859  21.330  0.00  0.00    +0.000 A 
ATOM     11  C   UNL     1      -0.943  10.743  22.710  0.00  0.00    +0.000 A 
ATOM     12  C   UNL     1      -1.849  11.585  23.361  0.00  0.00    +0.000 A 
ATOM     13  C   UNL     1      -2.540  12.557  22.641  0.00  0.00    +0.000 A 
ATOM     14  C   UNL     1      -2.313  12.703  21.275  0.00  0.00    +0.000 A 
ATOM     15  C   UNL     1      -1.404  11.863  20.625  0.00  0.00    +0.000 A 
ENDBRANCH   6  10
BRANCH   1  16
ATOM     16  N   UNL     1       3.639   5.897  18.299  0.00  0.00    +0.000 N 
ATOM     17  H   UNL     1       4.423   5.993  17.648  0.00  0.00    +0.000 HD
BRANCH  16  19
ATOM     18  O   UNL     1       1.464   4.914  17.428  0.00  0.00    +0.000 OA
ATOM     19  S   UNL     1       2.780   4.496  17.861  0.00  0.00    +0.000 S 
ATOM     20  O   UNL     1       3.627   3.697  16.998  0.00  0.00    +0.000 OA
BRANCH  19  21
ATOM     21  C   UNL     1       2.582   3.631  19.398  0.00  0.00    +0.000 A 
ATOM     22  C   UNL     1       1.316   3.589  19.998  0.00  0.00    +0.000 A 
ATOM     23  C   UNL     1       1.138   2.896  21.192  0.00  0.00    +0.000 A 
ATOM     24  C   UNL     1       2.220   2.250  21.796  0.00  0.00    +0.000 A 
ATOM     25  C   UNL     1       3.485   2.301  21.205  0.00  0.00    +0.000 A 
ATOM     26  C   UNL     1       3.664   2.984  20.002  0.00  0.00    +0.000 A 
BRANCH  26  27
ATOM     27  O   UNL     1       4.888   2.954  19.392  0.00  0.00    +0.000 OA
ATOM     28  H   UNL     1       4.868   2.297  18.673  0.00  0.00    +0.000 HD
ENDBRANCH  26  27
ENDBRANCH  19  21
ENDBRANCH  16  19
ENDBRANCH   1  16
TORSDOF 5
ENDMDL
MODEL 4
REMARK VINA RESULT:      -8.2      1.951      2.359
REMARK  Name = 
REMARK  5 active torsions:
REMARK  status: ('A' for Active; 'I' for Inactive)
REMARK    1  A    between atoms: S_2  and  N_4
REMARK    2  A    between atoms: S_2  and  C_20
REMARK    3  A    between atoms: N_4  and  C_5
REMARK    4  A    between atoms: C_10  and  C_11
REMARK    5  A    between atoms: C_25  and  O_26
REMARK                            x       y       z     vdW  Elec       q    Type
REMARK                         _______ _______ _______ _____ _____    ______ ____
ROOT
ATOM      1  C   UNL     1       2.607   5.714  19.124  0.00  0.00    +0.000 A 
ATOM      2  C   UNL     1       2.052   5.838  20.404  0.00  0.00    +0.000 A 
ATOM      3  C   UNL     1       1.515   7.054  20.854  0.00  0.00    +0.000 A 
ATOM      4  C   UNL     1       1.554   8.101  19.941  0.00  0.00    +0.000 A 
ATOM      5  O   UNL     1       1.140   9.387  20.128  0.00  0.00    +0.000 OA
ATOM      6  C   UNL     1       1.402  10.001  18.925  0.00  0.00    +0.000 A 
ATOM      7  N   UNL     1       1.934   9.207  18.012  0.00  0.00    +0.000 NA
ATOM      8  C   UNL     1       2.050   8.002  18.654  0.00  0.00    +0.000 A 
ATOM      9  C   UNL     1       2.585   6.784  18.220  0.00  0.00    +0.000 A 
ENDROOT
BRANCH   6  10
ATOM     10  C   UNL     1       1.039  11.412  18.812  0.00  0.00    +0.000 A 
ATOM     11  C   UNL     1      -0.297  11.838  18.836  0.00  0.00    +0.000 A 
ATOM     12  C   UNL     1      -0.619  13.190  18.676  0.00  0.00    +0.000 A 
ATOM     13  C   UNL     1       0.392  14.131  18.496  0.00  0.00    +0.000 A 
ATOM     14  C   UNL     1       1.725  13.728  18.496  0.00  0.00    +0.000 A 
ATOM     15  C   UNL     1       2.046  12.377  18.658  0.00  0.00    +0.000 A 
ENDBRANCH   6  10
BRANCH   1  16
ATOM     16  N   UNL     1       3.227   4.482  18.748  0.00  0.00    +0.000 N 
ATOM     17  H   UNL     1       2.776   3.638  19.111  0.00  0.00    +0.000 HD
BRANCH  16  19
ATOM     18  O   UNL     1       5.357   5.479  19.708  0.00  0.00    +0.000 OA
ATOM     19  S   UNL     1       4.902   4.309  18.988  0.00  0.00    +0.000 S 
ATOM     20  O   UNL     1       5.150   2.977  19.502  0.00  0.00    +0.000 OA
BRANCH  19  21
ATOM     21  C   UNL     1       5.570   4.404  17.347  0.00  0.00    +0.000 A 
ATOM     22  C   UNL     1       4.691   4.499  16.258  0.00  0.00    +0.000 A 
ATOM     23  C   UNL     1       5.199   4.596  14.966  0.00  0.00    +0.000 A 
ATOM     24  C   UNL     1       6.580   4.592  14.752  0.00  0.00    +0.000 A 
ATOM     25  C   UNL     1       7.455   4.487  15.835  0.00  0.00    +0.000 A 
ATOM     26  C   UNL     1       6.950   4.401  17.133  0.00  0.00    +0.000 A 
BRANCH  26  27
ATOM     27  O   UNL     1       7.820   4.384  18.188  0.00  0.00    +0.000 OA
ATOM     28  H   UNL     1       8.479   5.091  18.068  0.00  0.00    +0.000 HD
ENDBRANCH  26  27
ENDBRANCH  19  21
ENDBRANCH  16  19
ENDBRANCH   1  16
TORSDOF 5
ENDMDL
MODEL 5
REMARK VINA RESULT:      -8.2      2.266      3.322
REMARK  Name = 
REMARK  5 active torsions:
REMARK  status: ('A' for Active; 'I' for Inactive)
REMARK    1  A    between atoms: S_2  and  N_4
REMARK    2  A    between atoms: S_2  and  C_20
REMARK    3  A    between atoms: N_4  and  C_5
REMARK    4  A    between atoms: C_10  and  C_11
REMARK    5  A    between atoms: C_25  and  O_26
REMARK                            x       y       z     vdW  Elec       q    Type
REMARK                         _______ _______ _______ _____ _____    ______ ____
ROOT
ATOM      1  C   UNL     1       4.543   4.532  17.580  0.00  0.00    +0.000 A 
ATOM      2  C   UNL     1       4.390   3.870  18.806  0.00  0.00    +0.000 A 
ATOM      3  C   UNL     1       3.663   4.443  19.861  0.00  0.00    +0.000 A 
ATOM      4  C   UNL     1       3.096   5.683  19.595  0.00  0.00    +0.000 A 
ATOM      5  O   UNL     1       2.379   6.473  20.445  0.00  0.00    +0.000 OA
ATOM      6  C   UNL     1       2.061   7.577  19.688  0.00  0.00    +0.000 A 
ATOM      7  N   UNL     1       2.512   7.535  18.446  0.00  0.00    +0.000 NA
ATOM      8  C   UNL     1       3.186   6.344  18.383  0.00  0.00    +0.000 A 
ATOM      9  C   UNL     1       3.917   5.762  17.341  0.00  0.00    +0.000 A 
ENDROOT
BRANCH   6  10
ATOM     10  C   UNL     1       1.260   8.613  20.337  0.00  0.00    +0.000 A 
ATOM     11  C   UNL     1       0.941   8.559  21.701  0.00  0.00    +0.000 A 
ATOM     12  C   UNL     1       0.131   9.538  22.285  0.00  0.00    +0.000 A 
ATOM     13  C   UNL     1      -0.364  10.586  21.511  0.00  0.00    +0.000 A 
ATOM     14  C   UNL     1      -0.035  10.669  20.161  0.00  0.00    +0.000 A 
ATOM     15  C   UNL     1       0.776   9.691  19.579  0.00  0.00    +0.000 A 
ENDBRANCH   6  10
BRANCH   1  16
ATOM     16  N   UNL     1       5.372   3.950  16.571  0.00  0.00    +0.000 N 
ATOM     17  H   UNL     1       5.752   3.027  16.797  0.00  0.00    +0.000 HD
BRANCH  16  19
ATOM     18  O   UNL     1       6.246   6.271  16.019  0.00  0.00    +0.000 OA
ATOM     19  S   UNL     1       6.640   4.882  15.927  0.00  0.00    +0.000 S 
ATOM     20  O   UNL     1       7.883   4.422  16.515  0.00  0.00    +0.000 OA
BRANCH  19  21
ATOM     21  C   UNL     1       6.646   4.445  14.207  0.00  0.00    +0.000 A 
ATOM     22  C   UNL     1       5.655   3.581  13.721  0.00  0.00    +0.000 A 
ATOM     23  C   UNL     1       5.632   3.246  12.370  0.00  0.00    +0.000 A 
ATOM     24  C   UNL     1       6.596   3.764  11.501  0.00  0.00    +0.000 A 
ATOM     25  C   UNL     1       7.590   4.617  11.987  0.00  0.00    +0.000 A 
ATOM     26  C   UNL     1       7.609   4.964  13.339  0.00  0.00    +0.000 A 
BRANCH  26  27
ATOM     27  O   UNL     1       8.537   5.866  13.783  0.00  0.00    +0.000 OA
ATOM     28  H   UNL     1       8.082   6.690  14.037  0.00  0.00    +0.000 HD
ENDBRANCH  26  27
ENDBRANCH  19  21
ENDBRANCH  16  19
ENDBRANCH   1  16
TORSDOF 5
ENDMDL
MODEL 6
REMARK VINA RESULT:      -8.2      1.778      2.458
REMARK  Name = 
REMARK  5 active torsions:
REMARK  status: ('A' for Active; 'I' for Inactive)
REMARK    1  A    between atoms: S_2  and  N_4
REMARK    2  A    between atoms: S_2  and  C_20
REMARK    3  A    between atoms: N_4  and  C_5
REMARK    4  A    between atoms: C_10  and  C_11
REMARK    5  A    between atoms: C_25  and  O_26
REMARK                            x       y       z     vdW  Elec       q    Type
REMARK                         _______ _______ _______ _____ _____    ______ ____
ROOT
ATOM      1  C   UNL     1       3.837   6.366  17.667  0.00  0.00    +0.000 A 
ATOM      2  C   UNL     1       3.689   5.473  18.736  0.00  0.00    +0.000 A 
ATOM      3  C   UNL     1       2.904   5.794  19.855  0.00  0.00    +0.000 A 
ATOM      4  C   UNL     1       2.277   7.033  19.812  0.00  0.00    +0.000 A 
ATOM      5  O   UNL     1       1.495   7.607  20.771  0.00  0.00    +0.000 OA
ATOM      6  C   UNL     1       1.137   8.820  20.229  0.00  0.00    +0.000 A 
ATOM      7  N   UNL     1       1.621   9.042  19.019  0.00  0.00    +0.000 NA
ATOM      8  C   UNL     1       2.361   7.919  18.753  0.00  0.00    +0.000 A 
ATOM      9  C   UNL     1       3.150   7.588  17.646  0.00  0.00    +0.000 A 
ENDROOT
BRANCH   6  10
ATOM     10  C   UNL     1       0.262   9.670  21.035  0.00  0.00    +0.000 A 
ATOM     11  C   UNL     1      -0.348  10.817  20.508  0.00  0.00    +0.000 A 
ATOM     12  C   UNL     1      -1.140  11.639  21.315  0.00  0.00    +0.000 A 
ATOM     13  C   UNL     1      -1.337  11.320  22.657  0.00  0.00    +0.000 A 
ATOM     14  C   UNL     1      -0.760  10.169  23.189  0.00  0.00    +0.000 A 
ATOM     15  C   UNL     1       0.030   9.347  22.381  0.00  0.00    +0.000 A 
ENDBRANCH   6  10
BRANCH   1  16
ATOM     16  N   UNL     1       4.723   6.033  16.596  0.00  0.00    +0.000 N 
ATOM     17  H   UNL     1       4.419   6.339  15.668  0.00  0.00    +0.000 HD
BRANCH  16  19
ATOM     18  O   UNL     1       6.337   4.244  17.401  0.00  0.00    +0.000 OA
ATOM     19  S   UNL     1       5.257   4.424  16.456  0.00  0.00    +0.000 S 
ATOM     20  O   UNL     1       4.095   3.558  16.482  0.00  0.00    +0.000 OA
BRANCH  19  21
ATOM     21  C   UNL     1       5.960   4.359  14.828  0.00  0.00    +0.000 A 
ATOM     22  C   UNL     1       5.336   3.576  13.847  0.00  0.00    +0.000 A 
ATOM     23  C   UNL     1       5.862   3.532  12.559  0.00  0.00    +0.000 A 
ATOM     24  C   UNL     1       7.013   4.259  12.245  0.00  0.00    +0.000 A 
ATOM     25  C   UNL     1       7.642   5.031  13.225  0.00  0.00    +0.000 A 
ATOM     26  C   UNL     1       7.110   5.088  14.514  0.00  0.00    +0.000 A 
BRANCH  26  27
ATOM     27  O   UNL     1       7.688   5.913  15.439  0.00  0.00    +0.000 OA
ATOM     28  H   UNL     1       7.853   6.782  15.029  0.00  0.00    +0.000 HD
ENDBRANCH  26  27
ENDBRANCH  19  21
ENDBRANCH  16  19
ENDBRANCH   1  16
TORSDOF 5
ENDMDL
MODEL 7
REMARK VINA RESULT:      -8.2      1.154      1.559
REMARK  Name = 
REMARK  5 active torsions:
REMARK  status: ('A' for Active; 'I' for Inactive)
REMARK    1  A    between atoms: S_2  and  N_4
REMARK    2  A    between atoms: S_2  and  C_20
REMARK    3  A    between atoms: N_4  and  C_5
REMARK    4  A    between atoms: C_10  and  C_11
REMARK    5  A    between atoms: C_25  and  O_26
REMARK                            x       y       z     vdW  Elec       q    Type
REMARK                         _______ _______ _______ _____ _____    ______ ____
ROOT
ATOM      1  C   UNL     1       3.171   5.960  19.297  0.00  0.00    +0.000 A 
ATOM      2  C   UNL     1       3.321   6.794  18.181  0.00  0.00    +0.000 A 
ATOM      3  C   UNL     1       2.654   8.025  18.092  0.00  0.00    +0.000 A 
ATOM      4  C   UNL     1       1.865   8.360  19.185  0.00  0.00    +0.000 A 
ATOM      5  O   UNL     1       1.086   9.469  19.345  0.00  0.00    +0.000 OA
ATOM      6  C   UNL     1       0.524   9.307  20.590  0.00  0.00    +0.000 A 
ATOM      7  N   UNL     1       0.893   8.202  21.216  0.00  0.00    +0.000 NA
ATOM      8  C   UNL     1       1.732   7.586  20.324  0.00  0.00    +0.000 A 
ATOM      9  C   UNL     1       2.400   6.359  20.397  0.00  0.00    +0.000 A 
ENDROOT
BRANCH   6  10
ATOM     10  C   UNL     1      -0.363  10.370  21.057  0.00  0.00    +0.000 A 
ATOM     11  C   UNL     1      -0.984  11.261  20.169  0.00  0.00    +0.000 A 
ATOM     12  C   UNL     1      -1.789  12.300  20.647  0.00  0.00    +0.000 A 
ATOM     13  C   UNL     1      -1.988  12.455  22.017  0.00  0.00    +0.000 A 
ATOM     14  C   UNL     1      -1.400  11.563  22.910  0.00  0.00    +0.000 A 
ATOM     15  C   UNL     1      -0.598  10.523  22.432  0.00  0.00    +0.000 A 
ENDBRANCH   6  10
BRANCH   1  16
ATOM     16  N   UNL     1       3.795   4.675  19.298  0.00  0.00    +0.000 N 
ATOM     17  H   UNL     1       4.791   4.673  19.533  0.00  0.00    +0.000 HD
BRANCH  16  19
ATOM     18  O   UNL     1       3.819   2.310  18.370  0.00  0.00    +0.000 OA
ATOM     19  S   UNL     1       3.590   3.672  17.939  0.00  0.00    +0.000 S 
ATOM     20  O   UNL     1       2.353   4.045  17.284  0.00  0.00    +0.000 OA
BRANCH  19  21
ATOM     21  C   UNL     1       4.938   4.126  16.879  0.00  0.00    +0.000 A 
ATOM     22  C   UNL     1       4.682   4.387  15.525  0.00  0.00    +0.000 A 
ATOM     23  C   UNL     1       5.724   4.765  14.684  0.00  0.00    +0.000 A 
ATOM     24  C   UNL     1       7.024   4.879  15.185  0.00  0.00    +0.000 A 
ATOM     25  C   UNL     1       7.282   4.609  16.530  0.00  0.00    +0.000 A 
ATOM     26  C   UNL     1       6.238   4.240  17.379  0.00  0.00    +0.000 A 
BRANCH  26  27
ATOM     27  O   UNL     1       6.491   4.061  18.711  0.00  0.00    +0.000 OA
ATOM     28  H   UNL     1       5.646   3.926  19.179  0.00  0.00    +0.000 HD
ENDBRANCH  26  27
ENDBRANCH  19  21
ENDBRANCH  16  19
ENDBRANCH   1  16
TORSDOF 5
ENDMDL
MODEL 8
REMARK VINA RESULT:      -8.1      2.304      3.270
REMARK  Name = 
REMARK  5 active torsions:
REMARK  status: ('A' for Active; 'I' for Inactive)
REMARK    1  A    between atoms: S_2  and  N_4
REMARK    2  A    between atoms: S_2  and  C_20
REMARK    3  A    between atoms: N_4  and  C_5
REMARK    4  A    between atoms: C_10  and  C_11
REMARK    5  A    between atoms: C_25  and  O_26
REMARK                            x       y       z     vdW  Elec       q    Type
REMARK                         _______ _______ _______ _____ _____    ______ ____
ROOT
ATOM      1  C   UNL     1       4.029   4.923  17.449  0.00  0.00    +0.000 A 
ATOM      2  C   UNL     1       3.825   4.145  18.596  0.00  0.00    +0.000 A 
ATOM      3  C   UNL     1       3.145   4.653  19.714  0.00  0.00    +0.000 A 
ATOM      4  C   UNL     1       2.678   5.955  19.591  0.00  0.00    +0.000 A 
ATOM      5  O   UNL     1       2.025   6.701  20.529  0.00  0.00    +0.000 OA
ATOM      6  C   UNL     1       1.795   7.902  19.901  0.00  0.00    +0.000 A 
ATOM      7  N   UNL     1       2.241   7.963  18.657  0.00  0.00    +0.000 NA
ATOM      8  C   UNL     1       2.819   6.736  18.458  0.00  0.00    +0.000 A 
ATOM      9  C   UNL     1       3.502   6.218  17.352  0.00  0.00    +0.000 A 
ENDROOT
BRANCH   6  10
ATOM     10  C   UNL     1       1.078   8.920  20.666  0.00  0.00    +0.000 A 
ATOM     11  C   UNL     1       0.908   8.822  22.054  0.00  0.00    +0.000 A 
ATOM     12  C   UNL     1       0.175   9.785  22.754  0.00  0.00    +0.000 A 
ATOM     13  C   UNL     1      -0.393  10.861  22.074  0.00  0.00    +0.000 A 
ATOM     14  C   UNL     1      -0.211  10.987  20.699  0.00  0.00    +0.000 A 
ATOM     15  C   UNL     1       0.524  10.025  20.001  0.00  0.00    +0.000 A 
ENDBRANCH   6  10
BRANCH   1  16
ATOM     16  N   UNL     1       4.810   4.394  16.376  0.00  0.00    +0.000 N 
ATOM     17  H   UNL     1       5.282   3.507  16.575  0.00  0.00    +0.000 HD
BRANCH  16  19
ATOM     18  O   UNL     1       6.812   4.572  14.823  0.00  0.00    +0.000 OA
ATOM     19  S   UNL     1       5.937   5.412  15.612  0.00  0.00    +0.000 S 
ATOM     20  O   UNL     1       5.214   6.510  15.002  0.00  0.00    +0.000 OA
BRANCH  19  21
ATOM     21  C   UNL     1       6.895   6.059  16.958  0.00  0.00    +0.000 A 
ATOM     22  C   UNL     1       7.102   7.443  17.044  0.00  0.00    +0.000 A 
ATOM     23  C   UNL     1       7.832   7.968  18.106  0.00  0.00    +0.000 A 
ATOM     24  C   UNL     1       8.363   7.120  19.081  0.00  0.00    +0.000 A 
ATOM     25  C   UNL     1       8.167   5.740  18.990  0.00  0.00    +0.000 A 
ATOM     26  C   UNL     1       7.425   5.211  17.933  0.00  0.00    +0.000 A 
BRANCH  26  27
ATOM     27  O   UNL     1       7.170   3.867  17.904  0.00  0.00    +0.000 OA
ATOM     28  H   UNL     1       6.353   3.688  18.406  0.00  0.00    +0.000 HD
ENDBRANCH  26  27
ENDBRANCH  19  21
ENDBRANCH  16  19
ENDBRANCH   1  16
TORSDOF 5
ENDMDL
MODEL 9
REMARK VINA RESULT:      -8.1      0.688      1.308
REMARK  Name = 
REMARK  5 active torsions:
REMARK  status: ('A' for Active; 'I' for Inactive)
REMARK    1  A    between atoms: S_2  and  N_4
REMARK    2  A    between atoms: S_2  and  C_20
REMARK    3  A    between atoms: N_4  and  C_5
REMARK    4  A    between atoms: C_10  and  C_11
REMARK    5  A    between atoms: C_25  and  O_26
REMARK                            x       y       z     vdW  Elec       q    Type
REMARK                         _______ _______ _______ _____ _____    ______ ____
ROOT
ATOM      1  C   UNL     1       2.831   6.084  19.016  0.00  0.00    +0.000 A 
ATOM      2  C   UNL     1       2.927   6.997  17.958  0.00  0.00    +0.000 A 
ATOM      3  C   UNL     1       2.394   8.292  18.058  0.00  0.00    +0.000 A 
ATOM      4  C   UNL     1       1.795   8.602  19.272  0.00  0.00    +0.000 A 
ATOM      5  O   UNL     1       1.170   9.763  19.623  0.00  0.00    +0.000 OA
ATOM      6  C   UNL     1       0.759   9.543  20.917  0.00  0.00    +0.000 A 
ATOM      7  N   UNL     1       1.081   8.355  21.399  0.00  0.00    +0.000 NA
ATOM      8  C   UNL     1       1.725   7.743  20.354  0.00  0.00    +0.000 A 
ATOM      9  C   UNL     1       2.257   6.454  20.239  0.00  0.00    +0.000 A 
ENDROOT
BRANCH   6  10
ATOM     10  C   UNL     1       0.062  10.642  21.583  0.00  0.00    +0.000 A 
ATOM     11  C   UNL     1      -0.821  10.422  22.650  0.00  0.00    +0.000 A 
ATOM     12  C   UNL     1      -1.512  11.487  23.237  0.00  0.00    +0.000 A 
ATOM     13  C   UNL     1      -1.323  12.785  22.766  0.00  0.00    +0.000 A 
ATOM     14  C   UNL     1      -0.430  13.024  21.725  0.00  0.00    +0.000 A 
ATOM     15  C   UNL     1       0.262  11.959  21.141  0.00  0.00    +0.000 A 
ENDBRANCH   6  10
BRANCH   1  16
ATOM     16  N   UNL     1       3.304   4.748  18.831  0.00  0.00    +0.000 N 
ATOM     17  H   UNL     1       2.799   4.030  19.355  0.00  0.00    +0.000 HD
BRANCH  16  19
ATOM     18  O   UNL     1       5.527   5.548  19.766  0.00  0.00    +0.000 OA
ATOM     19  S   UNL     1       4.967   4.443  19.017  0.00  0.00    +0.000 S 
ATOM     20  O   UNL     1       5.127   3.078  19.476  0.00  0.00    +0.000 OA
BRANCH  19  21
ATOM     21  C   UNL     1       5.599   4.549  17.362  0.00  0.00    +0.000 A 
ATOM     22  C   UNL     1       6.823   5.195  17.141  0.00  0.00    +0.000 A 
ATOM     23  C   UNL     1       7.344   5.268  15.853  0.00  0.00    +0.000 A 
ATOM     24  C   UNL     1       6.646   4.706  14.780  0.00  0.00    +0.000 A 
ATOM     25  C   UNL     1       5.421   4.072  14.998  0.00  0.00    +0.000 A 
ATOM     26  C   UNL     1       4.901   3.987  16.291  0.00  0.00    +0.000 A 
BRANCH  26  27
ATOM     27  O   UNL     1       3.743   3.290  16.500  0.00  0.00    +0.000 OA
ATOM     28  H   UNL     1       3.809   2.812  17.347  0.00  0.00    +0.000 HD
ENDBRANCH  26  27
ENDBRANCH  19  21
ENDBRANCH  16  19
ENDBRANCH   1  16
TORSDOF 5
ENDMDL
