MODEL 1
REMARK VINA RESULT:      -8.4      0.000      0.000
REMARK  Name = 
REMARK  1 active torsions:
REMARK  status: ('A' for Active; 'I' for Inactive)
REMARK    1  A    between atoms: C_13  and  C_14
REMARK                            x       y       z     vdW  Elec       q    Type
REMARK                         _______ _______ _______ _____ _____    ______ ____
ROOT
ATOM      1  O   UNL     1       1.883   5.335  20.827  0.00  0.00    +0.000 OA
ATOM      2  C   UNL     1       2.094   5.036  19.656  0.00  0.00    +0.000 C 
ATOM      3  O   UNL     1       1.463   3.943  19.119  0.00  0.00    +0.000 OA
ATOM      4  C   UNL     1       1.874   3.328  17.882  0.00  0.00    +0.000 C 
ATOM      5  C   UNL     1       3.077   2.426  18.137  0.00  0.00    +0.000 C 
ATOM      6  O   UNL     1       4.224   3.095  18.640  0.00  0.00    +0.000 OA
ATOM      7  C   UNL     1       4.782   4.155  17.885  0.00  0.00    +0.000 C 
ATOM      8  C   UNL     1       4.998   3.910  16.377  0.00  0.00    +0.000 C 
ATOM      9  C   UNL     1       5.845   5.063  15.775  0.00  0.00    +0.000 C 
ATOM     10  C   UNL     1       5.326   6.502  16.068  0.00  0.00    +0.000 C 
ATOM     11  C   UNL     1       4.374   6.498  17.208  0.00  0.00    +0.000 A 
ATOM     12  O   UNL     1       3.600   7.573  17.481  0.00  0.00    +0.000 OA
ATOM     13  C   UNL     1       2.738   7.194  18.489  0.00  0.00    +0.000 A 
ATOM     14  C   UNL     1       2.924   5.844  18.783  0.00  0.00    +0.000 A 
ATOM     15  C   UNL     1       4.054   5.443  18.028  0.00  0.00    +0.000 A 
ENDROOT
BRANCH  13  16
ATOM     16  C   UNL     1       1.841   8.245  18.965  0.00  0.00    +0.000 A 
ATOM     17  C   UNL     1       1.576   8.413  20.332  0.00  0.00    +0.000 A 
ATOM     18  C   UNL     1       0.682   9.397  20.774  0.00  0.00    +0.000 A 
ATOM     19  C   UNL     1       0.045  10.228  19.856  0.00  0.00    +0.000 A 
ATOM     20  C   UNL     1       0.304  10.082  18.498  0.00  0.00    +0.000 A 
ATOM     21  C   UNL     1       1.191   9.095  18.060  0.00  0.00    +0.000 A 
ENDBRANCH  13  16
TORSDOF 1
ENDMDL
MODEL 2
REMARK VINA RESULT:      -8.4      0.063      1.051
REMARK  Name = 
REMARK  1 active torsions:
REMARK  status: ('A' for Active; 'I' for Inactive)
REMARK    1  A    between atoms: C_13  and  C_14
REMARK                            x       y       z     vdW  Elec       q    Type
REMARK                         _______ _______ _______ _____ _____    ______ ____
ROOT
ATOM      1  O   UNL     1       1.865   5.312  20.791  0.00  0.00    +0.000 OA
ATOM      2  C   UNL     1       2.080   5.021  19.619  0.00  0.00    +0.000 C 
ATOM      3  O   UNL     1       1.448   3.935  19.071  0.00  0.00    +0.000 OA
ATOM      4  C   UNL     1       1.862   3.328  17.830  0.00  0.00    +0.000 C 
ATOM      5  C   UNL     1       3.061   2.420  18.084  0.00  0.00    +0.000 C 
ATOM      6  O   UNL     1       4.208   3.081  18.597  0.00  0.00    +0.000 OA
ATOM      7  C   UNL     1       4.773   4.146  17.853  0.00  0.00    +0.000 C 
ATOM      8  C   UNL     1       4.995   3.911  16.343  0.00  0.00    +0.000 C 
ATOM      9  C   UNL     1       5.848   5.066  15.754  0.00  0.00    +0.000 C 
ATOM     10  C   UNL     1       5.333   6.505  16.057  0.00  0.00    +0.000 C 
ATOM     11  C   UNL     1       4.375   6.494  17.192  0.00  0.00    +0.000 A 
ATOM     12  O   UNL     1       3.604   7.570  17.471  0.00  0.00    +0.000 OA
ATOM     13  C   UNL     1       2.737   7.186  18.471  0.00  0.00    +0.000 A 
ATOM     14  C   UNL     1       2.916   5.833  18.756  0.00  0.00    +0.000 A 
ATOM     15  C   UNL     1       4.048   5.435  18.003  0.00  0.00    +0.000 A 
ENDROOT
BRANCH  13  16
ATOM     16  C   UNL     1       1.841   8.236  18.952  0.00  0.00    +0.000 A 
ATOM     17  C   UNL     1       1.247   9.149  18.068  0.00  0.00    +0.000 A 
ATOM     18  C   UNL     1       0.423  10.177  18.544  0.00  0.00    +0.000 A 
ATOM     19  C   UNL     1       0.177  10.302  19.910  0.00  0.00    +0.000 A 
ATOM     20  C   UNL     1       0.749   9.399  20.799  0.00  0.00    +0.000 A 
ATOM     21  C   UNL     1       1.576   8.379  20.321  0.00  0.00    +0.000 A 
ENDBRANCH  13  16
TORSDOF 1
ENDMDL
MODEL 3
REMARK VINA RESULT:      -7.9      1.744      5.480
REMARK  Name = 
REMARK  1 active torsions:
REMARK  status: ('A' for Active; 'I' for Inactive)
REMARK    1  A    between atoms: C_13  and  C_14
REMARK                            x       y       z     vdW  Elec       q    Type
REMARK                         _______ _______ _______ _____ _____    ______ ____
ROOT
ATOM      1  O   UNL     1       3.290   1.906  17.256  0.00  0.00    +0.000 OA
ATOM      2  C   UNL     1       3.374   2.619  18.251  0.00  0.00    +0.000 C 
ATOM      3  O   UNL     1       3.662   2.047  19.463  0.00  0.00    +0.000 OA
ATOM      4  C   UNL     1       3.472   2.729  20.719  0.00  0.00    +0.000 C 
ATOM      5  C   UNL     1       2.000   2.667  21.113  0.00  0.00    +0.000 C 
ATOM      6  O   UNL     1       1.113   3.287  20.194  0.00  0.00    +0.000 OA
ATOM      7  C   UNL     1       1.298   4.657  19.885  0.00  0.00    +0.000 C 
ATOM      8  C   UNL     1       1.509   5.625  21.069  0.00  0.00    +0.000 C 
ATOM      9  C   UNL     1       1.432   7.091  20.566  0.00  0.00    +0.000 C 
ATOM     10  C   UNL     1       2.348   7.436  19.354  0.00  0.00    +0.000 C 
ATOM     11  C   UNL     1       2.792   6.200  18.660  0.00  0.00    +0.000 A 
ATOM     12  O   UNL     1       3.790   6.226  17.747  0.00  0.00    +0.000 OA
ATOM     13  C   UNL     1       4.051   4.915  17.410  0.00  0.00    +0.000 A 
ATOM     14  C   UNL     1       3.265   4.064  18.185  0.00  0.00    +0.000 A 
ATOM     15  C   UNL     1       2.384   4.910  18.902  0.00  0.00    +0.000 A 
ENDROOT
BRANCH  13  16
ATOM     16  C   UNL     1       5.080   4.731  16.388  0.00  0.00    +0.000 A 
ATOM     17  C   UNL     1       6.435   4.967  16.666  0.00  0.00    +0.000 A 
ATOM     18  C   UNL     1       7.407   4.827  15.668  0.00  0.00    +0.000 A 
ATOM     19  C   UNL     1       7.039   4.445  14.379  0.00  0.00    +0.000 A 
ATOM     20  C   UNL     1       5.702   4.196  14.090  0.00  0.00    +0.000 A 
ATOM     21  C   UNL     1       4.734   4.344  15.086  0.00  0.00    +0.000 A 
ENDBRANCH  13  16
TORSDOF 1
ENDMDL
MODEL 4
REMARK VINA RESULT:      -7.9      1.739      5.543
REMARK  Name = 
REMARK  1 active torsions:
REMARK  status: ('A' for Active; 'I' for Inactive)
REMARK    1  A    between atoms: C_13  and  C_14
REMARK                            x       y       z     vdW  Elec       q    Type
REMARK                         _______ _______ _______ _____ _____    ______ ____
ROOT
ATOM      1  O   UNL     1       3.319   1.947  17.210  0.00  0.00    +0.000 OA
ATOM      2  C   UNL     1       3.406   2.651  18.211  0.00  0.00    +0.000 C 
ATOM      3  O   UNL     1       3.711   2.070  19.415  0.00  0.00    +0.000 OA
ATOM      4  C   UNL     1       3.528   2.739  20.679  0.00  0.00    +0.000 C 
ATOM      5  C   UNL     1       2.060   2.659  21.087  0.00  0.00    +0.000 C 
ATOM      6  O   UNL     1       1.158   3.278  20.183  0.00  0.00    +0.000 OA
ATOM      7  C   UNL     1       1.326   4.653  19.885  0.00  0.00    +0.000 C 
ATOM      8  C   UNL     1       1.539   5.612  21.076  0.00  0.00    +0.000 C 
ATOM      9  C   UNL     1       1.443   7.082  20.588  0.00  0.00    +0.000 C 
ATOM     10  C   UNL     1       2.343   7.447  19.370  0.00  0.00    +0.000 C 
ATOM     11  C   UNL     1       2.792   6.222  18.660  0.00  0.00    +0.000 A 
ATOM     12  O   UNL     1       3.780   6.267  17.738  0.00  0.00    +0.000 OA
ATOM     13  C   UNL     1       4.052   4.961  17.386  0.00  0.00    +0.000 A 
ATOM     14  C   UNL     1       3.282   4.095  18.161  0.00  0.00    +0.000 A 
ATOM     15  C   UNL     1       2.399   4.926  18.894  0.00  0.00    +0.000 A 
ENDROOT
BRANCH  13  16
ATOM     16  C   UNL     1       5.072   4.797  16.352  0.00  0.00    +0.000 A 
ATOM     17  C   UNL     1       4.734   4.391  15.052  0.00  0.00    +0.000 A 
ATOM     18  C   UNL     1       5.725   4.197  14.081  0.00  0.00    +0.000 A 
ATOM     19  C   UNL     1       7.065   4.411  14.394  0.00  0.00    +0.000 A 
ATOM     20  C   UNL     1       7.416   4.824  15.675  0.00  0.00    +0.000 A 
ATOM     21  C   UNL     1       6.426   5.010  16.643  0.00  0.00    +0.000 A 
ENDBRANCH  13  16
TORSDOF 1
ENDMDL
MODEL 5
REMARK VINA RESULT:      -7.8      2.103      6.294
REMARK  Name = 
REMARK  1 active torsions:
REMARK  status: ('A' for Active; 'I' for Inactive)
REMARK    1  A    between atoms: C_13  and  C_14
REMARK                            x       y       z     vdW  Elec       q    Type
REMARK                         _______ _______ _______ _____ _____    ______ ____
ROOT
ATOM      1  O   UNL     1       6.041   7.029  16.886  0.00  0.00    +0.000 OA
ATOM      2  C   UNL     1       4.942   6.522  17.085  0.00  0.00    +0.000 C 
ATOM      3  O   UNL     1       3.842   7.332  17.199  0.00  0.00    +0.000 OA
ATOM      4  C   UNL     1       2.584   6.878  17.739  0.00  0.00    +0.000 C 
ATOM      5  C   UNL     1       2.658   6.872  19.263  0.00  0.00    +0.000 C 
ATOM      6  O   UNL     1       3.649   6.013  19.806  0.00  0.00    +0.000 OA
ATOM      7  C   UNL     1       3.605   4.633  19.489  0.00  0.00    +0.000 C 
ATOM      8  C   UNL     1       2.241   3.923  19.615  0.00  0.00    +0.000 C 
ATOM      9  C   UNL     1       2.435   2.389  19.485  0.00  0.00    +0.000 C 
ATOM     10  C   UNL     1       3.230   1.916  18.232  0.00  0.00    +0.000 C 
ATOM     11  C   UNL     1       4.001   3.039  17.641  0.00  0.00    +0.000 A 
ATOM     12  O   UNL     1       4.557   2.940  16.412  0.00  0.00    +0.000 OA
ATOM     13  C   UNL     1       5.063   4.185  16.105  0.00  0.00    +0.000 A 
ATOM     14  C   UNL     1       4.741   5.086  17.119  0.00  0.00    +0.000 A 
ATOM     15  C   UNL     1       4.156   4.307  18.147  0.00  0.00    +0.000 A 
ENDROOT
BRANCH  13  16
ATOM     16  C   UNL     1       5.755   4.274  14.821  0.00  0.00    +0.000 A 
ATOM     17  C   UNL     1       5.228   3.679  13.665  0.00  0.00    +0.000 A 
ATOM     18  C   UNL     1       5.920   3.736  12.449  0.00  0.00    +0.000 A 
ATOM     19  C   UNL     1       7.147   4.392  12.371  0.00  0.00    +0.000 A 
ATOM     20  C   UNL     1       7.679   4.996  13.505  0.00  0.00    +0.000 A 
ATOM     21  C   UNL     1       6.989   4.932  14.718  0.00  0.00    +0.000 A 
ENDBRANCH  13  16
TORSDOF 1
ENDMDL
MODEL 6
REMARK VINA RESULT:      -7.7      2.019      6.175
REMARK  Name = 
REMARK  1 active torsions:
REMARK  status: ('A' for Active; 'I' for Inactive)
REMARK    1  A    between atoms: C_13  and  C_14
REMARK                            x       y       z     vdW  Elec       q    Type
REMARK                         _______ _______ _______ _____ _____    ______ ____
ROOT
ATOM      1  O   UNL     1       5.993   6.979  17.207  0.00  0.00    +0.000 OA
ATOM      2  C   UNL     1       4.870   6.503  17.345  0.00  0.00    +0.000 C 
ATOM      3  O   UNL     1       3.790   7.345  17.418  0.00  0.00    +0.000 OA
ATOM      4  C   UNL     1       2.495   6.921  17.889  0.00  0.00    +0.000 C 
ATOM      5  C   UNL     1       2.493   6.893  19.414  0.00  0.00    +0.000 C 
ATOM      6  O   UNL     1       3.431   5.997  19.992  0.00  0.00    +0.000 OA
ATOM      7  C   UNL     1       3.362   4.623  19.652  0.00  0.00    +0.000 C 
ATOM      8  C   UNL     1       1.972   3.953  19.701  0.00  0.00    +0.000 C 
ATOM      9  C   UNL     1       2.127   2.416  19.558  0.00  0.00    +0.000 C 
ATOM     10  C   UNL     1       2.968   1.935  18.338  0.00  0.00    +0.000 C 
ATOM     11  C   UNL     1       3.800   3.043  17.802  0.00  0.00    +0.000 A 
ATOM     12  O   UNL     1       4.413   2.943  16.600  0.00  0.00    +0.000 OA
ATOM     13  C   UNL     1       4.970   4.177  16.337  0.00  0.00    +0.000 A 
ATOM     14  C   UNL     1       4.625   5.074  17.348  0.00  0.00    +0.000 A 
ATOM     15  C   UNL     1       3.968   4.298  18.334  0.00  0.00    +0.000 A 
ENDROOT
BRANCH  13  16
ATOM     16  C   UNL     1       5.727   4.263  15.090  0.00  0.00    +0.000 A 
ATOM     17  C   UNL     1       6.948   4.949  15.024  0.00  0.00    +0.000 A 
ATOM     18  C   UNL     1       7.645   5.059  13.814  0.00  0.00    +0.000 A 
ATOM     19  C   UNL     1       7.132   4.481  12.654  0.00  0.00    +0.000 A 
ATOM     20  C   UNL     1       5.928   3.788  12.705  0.00  0.00    +0.000 A 
ATOM     21  C   UNL     1       5.232   3.686  13.912  0.00  0.00    +0.000 A 
ENDBRANCH  13  16
TORSDOF 1
ENDMDL
MODEL 7
REMARK VINA RESULT:      -7.4      2.475      7.081
REMARK  Name = 
REMARK  1 active torsions:
REMARK  status: ('A' for Active; 'I' for Inactive)
REMARK    1  A    between atoms: C_13  and  C_14
REMARK                            x       y       z     vdW  Elec       q    Type
REMARK                         _______ _______ _______ _____ _____    ______ ____
ROOT
ATOM      1  O   UNL     1       2.052   9.592  17.515  0.00  0.00    +0.000 OA
ATOM      2  C   UNL     1       1.038   9.620  18.205  0.00  0.00    +0.000 C 
ATOM      3  O   UNL     1      -0.171   9.876  17.612  0.00  0.00    +0.000 OA
ATOM      4  C   UNL     1      -1.350  10.241  18.357  0.00  0.00    +0.000 C 
ATOM      5  C   UNL     1      -1.286  11.722  18.716  0.00  0.00    +0.000 C 
ATOM      6  O   UNL     1      -0.182  12.088  19.529  0.00  0.00    +0.000 OA
ATOM      7  C   UNL     1      -0.018  11.453  20.785  0.00  0.00    +0.000 C 
ATOM      8  C   UNL     1      -1.264  11.352  21.692  0.00  0.00    +0.000 C 
ATOM      9  C   UNL     1      -0.843  10.873  23.107  0.00  0.00    +0.000 C 
ATOM     10  C   UNL     1       0.022   9.578  23.148  0.00  0.00    +0.000 C 
ATOM     11  C   UNL     1       0.621   9.300  21.818  0.00  0.00    +0.000 A 
ATOM     12  O   UNL     1       1.194   8.107  21.540  0.00  0.00    +0.000 OA
ATOM     13  C   UNL     1       1.511   8.123  20.199  0.00  0.00    +0.000 A 
ATOM     14  C   UNL     1       1.052   9.307  19.622  0.00  0.00    +0.000 A 
ATOM     15  C   UNL     1       0.583  10.097  20.699  0.00  0.00    +0.000 A 
ENDROOT
BRANCH  13  16
ATOM     16  C   UNL     1       2.191   6.926  19.707  0.00  0.00    +0.000 A 
ATOM     17  C   UNL     1       3.021   6.971  18.578  0.00  0.00    +0.000 A 
ATOM     18  C   UNL     1       3.635   5.810  18.092  0.00  0.00    +0.000 A 
ATOM     19  C   UNL     1       3.430   4.589  18.731  0.00  0.00    +0.000 A 
ATOM     20  C   UNL     1       2.618   4.529  19.858  0.00  0.00    +0.000 A 
ATOM     21  C   UNL     1       2.002   5.688  20.336  0.00  0.00    +0.000 A 
ENDBRANCH  13  16
TORSDOF 1
ENDMDL
MODEL 8
REMARK VINA RESULT:      -7.4      2.473      7.020
REMARK  Name = 
REMARK  1 active torsions:
REMARK  status: ('A' for Active; 'I' for Inactive)
REMARK    1  A    between atoms: C_13  and  C_14
REMARK                            x       y       z     vdW  Elec       q    Type
REMARK                         _______ _______ _______ _____ _____    ______ ____
ROOT
ATOM      1  O   UNL     1       2.053   9.590  17.520  0.00  0.00    +0.000 OA
ATOM      2  C   UNL     1       1.041   9.618  18.212  0.00  0.00    +0.000 C 
ATOM      3  O   UNL     1      -0.168   9.882  17.621  0.00  0.00    +0.000 OA
ATOM      4  C   UNL     1      -1.345  10.247  18.369  0.00  0.00    +0.000 C 
ATOM      5  C   UNL     1      -1.275  11.726  18.736  0.00  0.00    +0.000 C 
ATOM      6  O   UNL     1      -0.169  12.084  19.551  0.00  0.00    +0.000 OA
ATOM      7  C   UNL     1      -0.007  11.442  20.803  0.00  0.00    +0.000 C 
ATOM      8  C   UNL     1      -1.251  11.341  21.710  0.00  0.00    +0.000 C 
ATOM      9  C   UNL     1      -0.832  10.852  23.122  0.00  0.00    +0.000 C 
ATOM     10  C   UNL     1       0.028   9.553  23.156  0.00  0.00    +0.000 C 
ATOM     11  C   UNL     1       0.625   9.281  21.823  0.00  0.00    +0.000 A 
ATOM     12  O   UNL     1       1.194   8.087  21.539  0.00  0.00    +0.000 OA
ATOM     13  C   UNL     1       1.509   8.109  20.197  0.00  0.00    +0.000 A 
ATOM     14  C   UNL     1       1.055   9.297  19.627  0.00  0.00    +0.000 A 
ATOM     15  C   UNL     1       0.590  10.084  20.709  0.00  0.00    +0.000 A 
ENDROOT
BRANCH  13  16
ATOM     16  C   UNL     1       2.184   6.912  19.699  0.00  0.00    +0.000 A 
ATOM     17  C   UNL     1       2.014   5.667  20.322  0.00  0.00    +0.000 A 
ATOM     18  C   UNL     1       2.698   4.535  19.860  0.00  0.00    +0.000 A 
ATOM     19  C   UNL     1       3.558   4.632  18.768  0.00  0.00    +0.000 A 
ATOM     20  C   UNL     1       3.729   5.857  18.133  0.00  0.00    +0.000 A 
ATOM     21  C   UNL     1       3.051   6.985  18.599  0.00  0.00    +0.000 A 
ENDBRANCH  13  16
TORSDOF 1
ENDMDL
MODEL 9
REMARK VINA RESULT:      -7.2      1.389      3.401
REMARK  Name = 
REMARK  1 active torsions:
REMARK  status: ('A' for Active; 'I' for Inactive)
REMARK    1  A    between atoms: C_13  and  C_14
REMARK                            x       y       z     vdW  Elec       q    Type
REMARK                         _______ _______ _______ _____ _____    ______ ____
ROOT
ATOM      1  O   UNL     1       3.522   7.295  16.970  0.00  0.00    +0.000 OA
ATOM      2  C   UNL     1       3.943   6.628  17.909  0.00  0.00    +0.000 C 
ATOM      3  O   UNL     1       5.295   6.464  18.062  0.00  0.00    +0.000 OA
ATOM      4  C   UNL     1       5.872   5.461  18.922  0.00  0.00    +0.000 C 
ATOM      5  C   UNL     1       5.855   4.112  18.211  0.00  0.00    +0.000 C 
ATOM      6  O   UNL     1       4.562   3.636  17.871  0.00  0.00    +0.000 OA
ATOM      7  C   UNL     1       3.606   3.460  18.901  0.00  0.00    +0.000 C 
ATOM      8  C   UNL     1       4.068   2.713  20.171  0.00  0.00    +0.000 C 
ATOM      9  C   UNL     1       2.840   2.389  21.063  0.00  0.00    +0.000 C 
ATOM     10  C   UNL     1       1.912   3.595  21.395  0.00  0.00    +0.000 C 
ATOM     11  C   UNL     1       2.150   4.719  20.453  0.00  0.00    +0.000 A 
ATOM     12  O   UNL     1       1.656   5.955  20.694  0.00  0.00    +0.000 OA
ATOM     13  C   UNL     1       2.175   6.784  19.723  0.00  0.00    +0.000 A 
ATOM     14  C   UNL     1       3.067   6.071  18.923  0.00  0.00    +0.000 A 
ATOM     15  C   UNL     1       2.952   4.721  19.338  0.00  0.00    +0.000 A 
ENDROOT
BRANCH  13  16
ATOM     16  C   UNL     1       1.718   8.171  19.782  0.00  0.00    +0.000 A 
ATOM     17  C   UNL     1       1.346   8.765  20.998  0.00  0.00    +0.000 A 
ATOM     18  C   UNL     1       0.870  10.081  21.037  0.00  0.00    +0.000 A 
ATOM     19  C   UNL     1       0.763  10.824  19.863  0.00  0.00    +0.000 A 
ATOM     20  C   UNL     1       1.138  10.254  18.651  0.00  0.00    +0.000 A 
ATOM     21  C   UNL     1       1.606   8.938  18.614  0.00  0.00    +0.000 A 
ENDBRANCH  13  16
TORSDOF 1
ENDMDL
