MODEL 1
REMARK VINA RESULT:      -7.4      0.000      0.000
REMARK  Name = 
REMARK  5 active torsions:
REMARK  status: ('A' for Active; 'I' for Inactive)
REMARK    1  A    between atoms: C_1  and  N_2
REMARK    2  A    between atoms: N_2  and  C_3
REMARK    3  A    between atoms: N_2  and  C_4
REMARK    4  A    between atoms: C_7  and  C_8
REMARK    5  A    between atoms: C_11  and  C_12
REMARK                            x       y       z     vdW  Elec       q    Type
REMARK                         _______ _______ _______ _____ _____    ______ ____
ROOT
ATOM      1  C   UNL     1       6.547   4.601  17.595  0.00  0.00    +0.000 C 
ATOM      2  C   UNL     1       5.592   4.536  16.409  0.00  0.00    +0.000 C 
ATOM      3  O   UNL     1       4.300   4.530  17.003  0.00  0.00    +0.000 OA
ATOM      4  C   UNL     1       4.526   4.189  18.298  0.00  0.00    +0.000 C 
ATOM      5  N   UNL     1       5.741   4.122  18.735  0.00  0.00    +0.000 NA
ENDROOT
BRANCH   4   6
ATOM      6  C   UNL     1       3.304   4.014  19.076  0.00  0.00    +0.000 A 
ATOM      7  C   UNL     1       2.744   5.071  19.791  0.00  0.00    +0.000 A 
ATOM      8  F   UNL     1       3.253   6.309  19.717  0.00  0.00    +0.000 F 
ATOM      9  C   UNL     1       1.622   4.875  20.598  0.00  0.00    +0.000 A 
ATOM     10  C   UNL     1       1.044   3.609  20.691  0.00  0.00    +0.000 A 
ATOM     11  C   UNL     1       1.583   2.550  19.963  0.00  0.00    +0.000 A 
ATOM     12  C   UNL     1       2.706   2.755  19.161  0.00  0.00    +0.000 A 
ATOM     13  F   UNL     1       3.214   1.696  18.515  0.00  0.00    +0.000 F 
ENDBRANCH   4   6
BRANCH   1  17
ATOM     14  C   UNL     1       8.177   8.618  18.223  0.00  0.00    +0.000 A 
ATOM     15  C   UNL     1       7.216   8.358  17.236  0.00  0.00    +0.000 A 
ATOM     16  C   UNL     1       6.684   7.080  17.036  0.00  0.00    +0.000 A 
ATOM     17  C   UNL     1       7.077   6.002  17.835  0.00  0.00    +0.000 A 
ATOM     18  C   UNL     1       7.991   6.249  18.859  0.00  0.00    +0.000 A 
ATOM     19  C   UNL     1       8.524   7.533  19.046  0.00  0.00    +0.000 A 
BRANCH  14  21
ATOM     20  C   UNL     1       9.445  10.203  19.632  0.00  0.00    +0.000 C 
ATOM     21  N   UNL     1       8.743   9.885  18.393  0.00  0.00    +0.000 N 
ATOM     22  C   UNL     1       8.190  11.003  17.636  0.00  0.00    +0.000 C 
ENDBRANCH  14  21
ENDBRANCH   1  17
TORSDOF 3
ENDMDL
MODEL 2
REMARK VINA RESULT:      -7.4      0.091      1.767
REMARK  Name = 
REMARK  5 active torsions:
REMARK  status: ('A' for Active; 'I' for Inactive)
REMARK    1  A    between atoms: C_1  and  N_2
REMARK    2  A    between atoms: N_2  and  C_3
REMARK    3  A    between atoms: N_2  and  C_4
REMARK    4  A    between atoms: C_7  and  C_8
REMARK    5  A    between atoms: C_11  and  C_12
REMARK                            x       y       z     vdW  Elec       q    Type
REMARK                         _______ _______ _______ _____ _____    ______ ____
ROOT
ATOM      1  C   UNL     1       6.566   4.561  17.598  0.00  0.00    +0.000 C 
ATOM      2  C   UNL     1       5.584   4.494  16.435  0.00  0.00    +0.000 C 
ATOM      3  O   UNL     1       4.307   4.465  17.059  0.00  0.00    +0.000 OA
ATOM      4  C   UNL     1       4.568   4.116  18.345  0.00  0.00    +0.000 C 
ATOM      5  N   UNL     1       5.794   4.063  18.753  0.00  0.00    +0.000 NA
ENDROOT
BRANCH   4   6
ATOM      6  C   UNL     1       3.368   3.919  19.150  0.00  0.00    +0.000 A 
ATOM      7  C   UNL     1       2.706   2.693  19.177  0.00  0.00    +0.000 A 
ATOM      8  F   UNL     1       3.199   1.622  18.537  0.00  0.00    +0.000 F 
ATOM      9  C   UNL     1       1.514   2.537  19.886  0.00  0.00    +0.000 A 
ATOM     10  C   UNL     1       0.973   3.616  20.585  0.00  0.00    +0.000 A 
ATOM     11  C   UNL     1       1.638   4.842  20.582  0.00  0.00    +0.000 A 
ATOM     12  C   UNL     1       2.828   4.989  19.869  0.00  0.00    +0.000 A 
ATOM     13  F   UNL     1       3.406   6.197  19.861  0.00  0.00    +0.000 F 
ENDBRANCH   4   6
BRANCH   1  17
ATOM     14  C   UNL     1       8.158   8.595  18.224  0.00  0.00    +0.000 A 
ATOM     15  C   UNL     1       7.183   8.328  17.252  0.00  0.00    +0.000 A 
ATOM     16  C   UNL     1       6.664   7.045  17.053  0.00  0.00    +0.000 A 
ATOM     17  C   UNL     1       7.083   5.967  17.838  0.00  0.00    +0.000 A 
ATOM     18  C   UNL     1       8.011   6.219  18.848  0.00  0.00    +0.000 A 
ATOM     19  C   UNL     1       8.532   7.509  19.034  0.00  0.00    +0.000 A 
BRANCH  14  21
ATOM     20  C   UNL     1       9.361  10.212  19.652  0.00  0.00    +0.000 C 
ATOM     21  N   UNL     1       8.711   9.868  18.392  0.00  0.00    +0.000 N 
ATOM     22  C   UNL     1       8.185  10.968  17.591  0.00  0.00    +0.000 C 
ENDBRANCH  14  21
ENDBRANCH   1  17
TORSDOF 3
ENDMDL
MODEL 3
REMARK VINA RESULT:      -7.2      0.258      1.043
REMARK  Name = 
REMARK  5 active torsions:
REMARK  status: ('A' for Active; 'I' for Inactive)
REMARK    1  A    between atoms: C_1  and  N_2
REMARK    2  A    between atoms: N_2  and  C_3
REMARK    3  A    between atoms: N_2  and  C_4
REMARK    4  A    between atoms: C_7  and  C_8
REMARK    5  A    between atoms: C_11  and  C_12
REMARK                            x       y       z     vdW  Elec       q    Type
REMARK                         _______ _______ _______ _____ _____    ______ ____
ROOT
ATOM      1  C   UNL     1       6.704   4.411  17.758  0.00  0.00    +0.000 C 
ATOM      2  C   UNL     1       5.834   4.277  16.514  0.00  0.00    +0.000 C 
ATOM      3  O   UNL     1       4.504   4.372  17.008  0.00  0.00    +0.000 OA
ATOM      4  C   UNL     1       4.622   4.139  18.340  0.00  0.00    +0.000 C 
ATOM      5  N   UNL     1       5.799   4.067  18.872  0.00  0.00    +0.000 NA
ENDROOT
BRANCH   4   6
ATOM      6  C   UNL     1       3.341   4.081  19.037  0.00  0.00    +0.000 A 
ATOM      7  C   UNL     1       2.862   5.169  19.763  0.00  0.00    +0.000 A 
ATOM      8  F   UNL     1       3.514   6.341  19.774  0.00  0.00    +0.000 F 
ATOM      9  C   UNL     1       1.676   5.076  20.493  0.00  0.00    +0.000 A 
ATOM     10  C   UNL     1       0.951   3.885  20.496  0.00  0.00    +0.000 A 
ATOM     11  C   UNL     1       1.411   2.797  19.756  0.00  0.00    +0.000 A 
ATOM     12  C   UNL     1       2.599   2.898  19.031  0.00  0.00    +0.000 A 
ATOM     13  F   UNL     1       3.021   1.812  18.371  0.00  0.00    +0.000 F 
ENDBRANCH   4   6
BRANCH   1  17
ATOM     14  C   UNL     1       8.252   8.478  18.262  0.00  0.00    +0.000 A 
ATOM     15  C   UNL     1       8.553   7.456  19.173  0.00  0.00    +0.000 A 
ATOM     16  C   UNL     1       8.070   6.153  19.013  0.00  0.00    +0.000 A 
ATOM     17  C   UNL     1       7.276   5.807  17.915  0.00  0.00    +0.000 A 
ATOM     18  C   UNL     1       7.009   6.795  16.967  0.00  0.00    +0.000 A 
ATOM     19  C   UNL     1       7.493   8.101  17.142  0.00  0.00    +0.000 A 
BRANCH  14  21
ATOM     20  C   UNL     1       9.278  10.184  19.725  0.00  0.00    +0.000 C 
ATOM     21  N   UNL     1       8.696   9.791  18.446  0.00  0.00    +0.000 N 
ATOM     22  C   UNL     1       8.107  10.847  17.630  0.00  0.00    +0.000 C 
ENDBRANCH  14  21
ENDBRANCH   1  17
TORSDOF 3
ENDMDL
MODEL 4
REMARK VINA RESULT:      -7.2      0.251      2.046
REMARK  Name = 
REMARK  5 active torsions:
REMARK  status: ('A' for Active; 'I' for Inactive)
REMARK    1  A    between atoms: C_1  and  N_2
REMARK    2  A    between atoms: N_2  and  C_3
REMARK    3  A    between atoms: N_2  and  C_4
REMARK    4  A    between atoms: C_7  and  C_8
REMARK    5  A    between atoms: C_11  and  C_12
REMARK                            x       y       z     vdW  Elec       q    Type
REMARK                         _______ _______ _______ _____ _____    ______ ____
ROOT
ATOM      1  C   UNL     1       6.725   4.446  17.676  0.00  0.00    +0.000 C 
ATOM      2  C   UNL     1       5.754   4.367  16.505  0.00  0.00    +0.000 C 
ATOM      3  O   UNL     1       4.470   4.418  17.114  0.00  0.00    +0.000 OA
ATOM      4  C   UNL     1       4.702   4.117  18.417  0.00  0.00    +0.000 C 
ATOM      5  N   UNL     1       5.920   4.031  18.842  0.00  0.00    +0.000 NA
ENDROOT
BRANCH   4   6
ATOM      6  C   UNL     1       3.486   4.004  19.215  0.00  0.00    +0.000 A 
ATOM      7  C   UNL     1       2.834   2.784  19.373  0.00  0.00    +0.000 A 
ATOM      8  F   UNL     1       3.347   1.649  18.875  0.00  0.00    +0.000 F 
ATOM      9  C   UNL     1       1.627   2.701  20.070  0.00  0.00    +0.000 A 
ATOM     10  C   UNL     1       1.064   3.850  20.625  0.00  0.00    +0.000 A 
ATOM     11  C   UNL     1       1.719   5.073  20.491  0.00  0.00    +0.000 A 
ATOM     12  C   UNL     1       2.923   5.146  19.790  0.00  0.00    +0.000 A 
ATOM     13  F   UNL     1       3.493   6.351  19.651  0.00  0.00    +0.000 F 
ENDBRANCH   4   6
BRANCH   1  17
ATOM     14  C   UNL     1       8.270   8.505  18.256  0.00  0.00    +0.000 A 
ATOM     15  C   UNL     1       8.550   7.472  19.162  0.00  0.00    +0.000 A 
ATOM     16  C   UNL     1       8.068   6.172  18.978  0.00  0.00    +0.000 A 
ATOM     17  C   UNL     1       7.297   5.839  17.860  0.00  0.00    +0.000 A 
ATOM     18  C   UNL     1       7.052   6.838  16.917  0.00  0.00    +0.000 A 
ATOM     19  C   UNL     1       7.534   8.141  17.115  0.00  0.00    +0.000 A 
BRANCH  14  21
ATOM     20  C   UNL     1       9.287  10.188  19.751  0.00  0.00    +0.000 C 
ATOM     21  N   UNL     1       8.712   9.815  18.463  0.00  0.00    +0.000 N 
ATOM     22  C   UNL     1       8.128  10.883  17.660  0.00  0.00    +0.000 C 
ENDBRANCH  14  21
ENDBRANCH   1  17
TORSDOF 3
ENDMDL
MODEL 5
REMARK VINA RESULT:      -7.2      3.460      5.164
REMARK  Name = 
REMARK  5 active torsions:
REMARK  status: ('A' for Active; 'I' for Inactive)
REMARK    1  A    between atoms: C_1  and  N_2
REMARK    2  A    between atoms: N_2  and  C_3
REMARK    3  A    between atoms: N_2  and  C_4
REMARK    4  A    between atoms: C_7  and  C_8
REMARK    5  A    between atoms: C_11  and  C_12
REMARK                            x       y       z     vdW  Elec       q    Type
REMARK                         _______ _______ _______ _____ _____    ______ ____
ROOT
ATOM      1  C   UNL     1       4.571   4.625  18.941  0.00  0.00    +0.000 C 
ATOM      2  C   UNL     1       3.181   4.003  19.003  0.00  0.00    +0.000 C 
ATOM      3  O   UNL     1       2.299   5.110  18.869  0.00  0.00    +0.000 OA
ATOM      4  C   UNL     1       3.070   6.192  19.145  0.00  0.00    +0.000 C 
ATOM      5  N   UNL     1       4.348   6.044  19.281  0.00  0.00    +0.000 NA
ENDROOT
BRANCH   4   6
ATOM      6  C   UNL     1       2.327   7.447  19.172  0.00  0.00    +0.000 A 
ATOM      7  C   UNL     1       2.359   8.331  18.095  0.00  0.00    +0.000 A 
ATOM      8  F   UNL     1       2.998   8.020  16.958  0.00  0.00    +0.000 F 
ATOM      9  C   UNL     1       1.711   9.565  18.162  0.00  0.00    +0.000 A 
ATOM     10  C   UNL     1       1.014   9.925  19.316  0.00  0.00    +0.000 A 
ATOM     11  C   UNL     1       0.958   9.039  20.391  0.00  0.00    +0.000 A 
ATOM     12  C   UNL     1       1.611   7.808  20.316  0.00  0.00    +0.000 A 
ATOM     13  F   UNL     1       1.565   7.010  21.391  0.00  0.00    +0.000 F 
ENDBRANCH   4   6
BRANCH   1  17
ATOM     14  C   UNL     1       6.383   4.296  14.966  0.00  0.00    +0.000 A 
ATOM     15  C   UNL     1       7.136   4.654  16.093  0.00  0.00    +0.000 A 
ATOM     16  C   UNL     1       6.566   4.752  17.367  0.00  0.00    +0.000 A 
ATOM     17  C   UNL     1       5.212   4.473  17.575  0.00  0.00    +0.000 A 
ATOM     18  C   UNL     1       4.455   4.061  16.478  0.00  0.00    +0.000 A 
ATOM     19  C   UNL     1       5.035   3.974  15.203  0.00  0.00    +0.000 A 
BRANCH  14  21
ATOM     20  C   UNL     1       7.868   5.286  13.258  0.00  0.00    +0.000 C 
ATOM     21  N   UNL     1       6.941   4.244  13.685  0.00  0.00    +0.000 N 
ATOM     22  C   UNL     1       6.223   3.522  12.640  0.00  0.00    +0.000 C 
ENDBRANCH  14  21
ENDBRANCH   1  17
TORSDOF 3
ENDMDL
MODEL 6
REMARK VINA RESULT:      -7.2      3.416      4.942
REMARK  Name = 
REMARK  5 active torsions:
REMARK  status: ('A' for Active; 'I' for Inactive)
REMARK    1  A    between atoms: C_1  and  N_2
REMARK    2  A    between atoms: N_2  and  C_3
REMARK    3  A    between atoms: N_2  and  C_4
REMARK    4  A    between atoms: C_7  and  C_8
REMARK    5  A    between atoms: C_11  and  C_12
REMARK                            x       y       z     vdW  Elec       q    Type
REMARK                         _______ _______ _______ _____ _____    ______ ____
ROOT
ATOM      1  C   UNL     1       4.802   4.392  18.520  0.00  0.00    +0.000 C 
ATOM      2  C   UNL     1       3.440   3.709  18.547  0.00  0.00    +0.000 C 
ATOM      3  O   UNL     1       2.512   4.786  18.578  0.00  0.00    +0.000 OA
ATOM      4  C   UNL     1       3.251   5.858  18.961  0.00  0.00    +0.000 C 
ATOM      5  N   UNL     1       4.538   5.748  19.039  0.00  0.00    +0.000 NA
ENDROOT
BRANCH   4   6
ATOM      6  C   UNL     1       2.462   7.068  19.165  0.00  0.00    +0.000 A 
ATOM      7  C   UNL     1       2.442   8.088  18.216  0.00  0.00    +0.000 A 
ATOM      8  F   UNL     1       3.073   7.957  17.040  0.00  0.00    +0.000 F 
ATOM      9  C   UNL     1       1.750   9.276  18.456  0.00  0.00    +0.000 A 
ATOM     10  C   UNL     1       1.061   9.450  19.656  0.00  0.00    +0.000 A 
ATOM     11  C   UNL     1       1.056   8.427  20.604  0.00  0.00    +0.000 A 
ATOM     12  C   UNL     1       1.753   7.244  20.356  0.00  0.00    +0.000 A 
ATOM     13  F   UNL     1       1.756   6.309  21.315  0.00  0.00    +0.000 F 
ENDBRANCH   4   6
BRANCH   1  17
ATOM     14  C   UNL     1       6.572   4.402  14.513  0.00  0.00    +0.000 A 
ATOM     15  C   UNL     1       5.214   4.123  14.719  0.00  0.00    +0.000 A 
ATOM     16  C   UNL     1       4.640   4.128  15.994  0.00  0.00    +0.000 A 
ATOM     17  C   UNL     1       5.400   4.434  17.127  0.00  0.00    +0.000 A 
ATOM     18  C   UNL     1       6.741   4.769  16.940  0.00  0.00    +0.000 A 
ATOM     19  C   UNL     1       7.309   4.754  15.656  0.00  0.00    +0.000 A 
BRANCH  14  21
ATOM     20  C   UNL     1       8.020   5.443  12.803  0.00  0.00    +0.000 C 
ATOM     21  N   UNL     1       7.156   4.352  13.243  0.00  0.00    +0.000 N 
ATOM     22  C   UNL     1       6.507   3.557  12.207  0.00  0.00    +0.000 C 
ENDBRANCH  14  21
ENDBRANCH   1  17
TORSDOF 3
ENDMDL
MODEL 7
REMARK VINA RESULT:      -7.2      3.144      6.976
REMARK  Name = 
REMARK  5 active torsions:
REMARK  status: ('A' for Active; 'I' for Inactive)
REMARK    1  A    between atoms: C_1  and  N_2
REMARK    2  A    between atoms: N_2  and  C_3
REMARK    3  A    between atoms: N_2  and  C_4
REMARK    4  A    between atoms: C_7  and  C_8
REMARK    5  A    between atoms: C_11  and  C_12
REMARK                            x       y       z     vdW  Elec       q    Type
REMARK                         _______ _______ _______ _____ _____    ______ ____
ROOT
ATOM      1  C   UNL     1       6.497   5.579  17.870  0.00  0.00    +0.000 C 
ATOM      2  C   UNL     1       6.213   6.907  17.180  0.00  0.00    +0.000 C 
ATOM      3  O   UNL     1       6.016   6.555  15.816  0.00  0.00    +0.000 OA
ATOM      4  C   UNL     1       6.551   5.312  15.708  0.00  0.00    +0.000 C 
ATOM      5  N   UNL     1       6.927   4.687  16.776  0.00  0.00    +0.000 NA
ENDROOT
BRANCH   4   6
ATOM      6  C   UNL     1       6.555   4.795  14.344  0.00  0.00    +0.000 A 
ATOM      7  C   UNL     1       5.540   3.958  13.884  0.00  0.00    +0.000 A 
ATOM      8  F   UNL     1       4.475   3.670  14.647  0.00  0.00    +0.000 F 
ATOM      9  C   UNL     1       5.594   3.403  12.605  0.00  0.00    +0.000 A 
ATOM     10  C   UNL     1       6.671   3.690  11.766  0.00  0.00    +0.000 A 
ATOM     11  C   UNL     1       7.681   4.544  12.208  0.00  0.00    +0.000 A 
ATOM     12  C   UNL     1       7.619   5.092  13.490  0.00  0.00    +0.000 A 
ATOM     13  F   UNL     1       8.635   5.871  13.885  0.00  0.00    +0.000 F 
ENDBRANCH   4   6
BRANCH   1  17
ATOM     14  C   UNL     1       2.931   3.973  19.845  0.00  0.00    +0.000 A 
ATOM     15  C   UNL     1       4.087   3.200  19.666  0.00  0.00    +0.000 A 
ATOM     16  C   UNL     1       5.232   3.709  19.045  0.00  0.00    +0.000 A 
ATOM     17  C   UNL     1       5.280   5.031  18.591  0.00  0.00    +0.000 A 
ATOM     18  C   UNL     1       4.161   5.835  18.808  0.00  0.00    +0.000 A 
ATOM     19  C   UNL     1       3.014   5.312  19.425  0.00  0.00    +0.000 A 
BRANCH  14  21
ATOM     20  C   UNL     1       1.827   2.878  21.765  0.00  0.00    +0.000 C 
ATOM     21  N   UNL     1       1.770   3.451  20.424  0.00  0.00    +0.000 N 
ATOM     22  C   UNL     1       0.701   2.988  19.547  0.00  0.00    +0.000 C 
ENDBRANCH  14  21
ENDBRANCH   1  17
TORSDOF 3
ENDMDL
MODEL 8
REMARK VINA RESULT:      -7.2      3.166      6.934
REMARK  Name = 
REMARK  5 active torsions:
REMARK  status: ('A' for Active; 'I' for Inactive)
REMARK    1  A    between atoms: C_1  and  N_2
REMARK    2  A    between atoms: N_2  and  C_3
REMARK    3  A    between atoms: N_2  and  C_4
REMARK    4  A    between atoms: C_7  and  C_8
REMARK    5  A    between atoms: C_11  and  C_12
REMARK                            x       y       z     vdW  Elec       q    Type
REMARK                         _______ _______ _______ _____ _____    ______ ____
ROOT
ATOM      1  C   UNL     1       6.288   5.795  17.761  0.00  0.00    +0.000 C 
ATOM      2  C   UNL     1       5.929   7.045  16.968  0.00  0.00    +0.000 C 
ATOM      3  O   UNL     1       5.833   6.589  15.624  0.00  0.00    +0.000 OA
ATOM      4  C   UNL     1       6.476   5.393  15.627  0.00  0.00    +0.000 C 
ATOM      5  N   UNL     1       6.847   4.874  16.752  0.00  0.00    +0.000 NA
ENDROOT
BRANCH   4   6
ATOM      6  C   UNL     1       6.593   4.790  14.304  0.00  0.00    +0.000 A 
ATOM      7  C   UNL     1       7.626   5.140  13.438  0.00  0.00    +0.000 A 
ATOM      8  F   UNL     1       8.604   5.975  13.820  0.00  0.00    +0.000 F 
ATOM      9  C   UNL     1       7.683   4.619  12.144  0.00  0.00    +0.000 A 
ATOM     10  C   UNL     1       6.701   3.731  11.707  0.00  0.00    +0.000 A 
ATOM     11  C   UNL     1       5.674   3.357  12.573  0.00  0.00    +0.000 A 
ATOM     12  C   UNL     1       5.624   3.885  13.863  0.00  0.00    +0.000 A 
ATOM     13  F   UNL     1       4.595   3.530  14.643  0.00  0.00    +0.000 F 
ENDBRANCH   4   6
BRANCH   1  17
ATOM     14  C   UNL     1       2.776   4.012  19.679  0.00  0.00    +0.000 A 
ATOM     15  C   UNL     1       4.015   3.356  19.652  0.00  0.00    +0.000 A 
ATOM     16  C   UNL     1       5.142   3.923  19.050  0.00  0.00    +0.000 A 
ATOM     17  C   UNL     1       5.086   5.191  18.462  0.00  0.00    +0.000 A 
ATOM     18  C   UNL     1       3.878   5.885  18.526  0.00  0.00    +0.000 A 
ATOM     19  C   UNL     1       2.750   5.303  19.126  0.00  0.00    +0.000 A 
BRANCH  14  21
ATOM     20  C   UNL     1       1.677   2.941  21.615  0.00  0.00    +0.000 C 
ATOM     21  N   UNL     1       1.637   3.425  20.239  0.00  0.00    +0.000 N 
ATOM     22  C   UNL     1       0.654   2.819  19.349  0.00  0.00    +0.000 C 
ENDBRANCH  14  21
ENDBRANCH   1  17
TORSDOF 3
ENDMDL
MODEL 9
REMARK VINA RESULT:      -7.1      2.703      4.875
REMARK  Name = 
REMARK  5 active torsions:
REMARK  status: ('A' for Active; 'I' for Inactive)
REMARK    1  A    between atoms: C_1  and  N_2
REMARK    2  A    between atoms: N_2  and  C_3
REMARK    3  A    between atoms: N_2  and  C_4
REMARK    4  A    between atoms: C_7  and  C_8
REMARK    5  A    between atoms: C_11  and  C_12
REMARK                            x       y       z     vdW  Elec       q    Type
REMARK                         _______ _______ _______ _____ _____    ______ ____
ROOT
ATOM      1  C   UNL     1       5.789   5.909  17.701  0.00  0.00    +0.000 C 
ATOM      2  C   UNL     1       6.562   5.203  18.809  0.00  0.00    +0.000 C 
ATOM      3  O   UNL     1       5.587   4.384  19.443  0.00  0.00    +0.000 OA
ATOM      4  C   UNL     1       4.398   4.901  19.042  0.00  0.00    +0.000 C 
ATOM      5  N   UNL     1       4.379   5.813  18.124  0.00  0.00    +0.000 NA
ENDROOT
BRANCH   4   6
ATOM      6  C   UNL     1       3.244   4.269  19.672  0.00  0.00    +0.000 A 
ATOM      7  C   UNL     1       3.079   2.886  19.659  0.00  0.00    +0.000 A 
ATOM      8  F   UNL     1       4.019   2.077  19.147  0.00  0.00    +0.000 F 
ATOM      9  C   UNL     1       1.932   2.296  20.192  0.00  0.00    +0.000 A 
ATOM     10  C   UNL     1       0.936   3.094  20.755  0.00  0.00    +0.000 A 
ATOM     11  C   UNL     1       1.101   4.478  20.793  0.00  0.00    +0.000 A 
ATOM     12  C   UNL     1       2.250   5.059  20.254  0.00  0.00    +0.000 A 
ATOM     13  F   UNL     1       2.343   6.395  20.275  0.00  0.00    +0.000 F 
ENDBRANCH   4   6
BRANCH   1  17
ATOM     14  C   UNL     1       6.363   4.152  13.729  0.00  0.00    +0.000 A 
ATOM     15  C   UNL     1       7.365   4.909  14.353  0.00  0.00    +0.000 A 
ATOM     16  C   UNL     1       7.192   5.465  15.625  0.00  0.00    +0.000 A 
ATOM     17  C   UNL     1       6.009   5.269  16.344  0.00  0.00    +0.000 A 
ATOM     18  C   UNL     1       5.020   4.473  15.766  0.00  0.00    +0.000 A 
ATOM     19  C   UNL     1       5.201   3.926  14.486  0.00  0.00    +0.000 A 
BRANCH  14  21
ATOM     20  C   UNL     1       7.409   4.301  11.496  0.00  0.00    +0.000 C 
ATOM     21  N   UNL     1       6.518   3.634  12.440  0.00  0.00    +0.000 N 
ATOM     22  C   UNL     1       5.442   2.823  11.880  0.00  0.00    +0.000 C 
ENDBRANCH  14  21
ENDBRANCH   1  17
TORSDOF 3
ENDMDL
