MODEL 1
REMARK VINA RESULT:      -7.9      0.000      0.000
REMARK  Name = 
REMARK  9 active torsions:
REMARK  status: ('A' for Active; 'I' for Inactive)
REMARK    1  A    between atoms: C_1  and  O_2
REMARK    2  A    between atoms: O_2  and  C_3
REMARK    3  A    between atoms: C_6  and  C_7
REMARK    4  A    between atoms: C_7  and  O_8
REMARK    5  A    between atoms: C_9  and  C_10
REMARK    6  A    between atoms: C_10  and  C_12
REMARK    7  A    between atoms: N_15  and  C_16
REMARK    8  A    between atoms: C_16  and  C_17
REMARK    9  A    between atoms: C_24  and  C_25
REMARK                            x       y       z     vdW  Elec       q    Type
REMARK                         _______ _______ _______ _____ _____    ______ ____
ROOT
ATOM      1  C   UNL     1       0.550  10.970  19.201  0.00  0.00    +0.000 C 
ATOM      2  O   UNL     1       1.323  11.867  18.884  0.00  0.00    +0.000 OA
ENDROOT
BRANCH   1   3
ATOM      3  C   UNL     1       1.001   9.676  19.717  0.00  0.00    +0.000 A 
ATOM      4  N   UNL     1       0.855   9.293  21.030  0.00  0.00    +0.000 NA
ATOM      5  N   UNL     1       1.421   8.113  21.193  0.00  0.00    +0.000 NA
ATOM      6  N   UNL     1       1.904   7.716  20.001  0.00  0.00    +0.000 N 
ATOM      7  C   UNL     1       1.655   8.660  19.028  0.00  0.00    +0.000 A 
ATOM      8  C   UNL     1       2.072   8.552  17.613  0.00  0.00    +0.000 C 
BRANCH   6   9
ATOM      9  C   UNL     1       2.772   6.552  19.948  0.00  0.00    +0.000 C 
BRANCH   9  10
ATOM     10  C   UNL     1       2.064   5.273  19.571  0.00  0.00    +0.000 A 
ATOM     11  C   UNL     1       2.091   4.820  18.241  0.00  0.00    +0.000 A 
ATOM     12  C   UNL     1       1.575   3.567  17.906  0.00  0.00    +0.000 A 
ATOM     13  C   UNL     1       1.023   2.764  18.896  0.00  0.00    +0.000 A 
ATOM     14  F   UNL     1       0.566   1.545  18.578  0.00  0.00    +0.000 F 
ATOM     15  C   UNL     1       0.957   3.199  20.212  0.00  0.00    +0.000 A 
ATOM     16  C   UNL     1       1.474   4.452  20.551  0.00  0.00    +0.000 A 
ENDBRANCH   9  10
ENDBRANCH   6   9
ENDBRANCH   1   3
BRANCH   1  18
ATOM     17  C   UNL     1      -1.632  11.912  18.366  0.00  0.00    +0.000 C 
ATOM     18  C   UNL     1      -0.940  11.095  19.175  0.00  0.00    +0.000 C 
BRANCH  17  22
ATOM     19  C   UNL     1      -5.950  12.028  18.400  0.00  0.00    +0.000 A 
ATOM     20  C   UNL     1      -5.227  12.470  19.506  0.00  0.00    +0.000 A 
ATOM     21  C   UNL     1      -3.827  12.461  19.495  0.00  0.00    +0.000 A 
ATOM     22  C   UNL     1      -3.117  11.973  18.388  0.00  0.00    +0.000 A 
ATOM     23  C   UNL     1      -3.859  11.522  17.285  0.00  0.00    +0.000 A 
ATOM     24  C   UNL     1      -5.263  11.553  17.287  0.00  0.00    +0.000 A 
BRANCH  19  26
ATOM     25  C   UNL     1      -7.914  13.349  18.483  0.00  0.00    +0.000 C 
ATOM     26  O   UNL     1      -7.310  12.063  18.543  0.00  0.00    +0.000 OA
ENDBRANCH  19  26
ENDBRANCH  17  22
BRANCH  17  27
ATOM     27  O   UNL     1      -1.003  12.705  17.431  0.00  0.00    +0.000 OA
ATOM     28  H   UNL     1      -1.682  13.208  16.950  0.00  0.00    +0.000 HD
ENDBRANCH  17  27
ENDBRANCH   1  18
TORSDOF 7
ENDMDL
MODEL 2
REMARK VINA RESULT:      -7.9      7.341      9.599
REMARK  Name = 
REMARK  9 active torsions:
REMARK  status: ('A' for Active; 'I' for Inactive)
REMARK    1  A    between atoms: C_1  and  O_2
REMARK    2  A    between atoms: O_2  and  C_3
REMARK    3  A    between atoms: C_6  and  C_7
REMARK    4  A    between atoms: C_7  and  O_8
REMARK    5  A    between atoms: C_9  and  C_10
REMARK    6  A    between atoms: C_10  and  C_12
REMARK    7  A    between atoms: N_15  and  C_16
REMARK    8  A    between atoms: C_16  and  C_17
REMARK    9  A    between atoms: C_24  and  C_25
REMARK                            x       y       z     vdW  Elec       q    Type
REMARK                         _______ _______ _______ _____ _____    ______ ____
ROOT
ATOM      1  C   UNL     1       6.756   6.560  17.099  0.00  0.00    +0.000 C 
ATOM      2  O   UNL     1       7.455   5.582  16.857  0.00  0.00    +0.000 OA
ENDROOT
BRANCH   1   3
ATOM      3  C   UNL     1       5.304   6.479  17.266  0.00  0.00    +0.000 A 
ATOM      4  N   UNL     1       4.537   7.520  17.733  0.00  0.00    +0.000 NA
ATOM      5  N   UNL     1       3.286   7.113  17.835  0.00  0.00    +0.000 NA
ATOM      6  N   UNL     1       3.229   5.836  17.413  0.00  0.00    +0.000 N 
ATOM      7  C   UNL     1       4.474   5.387  17.029  0.00  0.00    +0.000 A 
ATOM      8  C   UNL     1       4.771   4.023  16.538  0.00  0.00    +0.000 C 
BRANCH   6   9
ATOM      9  C   UNL     1       2.009   5.079  17.633  0.00  0.00    +0.000 C 
BRANCH   9  10
ATOM     10  C   UNL     1       2.027   4.232  18.883  0.00  0.00    +0.000 A 
ATOM     11  C   UNL     1       2.177   4.840  20.141  0.00  0.00    +0.000 A 
ATOM     12  C   UNL     1       2.043   4.091  21.312  0.00  0.00    +0.000 A 
ATOM     13  C   UNL     1       1.766   2.732  21.232  0.00  0.00    +0.000 A 
ATOM     14  F   UNL     1       1.597   2.026  22.357  0.00  0.00    +0.000 F 
ATOM     15  C   UNL     1       1.642   2.102  20.001  0.00  0.00    +0.000 A 
ATOM     16  C   UNL     1       1.774   2.849  18.828  0.00  0.00    +0.000 A 
ENDBRANCH   9  10
ENDBRANCH   6   9
ENDBRANCH   1   3
BRANCH   1  18
ATOM     17  C   UNL     1       8.164   8.279  18.288  0.00  0.00    +0.000 C 
ATOM     18  C   UNL     1       7.289   7.938  17.328  0.00  0.00    +0.000 C 
BRANCH  17  22
ATOM     19  C   UNL     1       9.669  12.300  18.760  0.00  0.00    +0.000 A 
ATOM     20  C   UNL     1       8.764  12.003  17.743  0.00  0.00    +0.000 A 
ATOM     21  C   UNL     1       8.250  10.709  17.597  0.00  0.00    +0.000 A 
ATOM     22  C   UNL     1       8.660   9.670  18.446  0.00  0.00    +0.000 A 
ATOM     23  C   UNL     1       9.580   9.982  19.460  0.00  0.00    +0.000 A 
ATOM     24  C   UNL     1      10.077  11.285  19.620  0.00  0.00    +0.000 A 
BRANCH  19  26
ATOM     25  C   UNL     1      10.978  13.975  17.717  0.00  0.00    +0.000 C 
ATOM     26  O   UNL     1      10.116  13.592  18.782  0.00  0.00    +0.000 OA
ENDBRANCH  19  26
ENDBRANCH  17  22
BRANCH  17  27
ATOM     27  O   UNL     1       8.692   7.341  19.148  0.00  0.00    +0.000 OA
ATOM     28  H   UNL     1       8.007   7.096  19.792  0.00  0.00    +0.000 HD
ENDBRANCH  17  27
ENDBRANCH   1  18
TORSDOF 7
ENDMDL
MODEL 3
REMARK VINA RESULT:      -7.7      0.418      1.373
REMARK  Name = 
REMARK  9 active torsions:
REMARK  status: ('A' for Active; 'I' for Inactive)
REMARK    1  A    between atoms: C_1  and  O_2
REMARK    2  A    between atoms: O_2  and  C_3
REMARK    3  A    between atoms: C_6  and  C_7
REMARK    4  A    between atoms: C_7  and  O_8
REMARK    5  A    between atoms: C_9  and  C_10
REMARK    6  A    between atoms: C_10  and  C_12
REMARK    7  A    between atoms: N_15  and  C_16
REMARK    8  A    between atoms: C_16  and  C_17
REMARK    9  A    between atoms: C_24  and  C_25
REMARK                            x       y       z     vdW  Elec       q    Type
REMARK                         _______ _______ _______ _____ _____    ______ ____
ROOT
ATOM      1  C   UNL     1       0.695  10.628  18.983  0.00  0.00    +0.000 C 
ATOM      2  O   UNL     1       1.478  11.530  18.706  0.00  0.00    +0.000 OA
ENDROOT
BRANCH   1   3
ATOM      3  C   UNL     1       1.123   9.350  19.557  0.00  0.00    +0.000 A 
ATOM      4  N   UNL     1       0.827   8.962  20.843  0.00  0.00    +0.000 NA
ATOM      5  N   UNL     1       1.409   7.802  21.080  0.00  0.00    +0.000 NA
ATOM      6  N   UNL     1       2.051   7.423  19.959  0.00  0.00    +0.000 N 
ATOM      7  C   UNL     1       1.893   8.358  18.959  0.00  0.00    +0.000 A 
ATOM      8  C   UNL     1       2.487   8.265  17.607  0.00  0.00    +0.000 C 
BRANCH   6   9
ATOM      9  C   UNL     1       2.959   6.290  20.020  0.00  0.00    +0.000 C 
BRANCH   9  10
ATOM     10  C   UNL     1       2.332   4.977  19.615  0.00  0.00    +0.000 A 
ATOM     11  C   UNL     1       1.550   4.259  20.536  0.00  0.00    +0.000 A 
ATOM     12  C   UNL     1       0.841   3.125  20.134  0.00  0.00    +0.000 A 
ATOM     13  C   UNL     1       0.915   2.701  18.813  0.00  0.00    +0.000 A 
ATOM     14  F   UNL     1       0.200   1.638  18.421  0.00  0.00    +0.000 F 
ATOM     15  C   UNL     1       1.703   3.375  17.891  0.00  0.00    +0.000 A 
ATOM     16  C   UNL     1       2.413   4.511  18.290  0.00  0.00    +0.000 A 
ENDBRANCH   9  10
ENDBRANCH   6   9
ENDBRANCH   1   3
BRANCH   1  18
ATOM     17  C   UNL     1      -1.442  11.742  18.248  0.00  0.00    +0.000 C 
ATOM     18  C   UNL     1      -0.790  10.731  18.845  0.00  0.00    +0.000 C 
BRANCH  17  22
ATOM     19  C   UNL     1      -5.749  11.884  17.957  0.00  0.00    +0.000 A 
ATOM     20  C   UNL     1      -4.985  11.468  16.869  0.00  0.00    +0.000 A 
ATOM     21  C   UNL     1      -3.590  11.393  16.961  0.00  0.00    +0.000 A 
ATOM     22  C   UNL     1      -2.923  11.771  18.137  0.00  0.00    +0.000 A 
ATOM     23  C   UNL     1      -3.706  12.198  19.221  0.00  0.00    +0.000 A 
ATOM     24  C   UNL     1      -5.106  12.250  19.136  0.00  0.00    +0.000 A 
BRANCH  19  26
ATOM     25  C   UNL     1      -7.832  12.845  18.548  0.00  0.00    +0.000 C 
ATOM     26  O   UNL     1      -7.097  11.939  17.733  0.00  0.00    +0.000 OA
ENDBRANCH  19  26
ENDBRANCH  17  22
BRANCH  17  27
ATOM     27  O   UNL     1      -0.766  12.788  17.657  0.00  0.00    +0.000 OA
ATOM     28  H   UNL     1      -1.404  13.318  17.152  0.00  0.00    +0.000 HD
ENDBRANCH  17  27
ENDBRANCH   1  18
TORSDOF 7
ENDMDL
MODEL 4
REMARK VINA RESULT:      -7.6      7.443      9.486
REMARK  Name = 
REMARK  9 active torsions:
REMARK  status: ('A' for Active; 'I' for Inactive)
REMARK    1  A    between atoms: C_1  and  O_2
REMARK    2  A    between atoms: O_2  and  C_3
REMARK    3  A    between atoms: C_6  and  C_7
REMARK    4  A    between atoms: C_7  and  O_8
REMARK    5  A    between atoms: C_9  and  C_10
REMARK    6  A    between atoms: C_10  and  C_12
REMARK    7  A    between atoms: N_15  and  C_16
REMARK    8  A    between atoms: C_16  and  C_17
REMARK    9  A    between atoms: C_24  and  C_25
REMARK                            x       y       z     vdW  Elec       q    Type
REMARK                         _______ _______ _______ _____ _____    ______ ____
ROOT
ATOM      1  C   UNL     1       6.944   6.476  16.968  0.00  0.00    +0.000 C 
ATOM      2  O   UNL     1       7.686   5.542  16.683  0.00  0.00    +0.000 OA
ENDROOT
BRANCH   1   3
ATOM      3  C   UNL     1       5.501   6.317  17.152  0.00  0.00    +0.000 A 
ATOM      4  N   UNL     1       4.697   7.290  17.698  0.00  0.00    +0.000 NA
ATOM      5  N   UNL     1       3.468   6.821  17.794  0.00  0.00    +0.000 NA
ATOM      6  N   UNL     1       3.460   5.572  17.291  0.00  0.00    +0.000 N 
ATOM      7  C   UNL     1       4.716   5.206  16.858  0.00  0.00    +0.000 A 
ATOM      8  C   UNL     1       5.065   3.892  16.275  0.00  0.00    +0.000 C 
BRANCH   6   9
ATOM      9  C   UNL     1       2.279   4.747  17.481  0.00  0.00    +0.000 C 
BRANCH   9  10
ATOM     10  C   UNL     1       2.228   4.045  18.818  0.00  0.00    +0.000 A 
ATOM     11  C   UNL     1       1.485   4.600  19.874  0.00  0.00    +0.000 A 
ATOM     12  C   UNL     1       1.301   3.892  21.063  0.00  0.00    +0.000 A 
ATOM     13  C   UNL     1       1.864   2.629  21.204  0.00  0.00    +0.000 A 
ATOM     14  F   UNL     1       1.651   1.935  22.330  0.00  0.00    +0.000 F 
ATOM     15  C   UNL     1       2.626   2.071  20.187  0.00  0.00    +0.000 A 
ATOM     16  C   UNL     1       2.810   2.777  18.996  0.00  0.00    +0.000 A 
ENDBRANCH   9  10
ENDBRANCH   6   9
ENDBRANCH   1   3
BRANCH   1  18
ATOM     17  C   UNL     1       8.198   8.239  18.258  0.00  0.00    +0.000 C 
ATOM     18  C   UNL     1       7.412   7.870  17.234  0.00  0.00    +0.000 C 
BRANCH  17  22
ATOM     19  C   UNL     1       9.404  12.350  18.806  0.00  0.00    +0.000 A 
ATOM     20  C   UNL     1       9.834  11.367  19.696  0.00  0.00    +0.000 A 
ATOM     21  C   UNL     1       9.470  10.028  19.512  0.00  0.00    +0.000 A 
ATOM     22  C   UNL     1       8.635   9.646  18.452  0.00  0.00    +0.000 A 
ATOM     23  C   UNL     1       8.201  10.649  17.570  0.00  0.00    +0.000 A 
ATOM     24  C   UNL     1       8.585  11.988  17.741  0.00  0.00    +0.000 A 
BRANCH  19  26
ATOM     25  C   UNL     1       9.796  13.973  20.486  0.00  0.00    +0.000 C 
ATOM     26  O   UNL     1       9.805  13.622  19.107  0.00  0.00    +0.000 OA
ENDBRANCH  19  26
ENDBRANCH  17  22
BRANCH  17  27
ATOM     27  O   UNL     1       8.688   7.319  19.160  0.00  0.00    +0.000 OA
ATOM     28  H   UNL     1       9.402   6.820  18.730  0.00  0.00    +0.000 HD
ENDBRANCH  17  27
ENDBRANCH   1  18
TORSDOF 7
ENDMDL
MODEL 5
REMARK VINA RESULT:      -7.6      7.696     10.162
REMARK  Name = 
REMARK  9 active torsions:
REMARK  status: ('A' for Active; 'I' for Inactive)
REMARK    1  A    between atoms: C_1  and  O_2
REMARK    2  A    between atoms: O_2  and  C_3
REMARK    3  A    between atoms: C_6  and  C_7
REMARK    4  A    between atoms: C_7  and  O_8
REMARK    5  A    between atoms: C_9  and  C_10
REMARK    6  A    between atoms: C_10  and  C_12
REMARK    7  A    between atoms: N_15  and  C_16
REMARK    8  A    between atoms: C_16  and  C_17
REMARK    9  A    between atoms: C_24  and  C_25
REMARK                            x       y       z     vdW  Elec       q    Type
REMARK                         _______ _______ _______ _____ _____    ______ ____
ROOT
ATOM      1  C   UNL     1       8.124   7.648  18.322  0.00  0.00    +0.000 C 
ATOM      2  O   UNL     1       8.568   7.073  19.310  0.00  0.00    +0.000 OA
ENDROOT
BRANCH   1   3
ATOM      3  C   UNL     1       7.109   7.058  17.447  0.00  0.00    +0.000 A 
ATOM      4  N   UNL     1       6.170   7.800  16.770  0.00  0.00    +0.000 NA
ATOM      5  N   UNL     1       5.361   6.978  16.129  0.00  0.00    +0.000 NA
ATOM      6  N   UNL     1       5.782   5.720  16.357  0.00  0.00    +0.000 N 
ATOM      7  C   UNL     1       6.892   5.711  17.174  0.00  0.00    +0.000 A 
ATOM      8  C   UNL     1       7.592   4.494  17.642  0.00  0.00    +0.000 C 
BRANCH   6   9
ATOM      9  C   UNL     1       4.935   4.612  15.949  0.00  0.00    +0.000 C 
BRANCH   9  10
ATOM     10  C   UNL     1       3.958   4.162  17.010  0.00  0.00    +0.000 A 
ATOM     11  C   UNL     1       3.078   5.089  17.593  0.00  0.00    +0.000 A 
ATOM     12  C   UNL     1       2.069   4.663  18.459  0.00  0.00    +0.000 A 
ATOM     13  C   UNL     1       1.940   3.311  18.752  0.00  0.00    +0.000 A 
ATOM     14  F   UNL     1       0.946   2.901  19.550  0.00  0.00    +0.000 F 
ATOM     15  C   UNL     1       2.815   2.378  18.211  0.00  0.00    +0.000 A 
ATOM     16  C   UNL     1       3.824   2.801  17.343  0.00  0.00    +0.000 A 
ENDBRANCH   9  10
ENDBRANCH   6   9
ENDBRANCH   1   3
BRANCH   1  18
ATOM     17  C   UNL     1       9.030   9.961  18.737  0.00  0.00    +0.000 C 
ATOM     18  C   UNL     1       8.496   9.039  17.921  0.00  0.00    +0.000 C 
BRANCH  17  22
ATOM     19  C   UNL     1      10.034  13.948  17.411  0.00  0.00    +0.000 A 
ATOM     20  C   UNL     1      10.996  12.940  17.398  0.00  0.00    +0.000 A 
ATOM     21  C   UNL     1      10.674  11.639  17.801  0.00  0.00    +0.000 A 
ATOM     22  C   UNL     1       9.387  11.323  18.263  0.00  0.00    +0.000 A 
ATOM     23  C   UNL     1       8.431  12.351  18.280  0.00  0.00    +0.000 A 
ATOM     24  C   UNL     1       8.748  13.651  17.853  0.00  0.00    +0.000 A 
BRANCH  19  26
ATOM     25  C   UNL     1      11.885  15.382  17.059  0.00  0.00    +0.000 C 
ATOM     26  O   UNL     1      10.477  15.180  17.019  0.00  0.00    +0.000 OA
ENDBRANCH  19  26
ENDBRANCH  17  22
BRANCH  17  27
ATOM     27  O   UNL     1       9.327   9.677  20.053  0.00  0.00    +0.000 OA
ATOM     28  H   UNL     1      10.268   9.868  20.202  0.00  0.00    +0.000 HD
ENDBRANCH  17  27
ENDBRANCH   1  18
TORSDOF 7
ENDMDL
MODEL 6
REMARK VINA RESULT:      -7.5      4.327      9.386
REMARK  Name = 
REMARK  9 active torsions:
REMARK  status: ('A' for Active; 'I' for Inactive)
REMARK    1  A    between atoms: C_1  and  O_2
REMARK    2  A    between atoms: O_2  and  C_3
REMARK    3  A    between atoms: C_6  and  C_7
REMARK    4  A    between atoms: C_7  and  O_8
REMARK    5  A    between atoms: C_9  and  C_10
REMARK    6  A    between atoms: C_10  and  C_12
REMARK    7  A    between atoms: N_15  and  C_16
REMARK    8  A    between atoms: C_16  and  C_17
REMARK    9  A    between atoms: C_24  and  C_25
REMARK                            x       y       z     vdW  Elec       q    Type
REMARK                         _______ _______ _______ _____ _____    ______ ____
ROOT
ATOM      1  C   UNL     1       2.182   6.270  20.008  0.00  0.00    +0.000 C 
ATOM      2  O   UNL     1       2.077   5.464  20.926  0.00  0.00    +0.000 OA
ENDROOT
BRANCH   1   3
ATOM      3  C   UNL     1       1.686   7.644  20.094  0.00  0.00    +0.000 A 
ATOM      4  N   UNL     1       1.088   8.163  21.219  0.00  0.00    +0.000 NA
ATOM      5  N   UNL     1       0.690   9.394  20.959  0.00  0.00    +0.000 NA
ATOM      6  N   UNL     1       1.048   9.687  19.694  0.00  0.00    +0.000 N 
ATOM      7  C   UNL     1       1.693   8.622  19.104  0.00  0.00    +0.000 A 
ATOM      8  C   UNL     1       2.196   8.598  17.713  0.00  0.00    +0.000 C 
BRANCH   6   9
ATOM      9  C   UNL     1       0.532  10.900  19.083  0.00  0.00    +0.000 C 
BRANCH   9  10
ATOM     10  C   UNL     1      -0.903  10.794  18.623  0.00  0.00    +0.000 A 
ATOM     11  C   UNL     1      -1.881  11.637  19.177  0.00  0.00    +0.000 A 
ATOM     12  C   UNL     1      -3.177  11.659  18.657  0.00  0.00    +0.000 A 
ATOM     13  C   UNL     1      -3.502  10.835  17.587  0.00  0.00    +0.000 A 
ATOM     14  F   UNL     1      -4.734  10.888  17.064  0.00  0.00    +0.000 F 
ATOM     15  C   UNL     1      -2.562   9.971  17.041  0.00  0.00    +0.000 A 
ATOM     16  C   UNL     1      -1.265   9.948  17.558  0.00  0.00    +0.000 A 
ENDBRANCH   9  10
ENDBRANCH   6   9
ENDBRANCH   1   3
BRANCH   1  18
ATOM     17  C   UNL     1       4.152   5.555  18.609  0.00  0.00    +0.000 C 
ATOM     18  C   UNL     1       2.886   5.988  18.720  0.00  0.00    +0.000 C 
BRANCH  17  22
ATOM     19  C   UNL     1       6.021   4.822  14.785  0.00  0.00    +0.000 A 
ATOM     20  C   UNL     1       5.803   3.771  15.673  0.00  0.00    +0.000 A 
ATOM     21  C   UNL     1       5.175   3.993  16.904  0.00  0.00    +0.000 A 
ATOM     22  C   UNL     1       4.781   5.283  17.291  0.00  0.00    +0.000 A 
ATOM     23  C   UNL     1       5.016   6.334  16.390  0.00  0.00    +0.000 A 
ATOM     24  C   UNL     1       5.625   6.106  15.146  0.00  0.00    +0.000 A 
BRANCH  19  26
ATOM     25  C   UNL     1       6.027   3.499  12.820  0.00  0.00    +0.000 C 
ATOM     26  O   UNL     1       6.665   4.481  13.628  0.00  0.00    +0.000 OA
ENDBRANCH  19  26
ENDBRANCH  17  22
BRANCH  17  27
ATOM     27  O   UNL     1       4.922   5.286  19.720  0.00  0.00    +0.000 OA
ATOM     28  H   UNL     1       4.375   4.805  20.363  0.00  0.00    +0.000 HD
ENDBRANCH  17  27
ENDBRANCH   1  18
TORSDOF 7
ENDMDL
MODEL 7
REMARK VINA RESULT:      -7.5      7.332      9.529
REMARK  Name = 
REMARK  9 active torsions:
REMARK  status: ('A' for Active; 'I' for Inactive)
REMARK    1  A    between atoms: C_1  and  O_2
REMARK    2  A    between atoms: O_2  and  C_3
REMARK    3  A    between atoms: C_6  and  C_7
REMARK    4  A    between atoms: C_7  and  O_8
REMARK    5  A    between atoms: C_9  and  C_10
REMARK    6  A    between atoms: C_10  and  C_12
REMARK    7  A    between atoms: N_15  and  C_16
REMARK    8  A    between atoms: C_16  and  C_17
REMARK    9  A    between atoms: C_24  and  C_25
REMARK                            x       y       z     vdW  Elec       q    Type
REMARK                         _______ _______ _______ _____ _____    ______ ____
ROOT
ATOM      1  C   UNL     1       6.771   6.614  17.070  0.00  0.00    +0.000 C 
ATOM      2  O   UNL     1       7.468   5.646  16.788  0.00  0.00    +0.000 OA
ENDROOT
BRANCH   1   3
ATOM      3  C   UNL     1       5.323   6.523  17.264  0.00  0.00    +0.000 A 
ATOM      4  N   UNL     1       4.573   7.522  17.841  0.00  0.00    +0.000 NA
ATOM      5  N   UNL     1       3.323   7.112  17.937  0.00  0.00    +0.000 NA
ATOM      6  N   UNL     1       3.249   5.877  17.404  0.00  0.00    +0.000 N 
ATOM      7  C   UNL     1       4.481   5.461  16.951  0.00  0.00    +0.000 A 
ATOM      8  C   UNL     1       4.759   4.145  16.333  0.00  0.00    +0.000 C 
BRANCH   6   9
ATOM      9  C   UNL     1       2.030   5.108  17.585  0.00  0.00    +0.000 C 
BRANCH   9  10
ATOM     10  C   UNL     1       2.015   4.263  18.837  0.00  0.00    +0.000 A 
ATOM     11  C   UNL     1       2.313   2.892  18.763  0.00  0.00    +0.000 A 
ATOM     12  C   UNL     1       2.454   2.132  19.925  0.00  0.00    +0.000 A 
ATOM     13  C   UNL     1       2.292   2.736  21.166  0.00  0.00    +0.000 A 
ATOM     14  F   UNL     1       2.469   2.013  22.280  0.00  0.00    +0.000 F 
ATOM     15  C   UNL     1       1.969   4.083  21.266  0.00  0.00    +0.000 A 
ATOM     16  C   UNL     1       1.829   4.846  20.104  0.00  0.00    +0.000 A 
ENDBRANCH   9  10
ENDBRANCH   6   9
ENDBRANCH   1   3
BRANCH   1  18
ATOM     17  C   UNL     1       8.169   8.312  18.299  0.00  0.00    +0.000 C 
ATOM     18  C   UNL     1       7.304   7.987  17.325  0.00  0.00    +0.000 C 
BRANCH  17  22
ATOM     19  C   UNL     1       9.553  12.371  18.819  0.00  0.00    +0.000 A 
ATOM     20  C   UNL     1       9.918  11.382  19.730  0.00  0.00    +0.000 A 
ATOM     21  C   UNL     1       9.496  10.058  19.557  0.00  0.00    +0.000 A 
ATOM     22  C   UNL     1       8.666   9.700  18.484  0.00  0.00    +0.000 A 
ATOM     23  C   UNL     1       8.299  10.709  17.579  0.00  0.00    +0.000 A 
ATOM     24  C   UNL     1       8.741  12.031  17.740  0.00  0.00    +0.000 A 
BRANCH  19  26
ATOM     25  C   UNL     1      11.008  14.150  18.247  0.00  0.00    +0.000 C 
ATOM     26  O   UNL     1      10.006  13.627  19.111  0.00  0.00    +0.000 OA
ENDBRANCH  19  26
ENDBRANCH  17  22
BRANCH  17  27
ATOM     27  O   UNL     1       8.686   7.361  19.152  0.00  0.00    +0.000 OA
ATOM     28  H   UNL     1       9.559   7.662  19.453  0.00  0.00    +0.000 HD
ENDBRANCH  17  27
ENDBRANCH   1  18
TORSDOF 7
ENDMDL
MODEL 8
REMARK VINA RESULT:      -7.4      2.632      3.165
REMARK  Name = 
REMARK  9 active torsions:
REMARK  status: ('A' for Active; 'I' for Inactive)
REMARK    1  A    between atoms: C_1  and  O_2
REMARK    2  A    between atoms: O_2  and  C_3
REMARK    3  A    between atoms: C_6  and  C_7
REMARK    4  A    between atoms: C_7  and  O_8
REMARK    5  A    between atoms: C_9  and  C_10
REMARK    6  A    between atoms: C_10  and  C_12
REMARK    7  A    between atoms: N_15  and  C_16
REMARK    8  A    between atoms: C_16  and  C_17
REMARK    9  A    between atoms: C_24  and  C_25
REMARK                            x       y       z     vdW  Elec       q    Type
REMARK                         _______ _______ _______ _____ _____    ______ ____
ROOT
ATOM      1  C   UNL     1       0.619  10.605  20.200  0.00  0.00    +0.000 C 
ATOM      2  O   UNL     1       1.159  11.151  21.156  0.00  0.00    +0.000 OA
ENDROOT
BRANCH   1   3
ATOM      3  C   UNL     1       1.303   9.631  19.349  0.00  0.00    +0.000 A 
ATOM      4  N   UNL     1       1.654   9.882  18.043  0.00  0.00    +0.000 NA
ATOM      5  N   UNL     1       2.188   8.790  17.530  0.00  0.00    +0.000 NA
ATOM      6  N   UNL     1       2.214   7.849  18.492  0.00  0.00    +0.000 N 
ATOM      7  C   UNL     1       1.679   8.329  19.667  0.00  0.00    +0.000 A 
ATOM      8  C   UNL     1       1.533   7.549  20.916  0.00  0.00    +0.000 C 
BRANCH   6   9
ATOM      9  C   UNL     1       2.547   6.482  18.128  0.00  0.00    +0.000 C 
BRANCH   9  10
ATOM     10  C   UNL     1       4.027   6.183  18.149  0.00  0.00    +0.000 A 
ATOM     11  C   UNL     1       4.883   6.807  17.225  0.00  0.00    +0.000 A 
ATOM     12  C   UNL     1       6.268   6.661  17.329  0.00  0.00    +0.000 A 
ATOM     13  C   UNL     1       6.803   5.886  18.350  0.00  0.00    +0.000 A 
ATOM     14  F   UNL     1       8.133   5.781  18.471  0.00  0.00    +0.000 F 
ATOM     15  C   UNL     1       5.978   5.235  19.258  0.00  0.00    +0.000 A 
ATOM     16  C   UNL     1       4.592   5.381  19.158  0.00  0.00    +0.000 A 
ENDBRANCH   9  10
ENDBRANCH   6   9
ENDBRANCH   1   3
BRANCH   1  18
ATOM     17  C   UNL     1      -1.248  11.580  18.817  0.00  0.00    +0.000 C 
ATOM     18  C   UNL     1      -0.814  10.800  19.820  0.00  0.00    +0.000 C 
BRANCH  17  22
ATOM     19  C   UNL     1      -5.440  11.913  17.829  0.00  0.00    +0.000 A 
ATOM     20  C   UNL     1      -4.992  12.236  19.108  0.00  0.00    +0.000 A 
ATOM     21  C   UNL     1      -3.632  12.157  19.431  0.00  0.00    +0.000 A 
ATOM     22  C   UNL     1      -2.691  11.715  18.489  0.00  0.00    +0.000 A 
ATOM     23  C   UNL     1      -3.159  11.382  17.208  0.00  0.00    +0.000 A 
ATOM     24  C   UNL     1      -4.519  11.484  16.877  0.00  0.00    +0.000 A 
BRANCH  19  26
ATOM     25  C   UNL     1      -7.274  13.253  17.160  0.00  0.00    +0.000 C 
ATOM     26  O   UNL     1      -6.791  12.006  17.646  0.00  0.00    +0.000 OA
ENDBRANCH  19  26
ENDBRANCH  17  22
BRANCH  17  27
ATOM     27  O   UNL     1      -0.371  12.261  18.000  0.00  0.00    +0.000 OA
ATOM     28  H   UNL     1      -0.586  13.207  18.042  0.00  0.00    +0.000 HD
ENDBRANCH  17  27
ENDBRANCH   1  18
TORSDOF 7
ENDMDL
MODEL 9
REMARK VINA RESULT:      -7.4      4.245      9.305
REMARK  Name = 
REMARK  9 active torsions:
REMARK  status: ('A' for Active; 'I' for Inactive)
REMARK    1  A    between atoms: C_1  and  O_2
REMARK    2  A    between atoms: O_2  and  C_3
REMARK    3  A    between atoms: C_6  and  C_7
REMARK    4  A    between atoms: C_7  and  O_8
REMARK    5  A    between atoms: C_9  and  C_10
REMARK    6  A    between atoms: C_10  and  C_12
REMARK    7  A    between atoms: N_15  and  C_16
REMARK    8  A    between atoms: C_16  and  C_17
REMARK    9  A    between atoms: C_24  and  C_25
REMARK                            x       y       z     vdW  Elec       q    Type
REMARK                         _______ _______ _______ _____ _____    ______ ____
ROOT
ATOM      1  C   UNL     1       2.061   6.356  20.021  0.00  0.00    +0.000 C 
ATOM      2  O   UNL     1       1.882   5.549  20.927  0.00  0.00    +0.000 OA
ENDROOT
BRANCH   1   3
ATOM      3  C   UNL     1       1.616   7.748  20.095  0.00  0.00    +0.000 A 
ATOM      4  N   UNL     1       0.995   8.286  21.198  0.00  0.00    +0.000 NA
ATOM      5  N   UNL     1       0.656   9.532  20.929  0.00  0.00    +0.000 NA
ATOM      6  N   UNL     1       1.075   9.816  19.681  0.00  0.00    +0.000 N 
ATOM      7  C   UNL     1       1.700   8.729  19.111  0.00  0.00    +0.000 A 
ATOM      8  C   UNL     1       2.256   8.690  17.740  0.00  0.00    +0.000 C 
BRANCH   6   9
ATOM      9  C   UNL     1       0.630  11.050  19.056  0.00  0.00    +0.000 C 
BRANCH   9  10
ATOM     10  C   UNL     1      -0.803  11.017  18.580  0.00  0.00    +0.000 A 
ATOM     11  C   UNL     1      -1.215  10.038  17.661  0.00  0.00    +0.000 A 
ATOM     12  C   UNL     1      -2.564   9.898  17.330  0.00  0.00    +0.000 A 
ATOM     13  C   UNL     1      -3.505  10.741  17.909  0.00  0.00    +0.000 A 
ATOM     14  F   UNL     1      -4.803  10.577  17.620  0.00  0.00    +0.000 F 
ATOM     15  C   UNL     1      -3.120  11.736  18.797  0.00  0.00    +0.000 A 
ATOM     16  C   UNL     1      -1.771  11.877  19.132  0.00  0.00    +0.000 A 
ENDBRANCH   9  10
ENDBRANCH   6   9
ENDBRANCH   1   3
BRANCH   1  18
ATOM     17  C   UNL     1       4.095   5.662  18.705  0.00  0.00    +0.000 C 
ATOM     18  C   UNL     1       2.812   6.054  18.764  0.00  0.00    +0.000 C 
BRANCH  17  22
ATOM     19  C   UNL     1       6.030   4.746  14.954  0.00  0.00    +0.000 A 
ATOM     20  C   UNL     1       5.608   6.046  15.228  0.00  0.00    +0.000 A 
ATOM     21  C   UNL     1       5.004   6.359  16.451  0.00  0.00    +0.000 A 
ATOM     22  C   UNL     1       4.773   5.367  17.417  0.00  0.00    +0.000 A 
ATOM     23  C   UNL     1       5.194   4.060  17.122  0.00  0.00    +0.000 A 
ATOM     24  C   UNL     1       5.821   3.752  15.905  0.00  0.00    +0.000 A 
BRANCH  19  26
ATOM     25  C   UNL     1       5.974   3.569  12.899  0.00  0.00    +0.000 C 
ATOM     26  O   UNL     1       6.582   4.563  13.716  0.00  0.00    +0.000 OA
ENDBRANCH  19  26
ENDBRANCH  17  22
BRANCH  17  27
ATOM     27  O   UNL     1       4.841   5.461  19.847  0.00  0.00    +0.000 OA
ATOM     28  H   UNL     1       5.533   6.142  19.884  0.00  0.00    +0.000 HD
ENDBRANCH  17  27
ENDBRANCH   1  18
TORSDOF 7
ENDMDL
