MODEL 1
REMARK VINA RESULT:      -7.0      0.000      0.000
REMARK  Name = 
REMARK  5 active torsions:
REMARK  status: ('A' for Active; 'I' for Inactive)
REMARK    1  A    between atoms: C_2  and  C_4
REMARK    2  A    between atoms: C_4  and  S_5
REMARK    3  A    between atoms: S_5  and  C_8
REMARK    4  A    between atoms: C_11  and  S_12
REMARK    5  A    between atoms: S_12  and  C_13
REMARK                            x       y       z     vdW  Elec       q    Type
REMARK                         _______ _______ _______ _____ _____    ______ ____
ROOT
ATOM      1  C   UNL     1       1.246   9.238  19.705  0.00  0.00    +0.000 A 
ATOM      2  C   UNL     1       1.629   9.295  18.365  0.00  0.00    +0.000 A 
ATOM      3  C   UNL     1       2.305   8.210  17.801  0.00  0.00    +0.000 A 
ATOM      4  C   UNL     1       2.615   7.081  18.572  0.00  0.00    +0.000 A 
ATOM      5  C   UNL     1       2.232   7.041  19.919  0.00  0.00    +0.000 A 
ATOM      6  C   UNL     1       1.554   8.121  20.490  0.00  0.00    +0.000 A 
ENDROOT
BRANCH   1   7
ATOM      7  S   UNL     1       0.371  10.612  20.452  0.00  0.00    +0.000 S 
ATOM      8  O   UNL     1      -0.460  11.190  19.413  0.00  0.00    +0.000 OA
ATOM      9  O   UNL     1       1.409  11.381  21.110  0.00  0.00    +0.000 OA
BRANCH   7  10
ATOM     10  C   UNL     1      -0.664   9.807  21.625  0.00  0.00    +0.000 C 
BRANCH  10  12
ATOM     11  O   UNL     1       0.310   9.706  23.802  0.00  0.00    +0.000 OA
ATOM     12  C   UNL     1      -0.413  10.335  22.983  0.00  0.00    +0.000 C 
ATOM     13  O   UNL     1      -1.124  11.305  23.401  0.00  0.00    +0.000 OA
ENDBRANCH  10  12
ENDBRANCH   7  10
ENDBRANCH   1   7
BRANCH   4  14
ATOM     14  S   UNL     1       3.440   5.694  17.821  0.00  0.00    +0.000 S 
BRANCH  14  15
ATOM     15  C   UNL     1       5.180   6.034  18.053  0.00  0.00    +0.000 A 
ATOM     16  C   UNL     1       5.832   5.400  19.120  0.00  0.00    +0.000 A 
ATOM     17  C   UNL     1       7.196   5.606  19.351  0.00  0.00    +0.000 A 
ATOM     18  C   UNL     1       7.925   6.444  18.512  0.00  0.00    +0.000 A 
ATOM     19  C   UNL     1       7.293   7.067  17.439  0.00  0.00    +0.000 A 
ATOM     20  C   UNL     1       5.931   6.859  17.207  0.00  0.00    +0.000 A 
ENDBRANCH  14  15
ENDBRANCH   4  14
TORSDOF 5
ENDMDL
MODEL 2
REMARK VINA RESULT:      -7.0      2.022      3.005
REMARK  Name = 
REMARK  5 active torsions:
REMARK  status: ('A' for Active; 'I' for Inactive)
REMARK    1  A    between atoms: C_2  and  C_4
REMARK    2  A    between atoms: C_4  and  S_5
REMARK    3  A    between atoms: S_5  and  C_8
REMARK    4  A    between atoms: C_11  and  S_12
REMARK    5  A    between atoms: S_12  and  C_13
REMARK                            x       y       z     vdW  Elec       q    Type
REMARK                         _______ _______ _______ _____ _____    ______ ____
ROOT
ATOM      1  C   UNL     1       1.297   8.833  19.636  0.00  0.00    +0.000 A 
ATOM      2  C   UNL     1       1.759   7.677  20.264  0.00  0.00    +0.000 A 
ATOM      3  C   UNL     1       2.634   6.831  19.578  0.00  0.00    +0.000 A 
ATOM      4  C   UNL     1       3.034   7.125  18.267  0.00  0.00    +0.000 A 
ATOM      5  C   UNL     1       2.555   8.285  17.646  0.00  0.00    +0.000 A 
ATOM      6  C   UNL     1       1.681   9.137  18.325  0.00  0.00    +0.000 A 
ENDROOT
BRANCH   1   7
ATOM      7  S   UNL     1       0.179   9.940  20.495  0.00  0.00    +0.000 S 
ATOM      8  O   UNL     1      -0.927  10.198  19.592  0.00  0.00    +0.000 OA
ATOM      9  O   UNL     1       1.033  11.009  20.974  0.00  0.00    +0.000 OA
BRANCH   7  10
ATOM     10  C   UNL     1      -0.395   8.941  21.824  0.00  0.00    +0.000 C 
BRANCH  10  12
ATOM     11  O   UNL     1      -1.313  10.602  23.273  0.00  0.00    +0.000 OA
ATOM     12  C   UNL     1      -0.431   9.722  23.079  0.00  0.00    +0.000 C 
ATOM     13  O   UNL     1       0.575   9.670  23.858  0.00  0.00    +0.000 OA
ENDBRANCH  10  12
ENDBRANCH   7  10
ENDBRANCH   1   7
BRANCH   4  14
ATOM     14  S   UNL     1       4.182   6.054  17.429  0.00  0.00    +0.000 S 
BRANCH  14  15
ATOM     15  C   UNL     1       3.688   4.406  17.916  0.00  0.00    +0.000 A 
ATOM     16  C   UNL     1       4.462   3.752  18.884  0.00  0.00    +0.000 A 
ATOM     17  C   UNL     1       4.125   2.469  19.325  0.00  0.00    +0.000 A 
ATOM     18  C   UNL     1       3.003   1.828  18.807  0.00  0.00    +0.000 A 
ATOM     19  C   UNL     1       2.216   2.473  17.856  0.00  0.00    +0.000 A 
ATOM     20  C   UNL     1       2.553   3.756  17.418  0.00  0.00    +0.000 A 
ENDBRANCH  14  15
ENDBRANCH   4  14
TORSDOF 5
ENDMDL
MODEL 3
REMARK VINA RESULT:      -6.8      2.060      2.768
REMARK  Name = 
REMARK  5 active torsions:
REMARK  status: ('A' for Active; 'I' for Inactive)
REMARK    1  A    between atoms: C_2  and  C_4
REMARK    2  A    between atoms: C_4  and  S_5
REMARK    3  A    between atoms: S_5  and  C_8
REMARK    4  A    between atoms: C_11  and  S_12
REMARK    5  A    between atoms: S_12  and  C_13
REMARK                            x       y       z     vdW  Elec       q    Type
REMARK                         _______ _______ _______ _____ _____    ______ ____
ROOT
ATOM      1  C   UNL     1       1.329   8.859  19.468  0.00  0.00    +0.000 A 
ATOM      2  C   UNL     1       1.791   9.140  18.182  0.00  0.00    +0.000 A 
ATOM      3  C   UNL     1       2.681   8.256  17.568  0.00  0.00    +0.000 A 
ATOM      4  C   UNL     1       3.125   7.107  18.237  0.00  0.00    +0.000 A 
ATOM      5  C   UNL     1       2.660   6.842  19.531  0.00  0.00    +0.000 A 
ATOM      6  C   UNL     1       1.768   7.720  20.152  0.00  0.00    +0.000 A 
ENDROOT
BRANCH   1   7
ATOM      7  S   UNL     1       0.181   9.972  20.277  0.00  0.00    +0.000 S 
ATOM      8  O   UNL     1      -0.958  10.113  19.389  0.00  0.00    +0.000 OA
ATOM      9  O   UNL     1       0.993  11.111  20.656  0.00  0.00    +0.000 OA
BRANCH   7  10
ATOM     10  C   UNL     1      -0.312   9.045  21.689  0.00  0.00    +0.000 C 
BRANCH  10  12
ATOM     11  O   UNL     1       1.120   9.565  23.527  0.00  0.00    +0.000 OA
ATOM     12  C   UNL     1       0.030   9.773  22.929  0.00  0.00    +0.000 C 
ATOM     13  O   UNL     1      -0.886  10.434  23.520  0.00  0.00    +0.000 OA
ENDBRANCH  10  12
ENDBRANCH   7  10
ENDBRANCH   1   7
BRANCH   4  14
ATOM     14  S   UNL     1       4.227   5.974  17.418  0.00  0.00    +0.000 S 
BRANCH  14  15
ATOM     15  C   UNL     1       3.680   4.359  17.953  0.00  0.00    +0.000 A 
ATOM     16  C   UNL     1       4.443   3.701  18.928  0.00  0.00    +0.000 A 
ATOM     17  C   UNL     1       4.065   2.443  19.406  0.00  0.00    +0.000 A 
ATOM     18  C   UNL     1       2.913   1.830  18.919  0.00  0.00    +0.000 A 
ATOM     19  C   UNL     1       2.137   2.480  17.962  0.00  0.00    +0.000 A 
ATOM     20  C   UNL     1       2.515   3.738  17.486  0.00  0.00    +0.000 A 
ENDBRANCH  14  15
ENDBRANCH   4  14
TORSDOF 5
ENDMDL
MODEL 4
REMARK VINA RESULT:      -6.7      2.312      3.363
REMARK  Name = 
REMARK  5 active torsions:
REMARK  status: ('A' for Active; 'I' for Inactive)
REMARK    1  A    between atoms: C_2  and  C_4
REMARK    2  A    between atoms: C_4  and  S_5
REMARK    3  A    between atoms: S_5  and  C_8
REMARK    4  A    between atoms: C_11  and  S_12
REMARK    5  A    between atoms: S_12  and  C_13
REMARK                            x       y       z     vdW  Elec       q    Type
REMARK                         _______ _______ _______ _____ _____    ______ ____
ROOT
ATOM      1  C   UNL     1       1.160   9.578  19.722  0.00  0.00    +0.000 A 
ATOM      2  C   UNL     1       1.401   8.489  20.559  0.00  0.00    +0.000 A 
ATOM      3  C   UNL     1       2.070   7.373  20.051  0.00  0.00    +0.000 A 
ATOM      4  C   UNL     1       2.482   7.333  18.712  0.00  0.00    +0.000 A 
ATOM      5  C   UNL     1       2.226   8.431  17.881  0.00  0.00    +0.000 A 
ATOM      6  C   UNL     1       1.558   9.552  18.381  0.00  0.00    +0.000 A 
ENDROOT
BRANCH   1   7
ATOM      7  S   UNL     1       0.310  11.026  20.350  0.00  0.00    +0.000 S 
ATOM      8  O   UNL     1      -0.380  11.625  19.222  0.00  0.00    +0.000 OA
ATOM      9  O   UNL     1       1.329  11.748  21.086  0.00  0.00    +0.000 OA
BRANCH   7  10
ATOM     10  C   UNL     1      -0.882  10.323  21.436  0.00  0.00    +0.000 C 
BRANCH  10  12
ATOM     11  O   UNL     1       0.035   9.963  23.611  0.00  0.00    +0.000 OA
ATOM     12  C   UNL     1      -0.604  10.722  22.833  0.00  0.00    +0.000 C 
ATOM     13  O   UNL     1      -1.221  11.727  23.315  0.00  0.00    +0.000 OA
ENDBRANCH  10  12
ENDBRANCH   7  10
ENDBRANCH   1   7
BRANCH   4  14
ATOM     14  S   UNL     1       3.369   5.918  18.098  0.00  0.00    +0.000 S 
BRANCH  14  15
ATOM     15  C   UNL     1       2.639   4.530  18.956  0.00  0.00    +0.000 A 
ATOM     16  C   UNL     1       3.368   3.956  20.007  0.00  0.00    +0.000 A 
ATOM     17  C   UNL     1       2.850   2.879  20.734  0.00  0.00    +0.000 A 
ATOM     18  C   UNL     1       1.593   2.369  20.422  0.00  0.00    +0.000 A 
ATOM     19  C   UNL     1       0.852   2.941  19.391  0.00  0.00    +0.000 A 
ATOM     20  C   UNL     1       1.368   4.018  18.667  0.00  0.00    +0.000 A 
ENDBRANCH  14  15
ENDBRANCH   4  14
TORSDOF 5
ENDMDL
MODEL 5
REMARK VINA RESULT:      -6.7      4.344      7.464
REMARK  Name = 
REMARK  5 active torsions:
REMARK  status: ('A' for Active; 'I' for Inactive)
REMARK    1  A    between atoms: C_2  and  C_4
REMARK    2  A    between atoms: C_4  and  S_5
REMARK    3  A    between atoms: S_5  and  C_8
REMARK    4  A    between atoms: C_11  and  S_12
REMARK    5  A    between atoms: S_12  and  C_13
REMARK                            x       y       z     vdW  Elec       q    Type
REMARK                         _______ _______ _______ _____ _____    ______ ____
ROOT
ATOM      1  C   UNL     1       2.308   6.914  19.386  0.00  0.00    +0.000 A 
ATOM      2  C   UNL     1       1.651   7.535  20.448  0.00  0.00    +0.000 A 
ATOM      3  C   UNL     1       1.170   8.836  20.285  0.00  0.00    +0.000 A 
ATOM      4  C   UNL     1       1.357   9.523  19.077  0.00  0.00    +0.000 A 
ATOM      5  C   UNL     1       2.027   8.890  18.023  0.00  0.00    +0.000 A 
ATOM      6  C   UNL     1       2.510   7.588  18.177  0.00  0.00    +0.000 A 
ENDROOT
BRANCH   1   7
ATOM      7  S   UNL     1       2.929   5.242  19.564  0.00  0.00    +0.000 S 
ATOM      8  O   UNL     1       4.373   5.344  19.671  0.00  0.00    +0.000 OA
ATOM      9  O   UNL     1       2.298   4.509  18.485  0.00  0.00    +0.000 OA
BRANCH   7  10
ATOM     10  C   UNL     1       2.277   4.762  21.126  0.00  0.00    +0.000 C 
BRANCH  10  12
ATOM     11  O   UNL     1       1.049   2.718  21.251  0.00  0.00    +0.000 OA
ATOM     12  C   UNL     1       2.172   3.289  21.210  0.00  0.00    +0.000 C 
ATOM     13  O   UNL     1       3.219   2.618  21.484  0.00  0.00    +0.000 OA
ENDBRANCH  10  12
ENDBRANCH   7  10
ENDBRANCH   1   7
BRANCH   4  14
ATOM     14  S   UNL     1       0.698  11.165  18.879  0.00  0.00    +0.000 S 
BRANCH  14  15
ATOM     15  C   UNL     1      -1.001  10.905  18.388  0.00  0.00    +0.000 A 
ATOM     16  C   UNL     1      -1.975  11.753  18.933  0.00  0.00    +0.000 A 
ATOM     17  C   UNL     1      -3.321  11.618  18.581  0.00  0.00    +0.000 A 
ATOM     18  C   UNL     1      -3.708  10.638  17.672  0.00  0.00    +0.000 A 
ATOM     19  C   UNL     1      -2.748   9.799  17.110  0.00  0.00    +0.000 A 
ATOM     20  C   UNL     1      -1.403   9.935  17.461  0.00  0.00    +0.000 A 
ENDBRANCH  14  15
ENDBRANCH   4  14
TORSDOF 5
ENDMDL
MODEL 6
REMARK VINA RESULT:      -6.7      4.160      7.685
REMARK  Name = 
REMARK  5 active torsions:
REMARK  status: ('A' for Active; 'I' for Inactive)
REMARK    1  A    between atoms: C_2  and  C_4
REMARK    2  A    between atoms: C_4  and  S_5
REMARK    3  A    between atoms: S_5  and  C_8
REMARK    4  A    between atoms: C_11  and  S_12
REMARK    5  A    between atoms: S_12  and  C_13
REMARK                            x       y       z     vdW  Elec       q    Type
REMARK                         _______ _______ _______ _____ _____    ______ ____
ROOT
ATOM      1  C   UNL     1       2.369   7.166  19.029  0.00  0.00    +0.000 A 
ATOM      2  C   UNL     1       2.437   7.951  17.879  0.00  0.00    +0.000 A 
ATOM      3  C   UNL     1       1.871   9.228  17.889  0.00  0.00    +0.000 A 
ATOM      4  C   UNL     1       1.223   9.715  19.034  0.00  0.00    +0.000 A 
ATOM      5  C   UNL     1       1.156   8.912  20.179  0.00  0.00    +0.000 A 
ATOM      6  C   UNL     1       1.721   7.634  20.178  0.00  0.00    +0.000 A 
ENDROOT
BRANCH   1   7
ATOM      7  S   UNL     1       3.094   5.527  19.046  0.00  0.00    +0.000 S 
ATOM      8  O   UNL     1       2.405   4.756  18.028  0.00  0.00    +0.000 OA
ATOM      9  O   UNL     1       3.065   5.137  20.442  0.00  0.00    +0.000 OA
BRANCH   7  10
ATOM     10  C   UNL     1       4.740   5.836  18.507  0.00  0.00    +0.000 C 
BRANCH  10  12
ATOM     11  O   UNL     1       5.417   3.635  19.137  0.00  0.00    +0.000 OA
ATOM     12  C   UNL     1       5.675   4.869  19.122  0.00  0.00    +0.000 C 
ATOM     13  O   UNL     1       6.623   5.314  19.846  0.00  0.00    +0.000 OA
ENDBRANCH  10  12
ENDBRANCH   7  10
ENDBRANCH   1   7
BRANCH   4  14
ATOM     14  S   UNL     1       0.546  11.360  19.037  0.00  0.00    +0.000 S 
BRANCH  14  15
ATOM     15  C   UNL     1      -1.160  11.138  18.551  0.00  0.00    +0.000 A 
ATOM     16  C   UNL     1      -1.456  10.089  17.670  0.00  0.00    +0.000 A 
ATOM     17  C   UNL     1      -2.771   9.846  17.260  0.00  0.00    +0.000 A 
ATOM     18  C   UNL     1      -3.807  10.646  17.735  0.00  0.00    +0.000 A 
ATOM     19  C   UNL     1      -3.529  11.681  18.623  0.00  0.00    +0.000 A 
ATOM     20  C   UNL     1      -2.215  11.923  19.033  0.00  0.00    +0.000 A 
ENDBRANCH  14  15
ENDBRANCH   4  14
TORSDOF 5
ENDMDL
MODEL 7
REMARK VINA RESULT:      -6.6      4.345      7.442
REMARK  Name = 
REMARK  5 active torsions:
REMARK  status: ('A' for Active; 'I' for Inactive)
REMARK    1  A    between atoms: C_2  and  C_4
REMARK    2  A    between atoms: C_4  and  S_5
REMARK    3  A    between atoms: S_5  and  C_8
REMARK    4  A    between atoms: C_11  and  S_12
REMARK    5  A    between atoms: S_12  and  C_13
REMARK                            x       y       z     vdW  Elec       q    Type
REMARK                         _______ _______ _______ _____ _____    ______ ____
ROOT
ATOM      1  C   UNL     1       2.337   6.983  19.293  0.00  0.00    +0.000 A 
ATOM      2  C   UNL     1       2.406   7.645  18.068  0.00  0.00    +0.000 A 
ATOM      3  C   UNL     1       1.859   8.925  17.951  0.00  0.00    +0.000 A 
ATOM      4  C   UNL     1       1.231   9.538  19.044  0.00  0.00    +0.000 A 
ATOM      5  C   UNL     1       1.161   8.858  20.267  0.00  0.00    +0.000 A 
ATOM      6  C   UNL     1       1.706   7.578  20.392  0.00  0.00    +0.000 A 
ENDROOT
BRANCH   1   7
ATOM      7  S   UNL     1       3.036   5.343  19.474  0.00  0.00    +0.000 S 
ATOM      8  O   UNL     1       4.465   5.517  19.653  0.00  0.00    +0.000 OA
ATOM      9  O   UNL     1       2.497   4.599  18.352  0.00  0.00    +0.000 OA
BRANCH   7  10
ATOM     10  C   UNL     1       2.335   4.799  20.993  0.00  0.00    +0.000 C 
BRANCH  10  12
ATOM     11  O   UNL     1       3.226   2.585  20.931  0.00  0.00    +0.000 OA
ATOM     12  C   UNL     1       2.209   3.325  21.004  0.00  0.00    +0.000 C 
ATOM     13  O   UNL     1       1.055   2.811  20.846  0.00  0.00    +0.000 OA
ENDBRANCH  10  12
ENDBRANCH   7  10
ENDBRANCH   1   7
BRANCH   4  14
ATOM     14  S   UNL     1       0.579  11.186  18.883  0.00  0.00    +0.000 S 
BRANCH  14  15
ATOM     15  C   UNL     1      -1.122  10.944  18.390  0.00  0.00    +0.000 A 
ATOM     16  C   UNL     1      -2.088  11.803  18.933  0.00  0.00    +0.000 A 
ATOM     17  C   UNL     1      -3.435  11.683  18.578  0.00  0.00    +0.000 A 
ATOM     18  C   UNL     1      -3.831  10.706  17.670  0.00  0.00    +0.000 A 
ATOM     19  C   UNL     1      -2.880   9.856  17.111  0.00  0.00    +0.000 A 
ATOM     20  C   UNL     1      -1.534   9.978  17.464  0.00  0.00    +0.000 A 
ENDBRANCH  14  15
ENDBRANCH   4  14
TORSDOF 5
ENDMDL
MODEL 8
REMARK VINA RESULT:      -6.6      4.358      7.661
REMARK  Name = 
REMARK  5 active torsions:
REMARK  status: ('A' for Active; 'I' for Inactive)
REMARK    1  A    between atoms: C_2  and  C_4
REMARK    2  A    between atoms: C_4  and  S_5
REMARK    3  A    between atoms: S_5  and  C_8
REMARK    4  A    between atoms: C_11  and  S_12
REMARK    5  A    between atoms: S_12  and  C_13
REMARK                            x       y       z     vdW  Elec       q    Type
REMARK                         _______ _______ _______ _____ _____    ______ ____
ROOT
ATOM      1  C   UNL     1       2.254   7.031  19.467  0.00  0.00    +0.000 A 
ATOM      2  C   UNL     1       1.614   7.691  20.516  0.00  0.00    +0.000 A 
ATOM      3  C   UNL     1       1.116   8.979  20.309  0.00  0.00    +0.000 A 
ATOM      4  C   UNL     1       1.269   9.616  19.070  0.00  0.00    +0.000 A 
ATOM      5  C   UNL     1       1.922   8.945  18.028  0.00  0.00    +0.000 A 
ATOM      6  C   UNL     1       2.422   7.655  18.226  0.00  0.00    +0.000 A 
ENDROOT
BRANCH   1   7
ATOM      7  S   UNL     1       2.897   5.374  19.702  0.00  0.00    +0.000 S 
ATOM      8  O   UNL     1       2.292   4.861  20.916  0.00  0.00    +0.000 OA
ATOM      9  O   UNL     1       4.333   5.526  19.574  0.00  0.00    +0.000 OA
BRANCH   7  10
ATOM     10  C   UNL     1       2.224   4.510  18.324  0.00  0.00    +0.000 C 
BRANCH  10  12
ATOM     11  O   UNL     1       2.921   2.250  18.649  0.00  0.00    +0.000 OA
ATOM     12  C   UNL     1       1.984   3.093  18.672  0.00  0.00    +0.000 C 
ATOM     13  O   UNL     1       0.782   2.682  18.760  0.00  0.00    +0.000 OA
ENDBRANCH  10  12
ENDBRANCH   7  10
ENDBRANCH   1   7
BRANCH   4  14
ATOM     14  S   UNL     1       0.589  11.241  18.818  0.00  0.00    +0.000 S 
BRANCH  14  15
ATOM     15  C   UNL     1      -1.110  10.943  18.349  0.00  0.00    +0.000 A 
ATOM     16  C   UNL     1      -2.094  11.779  18.894  0.00  0.00    +0.000 A 
ATOM     17  C   UNL     1      -3.441  11.615  18.558  0.00  0.00    +0.000 A 
ATOM     18  C   UNL     1      -3.819  10.617  17.665  0.00  0.00    +0.000 A 
ATOM     19  C   UNL     1      -2.850   9.789  17.103  0.00  0.00    +0.000 A 
ATOM     20  C   UNL     1      -1.503   9.955  17.438  0.00  0.00    +0.000 A 
ENDBRANCH  14  15
ENDBRANCH   4  14
TORSDOF 5
ENDMDL
MODEL 9
REMARK VINA RESULT:      -6.6      4.317      7.747
REMARK  Name = 
REMARK  5 active torsions:
REMARK  status: ('A' for Active; 'I' for Inactive)
REMARK    1  A    between atoms: C_2  and  C_4
REMARK    2  A    between atoms: C_4  and  S_5
REMARK    3  A    between atoms: S_5  and  C_8
REMARK    4  A    between atoms: C_11  and  S_12
REMARK    5  A    between atoms: S_12  and  C_13
REMARK                            x       y       z     vdW  Elec       q    Type
REMARK                         _______ _______ _______ _____ _____    ______ ____
ROOT
ATOM      1  C   UNL     1       2.350   6.919  19.246  0.00  0.00    +0.000 A 
ATOM      2  C   UNL     1       2.413   7.597  18.029  0.00  0.00    +0.000 A 
ATOM      3  C   UNL     1       1.882   8.886  17.937  0.00  0.00    +0.000 A 
ATOM      4  C   UNL     1       1.273   9.490  19.046  0.00  0.00    +0.000 A 
ATOM      5  C   UNL     1       1.208   8.794  20.259  0.00  0.00    +0.000 A 
ATOM      6  C   UNL     1       1.739   7.505  20.360  0.00  0.00    +0.000 A 
ENDROOT
BRANCH   1   7
ATOM      7  S   UNL     1       3.031   5.268  19.395  0.00  0.00    +0.000 S 
ATOM      8  O   UNL     1       2.629   4.543  18.204  0.00  0.00    +0.000 OA
ATOM      9  O   UNL     1       2.630   4.834  20.719  0.00  0.00    +0.000 OA
BRANCH   7  10
ATOM     10  C   UNL     1       4.763   5.566  19.321  0.00  0.00    +0.000 C 
BRANCH  10  12
ATOM     11  O   UNL     1       5.153   3.224  19.571  0.00  0.00    +0.000 OA
ATOM     12  C   UNL     1       5.490   4.312  19.030  0.00  0.00    +0.000 C 
ATOM     13  O   UNL     1       6.606   4.381  18.419  0.00  0.00    +0.000 OA
ENDBRANCH  10  12
ENDBRANCH   7  10
ENDBRANCH   1   7
BRANCH   4  14
ATOM     14  S   UNL     1       0.639  11.148  18.915  0.00  0.00    +0.000 S 
BRANCH  14  15
ATOM     15  C   UNL     1      -1.062  10.935  18.408  0.00  0.00    +0.000 A 
ATOM     16  C   UNL     1      -2.019  11.801  18.955  0.00  0.00    +0.000 A 
ATOM     17  C   UNL     1      -3.365  11.703  18.590  0.00  0.00    +0.000 A 
ATOM     18  C   UNL     1      -3.769  10.742  17.668  0.00  0.00    +0.000 A 
ATOM     19  C   UNL     1      -2.825   9.886  17.105  0.00  0.00    +0.000 A 
ATOM     20  C   UNL     1      -1.480   9.985  17.468  0.00  0.00    +0.000 A 
ENDBRANCH  14  15
ENDBRANCH   4  14
TORSDOF 5
ENDMDL
