MODEL 1
REMARK VINA RESULT:      -7.8      0.000      0.000
REMARK  Name = 
REMARK  10 active torsions:
REMARK  status: ('A' for Active; 'I' for Inactive)
REMARK    1  A    between atoms: C_1  and  C_2
REMARK    2  A    between atoms: C_2  and  N_3
REMARK    3  A    between atoms: N_3  and  C_4
REMARK    4  A    between atoms: N_3  and  C_6
REMARK    5  A    between atoms: C_4  and  C_5
REMARK    6  A    between atoms: C_11  and  C_12
REMARK    7  A    between atoms: C_18  and  C_20
REMARK    8  A    between atoms: C_21  and  C_22
REMARK    9  A    between atoms: C_25  and  O_26
REMARK   10  A    between atoms: O_26  and  C_27
REMARK                            x       y       z     vdW  Elec       q    Type
REMARK                         _______ _______ _______ _____ _____    ______ ____
ROOT
ATOM      1  C   UNL     1       0.137  11.985  18.854  0.00  0.00    +0.000 C 
ATOM      2  O   UNL     1      -1.073  12.137  18.655  0.00  0.00    +0.000 OA
ATOM      3  N   UNL     1       1.023  13.042  18.724  0.00  0.00    +0.000 N 
ATOM      4  C   UNL     1       0.492  14.406  18.597  0.00  0.00    +0.000 C 
ATOM      5  C   UNL     1       1.149  15.354  19.616  0.00  0.00    +0.000 C 
ATOM      6  N   UNL     1       2.620  15.286  19.568  0.00  0.00    +0.000 N 
ATOM      7  C   UNL     1       3.327  16.424  19.931  0.00  0.00    +0.000 C 
ATOM      8  O   UNL     1       2.785  17.477  20.258  0.00  0.00    +0.000 OA
ATOM      9  C   UNL     1       3.159  13.916  19.644  0.00  0.00    +0.000 C 
ATOM     10  C   UNL     1       2.489  12.991  18.614  0.00  0.00    +0.000 C 
ENDROOT
BRANCH   1  16
ATOM     11  C   UNL     1       2.607   5.981  19.495  0.00  0.00    +0.000 A 
ATOM     12  C   UNL     1       2.662   6.385  18.146  0.00  0.00    +0.000 A 
ATOM     13  C   UNL     1       2.250   7.664  17.727  0.00  0.00    +0.000 A 
ATOM     14  C   UNL     1       1.756   8.571  18.657  0.00  0.00    +0.000 A 
ATOM     15  C   UNL     1       1.323   9.918  18.330  0.00  0.00    +0.000 A 
ATOM     16  C   UNL     1       0.625  10.628  19.239  0.00  0.00    +0.000 A 
ATOM     17  C   UNL     1       0.242   9.958  20.500  0.00  0.00    +0.000 A 
ATOM     18  O   UNL     1      -0.730  10.293  21.166  0.00  0.00    +0.000 OA
ATOM     19  O   UNL     1       1.112   8.989  20.959  0.00  0.00    +0.000 OA
ATOM     20  C   UNL     1       1.681   8.166  19.984  0.00  0.00    +0.000 A 
ATOM     21  C   UNL     1       2.109   6.913  20.406  0.00  0.00    +0.000 A 
BRANCH  11  22
ATOM     22  N   UNL     1       3.010   4.722  19.916  0.00  0.00    +0.000 N 
BRANCH  22  24
ATOM     23  C   UNL     1       1.156   3.216  20.600  0.00  0.00    +0.000 C 
ATOM     24  C   UNL     1       2.331   4.074  21.046  0.00  0.00    +0.000 C 
ENDBRANCH  22  24
BRANCH  22  25
ATOM     25  C   UNL     1       4.054   3.981  19.207  0.00  0.00    +0.000 C 
ATOM     26  C   UNL     1       5.385   4.718  19.279  0.00  0.00    +0.000 C 
ENDBRANCH  22  25
ENDBRANCH  11  22
ENDBRANCH   1  16
BRANCH   7  27
ATOM     27  C   UNL     1       4.809  16.351  19.831  0.00  0.00    +0.000 C 
ATOM     28  C   UNL     1       5.410  16.318  18.631  0.00  0.00    +0.000 C 
BRANCH  28  29
ATOM     29  C   UNL     1       6.857  16.123  18.527  0.00  0.00    +0.000 A 
ATOM     30  C   UNL     1       7.706  17.231  18.598  0.00  0.00    +0.000 A 
ATOM     31  C   UNL     1       9.084  17.071  18.440  0.00  0.00    +0.000 A 
ATOM     32  C   UNL     1       9.633  15.804  18.232  0.00  0.00    +0.000 A 
ATOM     33  C   UNL     1       8.789  14.694  18.165  0.00  0.00    +0.000 A 
ATOM     34  C   UNL     1       7.404  14.854  18.310  0.00  0.00    +0.000 A 
BRANCH  32  35
ATOM     35  O   UNL     1      10.989  15.786  18.056  0.00  0.00    +0.000 OA
ATOM     36  C   UNL     1      11.538  16.867  17.313  0.00  0.00    +0.000 C 
ENDBRANCH  32  35
ENDBRANCH  28  29
ENDBRANCH   7  27
TORSDOF 7
ENDMDL
MODEL 2
REMARK VINA RESULT:      -7.7      2.265      9.796
REMARK  Name = 
REMARK  10 active torsions:
REMARK  status: ('A' for Active; 'I' for Inactive)
REMARK    1  A    between atoms: C_1  and  C_2
REMARK    2  A    between atoms: C_2  and  N_3
REMARK    3  A    between atoms: N_3  and  C_4
REMARK    4  A    between atoms: N_3  and  C_6
REMARK    5  A    between atoms: C_4  and  C_5
REMARK    6  A    between atoms: C_11  and  C_12
REMARK    7  A    between atoms: C_18  and  C_20
REMARK    8  A    between atoms: C_21  and  C_22
REMARK    9  A    between atoms: C_25  and  O_26
REMARK   10  A    between atoms: O_26  and  C_27
REMARK                            x       y       z     vdW  Elec       q    Type
REMARK                         _______ _______ _______ _____ _____    ______ ____
ROOT
ATOM      1  C   UNL     1       1.705  15.719  19.347  0.00  0.00    +0.000 C 
ATOM      2  O   UNL     1       0.853  16.612  19.275  0.00  0.00    +0.000 OA
ATOM      3  N   UNL     1       1.341  14.392  19.505  0.00  0.00    +0.000 N 
ATOM      4  C   UNL     1      -0.068  14.014  19.333  0.00  0.00    +0.000 C 
ATOM      5  C   UNL     1      -0.211  12.842  18.347  0.00  0.00    +0.000 C 
ATOM      6  N   UNL     1       0.665  11.711  18.698  0.00  0.00    +0.000 N 
ATOM      7  C   UNL     1       0.250  10.438  18.332  0.00  0.00    +0.000 C 
ATOM      8  O   UNL     1      -0.815  10.217  17.760  0.00  0.00    +0.000 OA
ATOM      9  C   UNL     1       2.073  12.090  18.922  0.00  0.00    +0.000 C 
ATOM     10  C   UNL     1       2.187  13.261  19.914  0.00  0.00    +0.000 C 
ENDROOT
BRANCH   1  16
ATOM     11  C   UNL     1       8.104  16.505  18.348  0.00  0.00    +0.000 A 
ATOM     12  C   UNL     1       7.679  15.270  17.817  0.00  0.00    +0.000 A 
ATOM     13  C   UNL     1       6.331  14.867  17.839  0.00  0.00    +0.000 A 
ATOM     14  C   UNL     1       5.371  15.692  18.410  0.00  0.00    +0.000 A 
ATOM     15  C   UNL     1       3.954  15.376  18.466  0.00  0.00    +0.000 A 
ATOM     16  C   UNL     1       3.144  16.107  19.258  0.00  0.00    +0.000 A 
ATOM     17  C   UNL     1       3.759  17.139  20.118  0.00  0.00    +0.000 A 
ATOM     18  O   UNL     1       3.251  17.525  21.165  0.00  0.00    +0.000 OA
ATOM     19  O   UNL     1       4.898  17.740  19.623  0.00  0.00    +0.000 OA
ATOM     20  C   UNL     1       5.791  16.900  18.952  0.00  0.00    +0.000 A 
ATOM     21  C   UNL     1       7.118  17.314  18.912  0.00  0.00    +0.000 A 
BRANCH  11  22
ATOM     22  N   UNL     1       9.431  16.910  18.332  0.00  0.00    +0.000 N 
BRANCH  22  24
ATOM     23  C   UNL     1      11.253  15.985  16.918  0.00  0.00    +0.000 C 
ATOM     24  C   UNL     1      10.148  17.024  17.055  0.00  0.00    +0.000 C 
ENDBRANCH  22  24
BRANCH  22  25
ATOM     25  C   UNL     1      10.120  17.307  19.560  0.00  0.00    +0.000 C 
ATOM     26  C   UNL     1      10.287  16.116  20.495  0.00  0.00    +0.000 C 
ENDBRANCH  22  25
ENDBRANCH  11  22
ENDBRANCH   1  16
BRANCH   7  27
ATOM     27  C   UNL     1       1.124   9.305  18.737  0.00  0.00    +0.000 C 
ATOM     28  C   UNL     1       1.926   8.708  17.841  0.00  0.00    +0.000 C 
BRANCH  28  29
ATOM     29  C   UNL     1       2.695   7.517  18.205  0.00  0.00    +0.000 A 
ATOM     30  C   UNL     1       2.332   6.786  19.339  0.00  0.00    +0.000 A 
ATOM     31  C   UNL     1       3.091   5.683  19.735  0.00  0.00    +0.000 A 
ATOM     32  C   UNL     1       4.204   5.283  18.994  0.00  0.00    +0.000 A 
ATOM     33  C   UNL     1       4.567   6.008  17.859  0.00  0.00    +0.000 A 
ATOM     34  C   UNL     1       3.815   7.124  17.466  0.00  0.00    +0.000 A 
BRANCH  32  35
ATOM     35  O   UNL     1       4.883   4.212  19.507  0.00  0.00    +0.000 OA
ATOM     36  C   UNL     1       4.261   2.943  19.346  0.00  0.00    +0.000 C 
ENDBRANCH  32  35
ENDBRANCH  28  29
ENDBRANCH   7  27
TORSDOF 7
ENDMDL
MODEL 3
REMARK VINA RESULT:      -7.7      0.469      1.448
REMARK  Name = 
REMARK  10 active torsions:
REMARK  status: ('A' for Active; 'I' for Inactive)
REMARK    1  A    between atoms: C_1  and  C_2
REMARK    2  A    between atoms: C_2  and  N_3
REMARK    3  A    between atoms: N_3  and  C_4
REMARK    4  A    between atoms: N_3  and  C_6
REMARK    5  A    between atoms: C_4  and  C_5
REMARK    6  A    between atoms: C_11  and  C_12
REMARK    7  A    between atoms: C_18  and  C_20
REMARK    8  A    between atoms: C_21  and  C_22
REMARK    9  A    between atoms: C_25  and  O_26
REMARK   10  A    between atoms: O_26  and  C_27
REMARK                            x       y       z     vdW  Elec       q    Type
REMARK                         _______ _______ _______ _____ _____    ______ ____
ROOT
ATOM      1  C   UNL     1       0.197  11.977  18.842  0.00  0.00    +0.000 C 
ATOM      2  O   UNL     1      -1.010  12.144  18.642  0.00  0.00    +0.000 OA
ATOM      3  N   UNL     1       1.098  13.021  18.705  0.00  0.00    +0.000 N 
ATOM      4  C   UNL     1       0.586  14.391  18.566  0.00  0.00    +0.000 C 
ATOM      5  C   UNL     1       1.256  15.337  19.577  0.00  0.00    +0.000 C 
ATOM      6  N   UNL     1       2.726  15.249  19.531  0.00  0.00    +0.000 N 
ATOM      7  C   UNL     1       3.449  16.380  19.885  0.00  0.00    +0.000 C 
ATOM      8  O   UNL     1       2.921  17.443  20.203  0.00  0.00    +0.000 OA
ATOM      9  C   UNL     1       3.246  13.872  19.618  0.00  0.00    +0.000 C 
ATOM     10  C   UNL     1       2.563  12.948  18.595  0.00  0.00    +0.000 C 
ENDROOT
BRANCH   1  16
ATOM     11  C   UNL     1       2.573   5.940  19.530  0.00  0.00    +0.000 A 
ATOM     12  C   UNL     1       2.620   6.327  18.176  0.00  0.00    +0.000 A 
ATOM     13  C   UNL     1       2.225   7.608  17.746  0.00  0.00    +0.000 A 
ATOM     14  C   UNL     1       1.757   8.534  18.670  0.00  0.00    +0.000 A 
ATOM     15  C   UNL     1       1.342   9.884  18.331  0.00  0.00    +0.000 A 
ATOM     16  C   UNL     1       0.667  10.617  19.239  0.00  0.00    +0.000 A 
ATOM     17  C   UNL     1       0.286   9.968  20.512  0.00  0.00    +0.000 A 
ATOM     18  O   UNL     1      -0.673  10.328  21.184  0.00  0.00    +0.000 OA
ATOM     19  O   UNL     1       1.144   8.990  20.973  0.00  0.00    +0.000 OA
ATOM     20  C   UNL     1       1.689   8.146  20.002  0.00  0.00    +0.000 A 
ATOM     21  C   UNL     1       2.100   6.890  20.435  0.00  0.00    +0.000 A 
BRANCH  11  22
ATOM     22  N   UNL     1       2.959   4.679  19.962  0.00  0.00    +0.000 N 
BRANCH  22  24
ATOM     23  C   UNL     1       4.062   2.567  19.259  0.00  0.00    +0.000 C 
ATOM     24  C   UNL     1       4.193   4.072  19.445  0.00  0.00    +0.000 C 
ENDBRANCH  22  24
BRANCH  22  25
ATOM     25  C   UNL     1       2.202   3.963  20.990  0.00  0.00    +0.000 C 
ATOM     26  C   UNL     1       0.862   3.488  20.442  0.00  0.00    +0.000 C 
ENDBRANCH  22  25
ENDBRANCH  11  22
ENDBRANCH   1  16
BRANCH   7  27
ATOM     27  C   UNL     1       4.929  16.286  19.786  0.00  0.00    +0.000 C 
ATOM     28  C   UNL     1       5.559  16.622  18.649  0.00  0.00    +0.000 C 
BRANCH  28  29
ATOM     29  C   UNL     1       7.001  16.415  18.505  0.00  0.00    +0.000 A 
ATOM     30  C   UNL     1       7.493  15.120  18.326  0.00  0.00    +0.000 A 
ATOM     31  C   UNL     1       8.870  14.898  18.248  0.00  0.00    +0.000 A 
ATOM     32  C   UNL     1       9.768  15.964  18.324  0.00  0.00    +0.000 A 
ATOM     33  C   UNL     1       9.280  17.259  18.498  0.00  0.00    +0.000 A 
ATOM     34  C   UNL     1       7.899  17.484  18.591  0.00  0.00    +0.000 A 
BRANCH  32  35
ATOM     35  O   UNL     1      11.088  15.610  18.271  0.00  0.00    +0.000 OA
ATOM     36  C   UNL     1      11.447  14.684  17.254  0.00  0.00    +0.000 C 
ENDBRANCH  32  35
ENDBRANCH  28  29
ENDBRANCH   7  27
TORSDOF 7
ENDMDL
MODEL 4
REMARK VINA RESULT:      -7.6      0.865      1.379
REMARK  Name = 
REMARK  10 active torsions:
REMARK  status: ('A' for Active; 'I' for Inactive)
REMARK    1  A    between atoms: C_1  and  C_2
REMARK    2  A    between atoms: C_2  and  N_3
REMARK    3  A    between atoms: N_3  and  C_4
REMARK    4  A    between atoms: N_3  and  C_6
REMARK    5  A    between atoms: C_4  and  C_5
REMARK    6  A    between atoms: C_11  and  C_12
REMARK    7  A    between atoms: C_18  and  C_20
REMARK    8  A    between atoms: C_21  and  C_22
REMARK    9  A    between atoms: C_25  and  O_26
REMARK   10  A    between atoms: O_26  and  C_27
REMARK                            x       y       z     vdW  Elec       q    Type
REMARK                         _______ _______ _______ _____ _____    ______ ____
ROOT
ATOM      1  C   UNL     1       0.342  12.522  18.907  0.00  0.00    +0.000 C 
ATOM      2  O   UNL     1      -0.853  12.801  18.767  0.00  0.00    +0.000 OA
ATOM      3  N   UNL     1       1.328  13.478  18.726  0.00  0.00    +0.000 N 
ATOM      4  C   UNL     1       0.939  14.891  18.613  0.00  0.00    +0.000 C 
ATOM      5  C   UNL     1       1.743  15.765  19.591  0.00  0.00    +0.000 C 
ATOM      6  N   UNL     1       3.195  15.541  19.471  0.00  0.00    +0.000 N 
ATOM      7  C   UNL     1       4.036  16.598  19.790  0.00  0.00    +0.000 C 
ATOM      8  O   UNL     1       3.626  17.704  20.135  0.00  0.00    +0.000 OA
ATOM      9  C   UNL     1       3.588  14.121  19.532  0.00  0.00    +0.000 C 
ATOM     10  C   UNL     1       2.773  13.270  18.543  0.00  0.00    +0.000 C 
ENDROOT
BRANCH   1  16
ATOM     11  C   UNL     1       2.273   6.318  19.497  0.00  0.00    +0.000 A 
ATOM     12  C   UNL     1       2.400   6.739  18.158  0.00  0.00    +0.000 A 
ATOM     13  C   UNL     1       2.111   8.056  17.754  0.00  0.00    +0.000 A 
ATOM     14  C   UNL     1       1.670   8.985  18.687  0.00  0.00    +0.000 A 
ATOM     15  C   UNL     1       1.362  10.370  18.375  0.00  0.00    +0.000 A 
ATOM     16  C   UNL     1       0.702  11.122  19.279  0.00  0.00    +0.000 A 
ATOM     17  C   UNL     1       0.228  10.465  20.516  0.00  0.00    +0.000 A 
ATOM     18  O   UNL     1      -0.731  10.871  21.162  0.00  0.00    +0.000 OA
ATOM     19  O   UNL     1       0.998   9.418  20.978  0.00  0.00    +0.000 OA
ATOM     20  C   UNL     1       1.523   8.566  20.003  0.00  0.00    +0.000 A 
ATOM     21  C   UNL     1       1.830   7.273  20.412  0.00  0.00    +0.000 A 
BRANCH  11  22
ATOM     22  N   UNL     1       2.555   5.022  19.904  0.00  0.00    +0.000 N 
BRANCH  22  24
ATOM     23  C   UNL     1       4.040   3.614  18.495  0.00  0.00    +0.000 C 
ATOM     24  C   UNL     1       3.911   4.480  19.740  0.00  0.00    +0.000 C 
ENDBRANCH  22  24
BRANCH  22  25
ATOM     25  C   UNL     1       1.546   4.198  20.571  0.00  0.00    +0.000 C 
ATOM     26  C   UNL     1       2.177   3.359  21.675  0.00  0.00    +0.000 C 
ENDBRANCH  22  25
ENDBRANCH  11  22
ENDBRANCH   1  16
BRANCH   7  27
ATOM     27  C   UNL     1       5.495  16.367  19.617  0.00  0.00    +0.000 C 
ATOM     28  C   UNL     1       5.987  15.974  18.432  0.00  0.00    +0.000 C 
BRANCH  28  29
ATOM     29  C   UNL     1       7.402  15.627  18.289  0.00  0.00    +0.000 A 
ATOM     30  C   UNL     1       8.356  16.647  18.239  0.00  0.00    +0.000 A 
ATOM     31  C   UNL     1       9.704  16.338  18.042  0.00  0.00    +0.000 A 
ATOM     32  C   UNL     1      10.118  15.010  17.918  0.00  0.00    +0.000 A 
ATOM     33  C   UNL     1       9.169  13.989  17.973  0.00  0.00    +0.000 A 
ATOM     34  C   UNL     1       7.813  14.297  18.156  0.00  0.00    +0.000 A 
BRANCH  32  35
ATOM     35  O   UNL     1      11.457  14.843  17.693  0.00  0.00    +0.000 OA
ATOM     36  C   UNL     1      11.870  13.534  17.322  0.00  0.00    +0.000 C 
ENDBRANCH  32  35
ENDBRANCH  28  29
ENDBRANCH   7  27
TORSDOF 7
ENDMDL
MODEL 5
REMARK VINA RESULT:      -7.5      2.286      9.803
REMARK  Name = 
REMARK  10 active torsions:
REMARK  status: ('A' for Active; 'I' for Inactive)
REMARK    1  A    between atoms: C_1  and  C_2
REMARK    2  A    between atoms: C_2  and  N_3
REMARK    3  A    between atoms: N_3  and  C_4
REMARK    4  A    between atoms: N_3  and  C_6
REMARK    5  A    between atoms: C_4  and  C_5
REMARK    6  A    between atoms: C_11  and  C_12
REMARK    7  A    between atoms: C_18  and  C_20
REMARK    8  A    between atoms: C_21  and  C_22
REMARK    9  A    between atoms: C_25  and  O_26
REMARK   10  A    between atoms: O_26  and  C_27
REMARK                            x       y       z     vdW  Elec       q    Type
REMARK                         _______ _______ _______ _____ _____    ______ ____
ROOT
ATOM      1  C   UNL     1       1.764  16.024  19.405  0.00  0.00    +0.000 C 
ATOM      2  O   UNL     1       0.968  16.965  19.319  0.00  0.00    +0.000 OA
ATOM      3  N   UNL     1       1.321  14.722  19.569  0.00  0.00    +0.000 N 
ATOM      4  C   UNL     1      -0.108  14.427  19.387  0.00  0.00    +0.000 C 
ATOM      5  C   UNL     1      -0.311  13.258  18.408  0.00  0.00    +0.000 C 
ATOM      6  N   UNL     1       0.493  12.079  18.776  0.00  0.00    +0.000 N 
ATOM      7  C   UNL     1       0.005  10.831  18.415  0.00  0.00    +0.000 C 
ATOM      8  O   UNL     1      -1.066  10.670  17.835  0.00  0.00    +0.000 OA
ATOM      9  C   UNL     1       1.918  12.376  19.010  0.00  0.00    +0.000 C 
ATOM     10  C   UNL     1       2.094  13.545  19.995  0.00  0.00    +0.000 C 
ENDROOT
BRANCH   1  16
ATOM     11  C   UNL     1       8.198  16.454  18.410  0.00  0.00    +0.000 A 
ATOM     12  C   UNL     1       7.695  15.276  17.822  0.00  0.00    +0.000 A 
ATOM     13  C   UNL     1       6.324  14.957  17.832  0.00  0.00    +0.000 A 
ATOM     14  C   UNL     1       5.419  15.812  18.447  0.00  0.00    +0.000 A 
ATOM     15  C   UNL     1       3.985  15.583  18.496  0.00  0.00    +0.000 A 
ATOM     16  C   UNL     1       3.224  16.324  19.328  0.00  0.00    +0.000 A 
ATOM     17  C   UNL     1       3.905  17.272  20.234  0.00  0.00    +0.000 A 
ATOM     18  O   UNL     1       3.426  17.638  21.301  0.00  0.00    +0.000 OA
ATOM     19  O   UNL     1       5.079  17.824  19.761  0.00  0.00    +0.000 OA
ATOM     20  C   UNL     1       5.915  16.963  19.046  0.00  0.00    +0.000 A 
ATOM     21  C   UNL     1       7.266  17.295  19.018  0.00  0.00    +0.000 A 
BRANCH  11  22
ATOM     22  N   UNL     1       9.547  16.775  18.406  0.00  0.00    +0.000 N 
BRANCH  22  24
ATOM     23  C   UNL     1      11.041  18.055  19.924  0.00  0.00    +0.000 C 
ATOM     24  C   UNL     1      10.313  16.745  19.659  0.00  0.00    +0.000 C 
ENDBRANCH  22  24
BRANCH  22  25
ATOM     25  C   UNL     1      10.255  17.071  17.159  0.00  0.00    +0.000 C 
ATOM     26  C   UNL     1      11.222  15.949  16.806  0.00  0.00    +0.000 C 
ENDBRANCH  22  25
ENDBRANCH  11  22
ENDBRANCH   1  16
BRANCH   7  27
ATOM     27  C   UNL     1       0.807   9.651  18.837  0.00  0.00    +0.000 C 
ATOM     28  C   UNL     1       1.711   9.110  18.006  0.00  0.00    +0.000 C 
BRANCH  28  29
ATOM     29  C   UNL     1       2.413   7.877  18.369  0.00  0.00    +0.000 A 
ATOM     30  C   UNL     1       2.092   7.232  19.565  0.00  0.00    +0.000 A 
ATOM     31  C   UNL     1       2.794   6.089  19.956  0.00  0.00    +0.000 A 
ATOM     32  C   UNL     1       3.805   5.565  19.149  0.00  0.00    +0.000 A 
ATOM     33  C   UNL     1       4.126   6.204  17.951  0.00  0.00    +0.000 A 
ATOM     34  C   UNL     1       3.432   7.359  17.562  0.00  0.00    +0.000 A 
BRANCH  32  35
ATOM     35  O   UNL     1       4.439   4.466  19.661  0.00  0.00    +0.000 OA
ATOM     36  C   UNL     1       4.534   3.340  18.798  0.00  0.00    +0.000 C 
ENDBRANCH  32  35
ENDBRANCH  28  29
ENDBRANCH   7  27
TORSDOF 7
ENDMDL
MODEL 6
REMARK VINA RESULT:      -7.4      2.238      9.758
REMARK  Name = 
REMARK  10 active torsions:
REMARK  status: ('A' for Active; 'I' for Inactive)
REMARK    1  A    between atoms: C_1  and  C_2
REMARK    2  A    between atoms: C_2  and  N_3
REMARK    3  A    between atoms: N_3  and  C_4
REMARK    4  A    between atoms: N_3  and  C_6
REMARK    5  A    between atoms: C_4  and  C_5
REMARK    6  A    between atoms: C_11  and  C_12
REMARK    7  A    between atoms: C_18  and  C_20
REMARK    8  A    between atoms: C_21  and  C_22
REMARK    9  A    between atoms: C_25  and  O_26
REMARK   10  A    between atoms: O_26  and  C_27
REMARK                            x       y       z     vdW  Elec       q    Type
REMARK                         _______ _______ _______ _____ _____    ______ ____
ROOT
ATOM      1  C   UNL     1       1.998  16.139  19.314  0.00  0.00    +0.000 C 
ATOM      2  O   UNL     1       1.256  17.123  19.228  0.00  0.00    +0.000 OA
ATOM      3  N   UNL     1       1.485  14.871  19.531  0.00  0.00    +0.000 N 
ATOM      4  C   UNL     1       0.037  14.657  19.407  0.00  0.00    +0.000 C 
ATOM      5  C   UNL     1      -0.270  13.476  18.469  0.00  0.00    +0.000 C 
ATOM      6  N   UNL     1       0.476  12.262  18.844  0.00  0.00    +0.000 N 
ATOM      7  C   UNL     1      -0.096  11.036  18.536  0.00  0.00    +0.000 C 
ATOM      8  O   UNL     1      -1.195  10.923  17.998  0.00  0.00    +0.000 OA
ATOM      9  C   UNL     1       1.924  12.479  19.021  0.00  0.00    +0.000 C 
ATOM     10  C   UNL     1       2.203  13.662  19.964  0.00  0.00    +0.000 C 
ENDROOT
BRANCH   1  16
ATOM     11  C   UNL     1       8.419  16.112  18.158  0.00  0.00    +0.000 A 
ATOM     12  C   UNL     1       7.841  14.909  17.705  0.00  0.00    +0.000 A 
ATOM     13  C   UNL     1       6.456  14.669  17.774  0.00  0.00    +0.000 A 
ATOM     14  C   UNL     1       5.612  15.631  18.315  0.00  0.00    +0.000 A 
ATOM     15  C   UNL     1       4.170  15.487  18.414  0.00  0.00    +0.000 A 
ATOM     16  C   UNL     1       3.470  16.349  19.178  0.00  0.00    +0.000 A 
ATOM     17  C   UNL     1       4.222  17.347  19.968  0.00  0.00    +0.000 A 
ATOM     18  O   UNL     1       3.789  17.846  21.000  0.00  0.00    +0.000 OA
ATOM     19  O   UNL     1       5.411  17.782  19.419  0.00  0.00    +0.000 OA
ATOM     20  C   UNL     1       6.183  16.808  18.781  0.00  0.00    +0.000 A 
ATOM     21  C   UNL     1       7.548  17.061  18.694  0.00  0.00    +0.000 A 
BRANCH  11  22
ATOM     22  N   UNL     1       9.783  16.357  18.095  0.00  0.00    +0.000 N 
BRANCH  22  24
ATOM     23  C   UNL     1      11.471  18.181  18.111  0.00  0.00    +0.000 C 
ATOM     24  C   UNL     1      10.284  17.549  17.398  0.00  0.00    +0.000 C 
ENDBRANCH  22  24
BRANCH  22  25
ATOM     25  C   UNL     1      10.744  15.491  18.780  0.00  0.00    +0.000 C 
ATOM     26  C   UNL     1      10.441  15.421  20.272  0.00  0.00    +0.000 C 
ENDBRANCH  22  25
ENDBRANCH  11  22
ENDBRANCH   1  16
BRANCH   7  27
ATOM     27  C   UNL     1       0.649   9.822  18.965  0.00  0.00    +0.000 C 
ATOM     28  C   UNL     1       1.642   9.330  18.209  0.00  0.00    +0.000 C 
BRANCH  28  29
ATOM     29  C   UNL     1       2.296   8.069  18.564  0.00  0.00    +0.000 A 
ATOM     30  C   UNL     1       3.221   7.504  17.682  0.00  0.00    +0.000 A 
ATOM     31  C   UNL     1       3.808   6.272  17.977  0.00  0.00    +0.000 A 
ATOM     32  C   UNL     1       3.498   5.602  19.162  0.00  0.00    +0.000 A 
ATOM     33  C   UNL     1       2.579   6.165  20.047  0.00  0.00    +0.000 A 
ATOM     34  C   UNL     1       1.978   7.396  19.748  0.00  0.00    +0.000 A 
BRANCH  32  35
ATOM     35  O   UNL     1       4.112   4.389  19.315  0.00  0.00    +0.000 OA
ATOM     36  C   UNL     1       4.667   3.816  18.138  0.00  0.00    +0.000 C 
ENDBRANCH  32  35
ENDBRANCH  28  29
ENDBRANCH   7  27
TORSDOF 7
ENDMDL
MODEL 7
REMARK VINA RESULT:      -7.2      0.734      1.355
REMARK  Name = 
REMARK  10 active torsions:
REMARK  status: ('A' for Active; 'I' for Inactive)
REMARK    1  A    between atoms: C_1  and  C_2
REMARK    2  A    between atoms: C_2  and  N_3
REMARK    3  A    between atoms: N_3  and  C_4
REMARK    4  A    between atoms: N_3  and  C_6
REMARK    5  A    between atoms: C_4  and  C_5
REMARK    6  A    between atoms: C_11  and  C_12
REMARK    7  A    between atoms: C_18  and  C_20
REMARK    8  A    between atoms: C_21  and  C_22
REMARK    9  A    between atoms: C_25  and  O_26
REMARK   10  A    between atoms: O_26  and  C_27
REMARK                            x       y       z     vdW  Elec       q    Type
REMARK                         _______ _______ _______ _____ _____    ______ ____
ROOT
ATOM      1  C   UNL     1      -0.104  12.132  19.653  0.00  0.00    +0.000 C 
ATOM      2  O   UNL     1      -1.332  12.262  19.622  0.00  0.00    +0.000 OA
ATOM      3  N   UNL     1       0.737  13.224  19.514  0.00  0.00    +0.000 N 
ATOM      4  C   UNL     1       0.166  14.577  19.582  0.00  0.00    +0.000 C 
ATOM      5  C   UNL     1       0.928  15.449  20.595  0.00  0.00    +0.000 C 
ATOM      6  N   UNL     1       2.382  15.433  20.358  0.00  0.00    +0.000 N 
ATOM      7  C   UNL     1       3.107  16.556  20.735  0.00  0.00    +0.000 C 
ATOM      8  O   UNL     1       2.589  17.557  21.224  0.00  0.00    +0.000 OA
ATOM      9  C   UNL     1       2.955  14.080  20.238  0.00  0.00    +0.000 C 
ATOM     10  C   UNL     1       2.178  13.230  19.217  0.00  0.00    +0.000 C 
ENDROOT
BRANCH   1  16
ATOM     11  C   UNL     1       2.556   6.179  19.417  0.00  0.00    +0.000 A 
ATOM     12  C   UNL     1       2.436   6.708  18.116  0.00  0.00    +0.000 A 
ATOM     13  C   UNL     1       1.948   8.006  17.874  0.00  0.00    +0.000 A 
ATOM     14  C   UNL     1       1.553   8.806  18.938  0.00  0.00    +0.000 A 
ATOM     15  C   UNL     1       1.053  10.163  18.796  0.00  0.00    +0.000 A 
ATOM     16  C   UNL     1       0.458  10.763  19.846  0.00  0.00    +0.000 A 
ATOM     17  C   UNL     1       0.247   9.967  21.074  0.00  0.00    +0.000 A 
ATOM     18  O   UNL     1      -0.644  10.207  21.881  0.00  0.00    +0.000 OA
ATOM     19  O   UNL     1       1.187   8.989  21.330  0.00  0.00    +0.000 OA
ATOM     20  C   UNL     1       1.650   8.279  20.220  0.00  0.00    +0.000 A 
ATOM     21  C   UNL     1       2.153   7.006  20.466  0.00  0.00    +0.000 A 
BRANCH  11  22
ATOM     22  N   UNL     1       3.034   4.901  19.664  0.00  0.00    +0.000 N 
BRANCH  22  24
ATOM     23  C   UNL     1       4.029   3.425  17.931  0.00  0.00    +0.000 C 
ATOM     24  C   UNL     1       4.280   4.448  19.030  0.00  0.00    +0.000 C 
ENDBRANCH  22  24
BRANCH  22  25
ATOM     25  C   UNL     1       2.366   4.009  20.613  0.00  0.00    +0.000 C 
ATOM     26  C   UNL     1       0.975   3.635  20.115  0.00  0.00    +0.000 C 
ENDBRANCH  22  25
ENDBRANCH  11  22
ENDBRANCH   1  16
BRANCH   7  27
ATOM     27  C   UNL     1       4.565  16.540  20.444  0.00  0.00    +0.000 C 
ATOM     28  C   UNL     1       5.009  16.632  19.181  0.00  0.00    +0.000 C 
BRANCH  28  29
ATOM     29  C   UNL     1       6.434  16.494  18.879  0.00  0.00    +0.000 A 
ATOM     30  C   UNL     1       7.314  17.517  19.240  0.00  0.00    +0.000 A 
ATOM     31  C   UNL     1       8.668  17.430  18.905  0.00  0.00    +0.000 A 
ATOM     32  C   UNL     1       9.162  16.312  18.230  0.00  0.00    +0.000 A 
ATOM     33  C   UNL     1       8.287  15.285  17.873  0.00  0.00    +0.000 A 
ATOM     34  C   UNL     1       6.925  15.377  18.195  0.00  0.00    +0.000 A 
BRANCH  32  35
ATOM     35  O   UNL     1      10.495  16.364  17.930  0.00  0.00    +0.000 OA
ATOM     36  C   UNL     1      11.070  17.662  17.857  0.00  0.00    +0.000 C 
ENDBRANCH  32  35
ENDBRANCH  28  29
ENDBRANCH   7  27
TORSDOF 7
ENDMDL
MODEL 8
REMARK VINA RESULT:      -7.2      0.933      1.763
REMARK  Name = 
REMARK  10 active torsions:
REMARK  status: ('A' for Active; 'I' for Inactive)
REMARK    1  A    between atoms: C_1  and  C_2
REMARK    2  A    between atoms: C_2  and  N_3
REMARK    3  A    between atoms: N_3  and  C_4
REMARK    4  A    between atoms: N_3  and  C_6
REMARK    5  A    between atoms: C_4  and  C_5
REMARK    6  A    between atoms: C_11  and  C_12
REMARK    7  A    between atoms: C_18  and  C_20
REMARK    8  A    between atoms: C_21  and  C_22
REMARK    9  A    between atoms: C_25  and  O_26
REMARK   10  A    between atoms: O_26  and  C_27
REMARK                            x       y       z     vdW  Elec       q    Type
REMARK                         _______ _______ _______ _____ _____    ______ ____
ROOT
ATOM      1  C   UNL     1       0.119  11.643  18.752  0.00  0.00    +0.000 C 
ATOM      2  O   UNL     1      -1.070  11.703  18.425  0.00  0.00    +0.000 OA
ATOM      3  N   UNL     1       0.914  12.777  18.779  0.00  0.00    +0.000 N 
ATOM      4  C   UNL     1       0.278  14.096  18.662  0.00  0.00    +0.000 C 
ATOM      5  C   UNL     1       0.731  15.032  19.797  0.00  0.00    +0.000 C 
ATOM      6  N   UNL     1       2.198  15.093  19.913  0.00  0.00    +0.000 N 
ATOM      7  C   UNL     1       2.755  16.262  20.412  0.00  0.00    +0.000 C 
ATOM      8  O   UNL     1       2.087  17.243  20.729  0.00  0.00    +0.000 OA
ATOM      9  C   UNL     1       2.849  13.771  19.979  0.00  0.00    +0.000 C 
ATOM     10  C   UNL     1       2.382  12.857  18.833  0.00  0.00    +0.000 C 
ENDROOT
BRANCH   1  16
ATOM     11  C   UNL     1       2.854   5.744  19.297  0.00  0.00    +0.000 A 
ATOM     12  C   UNL     1       2.797   6.128  17.942  0.00  0.00    +0.000 A 
ATOM     13  C   UNL     1       2.308   7.384  17.536  0.00  0.00    +0.000 A 
ATOM     14  C   UNL     1       1.848   8.287  18.486  0.00  0.00    +0.000 A 
ATOM     15  C   UNL     1       1.342   9.612  18.173  0.00  0.00    +0.000 A 
ATOM     16  C   UNL     1       0.685  10.311  19.120  0.00  0.00    +0.000 A 
ATOM     17  C   UNL     1       0.419   9.648  20.414  0.00  0.00    +0.000 A 
ATOM     18  O   UNL     1      -0.516   9.959  21.144  0.00  0.00    +0.000 OA
ATOM     19  O   UNL     1       1.355   8.719  20.823  0.00  0.00    +0.000 OA
ATOM     20  C   UNL     1       1.883   7.902  19.821  0.00  0.00    +0.000 A 
ATOM     21  C   UNL     1       2.387   6.672  20.229  0.00  0.00    +0.000 A 
BRANCH  11  22
ATOM     22  N   UNL     1       3.333   4.508  19.705  0.00  0.00    +0.000 N 
BRANCH  22  24
ATOM     23  C   UNL     1       5.692   5.188  19.326  0.00  0.00    +0.000 C 
ATOM     24  C   UNL     1       4.668   4.062  19.284  0.00  0.00    +0.000 C 
ENDBRANCH  22  24
BRANCH  22  25
ATOM     25  C   UNL     1       2.566   3.659  20.619  0.00  0.00    +0.000 C 
ATOM     26  C   UNL     1       1.187   3.356  20.047  0.00  0.00    +0.000 C 
ENDBRANCH  22  25
ENDBRANCH  11  22
ENDBRANCH   1  16
BRANCH   7  27
ATOM     27  C   UNL     1       4.240  16.322  20.477  0.00  0.00    +0.000 C 
ATOM     28  C   UNL     1       4.912  17.288  19.833  0.00  0.00    +0.000 C 
BRANCH  28  29
ATOM     29  C   UNL     1       6.375  17.280  19.792  0.00  0.00    +0.000 A 
ATOM     30  C   UNL     1       7.026  16.988  18.592  0.00  0.00    +0.000 A 
ATOM     31  C   UNL     1       8.421  16.916  18.549  0.00  0.00    +0.000 A 
ATOM     32  C   UNL     1       9.180  17.157  19.695  0.00  0.00    +0.000 A 
ATOM     33  C   UNL     1       8.533  17.455  20.895  0.00  0.00    +0.000 A 
ATOM     34  C   UNL     1       7.133  17.514  20.944  0.00  0.00    +0.000 A 
BRANCH  32  35
ATOM     35  O   UNL     1      10.531  17.021  19.530  0.00  0.00    +0.000 OA
ATOM     36  C   UNL     1      10.958  15.893  18.777  0.00  0.00    +0.000 C 
ENDBRANCH  32  35
ENDBRANCH  28  29
ENDBRANCH   7  27
TORSDOF 7
ENDMDL
MODEL 9
REMARK VINA RESULT:      -7.2      0.619      1.035
REMARK  Name = 
REMARK  10 active torsions:
REMARK  status: ('A' for Active; 'I' for Inactive)
REMARK    1  A    between atoms: C_1  and  C_2
REMARK    2  A    between atoms: C_2  and  N_3
REMARK    3  A    between atoms: N_3  and  C_4
REMARK    4  A    between atoms: N_3  and  C_6
REMARK    5  A    between atoms: C_4  and  C_5
REMARK    6  A    between atoms: C_11  and  C_12
REMARK    7  A    between atoms: C_18  and  C_20
REMARK    8  A    between atoms: C_21  and  C_22
REMARK    9  A    between atoms: C_25  and  O_26
REMARK   10  A    between atoms: O_26  and  C_27
REMARK                            x       y       z     vdW  Elec       q    Type
REMARK                         _______ _______ _______ _____ _____    ______ ____
ROOT
ATOM      1  C   UNL     1       0.031  11.668  18.852  0.00  0.00    +0.000 C 
ATOM      2  O   UNL     1      -1.192  11.755  18.703  0.00  0.00    +0.000 OA
ATOM      3  N   UNL     1       0.851  12.777  18.723  0.00  0.00    +0.000 N 
ATOM      4  C   UNL     1       0.239  14.112  18.659  0.00  0.00    +0.000 C 
ATOM      5  C   UNL     1       0.881  15.064  19.683  0.00  0.00    +0.000 C 
ATOM      6  N   UNL     1       2.350  15.083  19.578  0.00  0.00    +0.000 N 
ATOM      7  C   UNL     1       3.006  16.249  19.950  0.00  0.00    +0.000 C 
ATOM      8  O   UNL     1       2.419  17.258  20.331  0.00  0.00    +0.000 OA
ATOM      9  C   UNL     1       2.969  13.744  19.589  0.00  0.00    +0.000 C 
ATOM     10  C   UNL     1       2.311  12.814  18.556  0.00  0.00    +0.000 C 
ENDROOT
BRANCH   1  16
ATOM     11  C   UNL     1       2.805   5.772  19.194  0.00  0.00    +0.000 A 
ATOM     12  C   UNL     1       2.721   6.190  17.851  0.00  0.00    +0.000 A 
ATOM     13  C   UNL     1       2.218   7.453  17.486  0.00  0.00    +0.000 A 
ATOM     14  C   UNL     1       1.771   8.329  18.467  0.00  0.00    +0.000 A 
ATOM     15  C   UNL     1       1.253   9.659  18.198  0.00  0.00    +0.000 A 
ATOM     16  C   UNL     1       0.610  10.330  19.175  0.00  0.00    +0.000 A 
ATOM     17  C   UNL     1       0.371   9.633  20.456  0.00  0.00    +0.000 A 
ATOM     18  O   UNL     1      -0.551   9.919  21.211  0.00  0.00    +0.000 OA
ATOM     19  O   UNL     1       1.319   8.699  20.823  0.00  0.00    +0.000 OA
ATOM     20  C   UNL     1       1.833   7.911  19.791  0.00  0.00    +0.000 A 
ATOM     21  C   UNL     1       2.351   6.673  20.157  0.00  0.00    +0.000 A 
BRANCH  11  22
ATOM     22  N   UNL     1       3.298   4.528  19.561  0.00  0.00    +0.000 N 
BRANCH  22  24
ATOM     23  C   UNL     1       1.822   3.354  21.179  0.00  0.00    +0.000 C 
ATOM     24  C   UNL     1       2.375   3.403  19.761  0.00  0.00    +0.000 C 
ENDBRANCH  22  24
BRANCH  22  25
ATOM     25  C   UNL     1       4.736   4.286  19.680  0.00  0.00    +0.000 C 
ATOM     26  C   UNL     1       5.356   4.029  18.313  0.00  0.00    +0.000 C 
ENDBRANCH  22  25
ENDBRANCH  11  22
ENDBRANCH   1  16
BRANCH   7  27
ATOM     27  C   UNL     1       4.485  16.264  19.792  0.00  0.00    +0.000 C 
ATOM     28  C   UNL     1       5.040  16.177  18.573  0.00  0.00    +0.000 C 
BRANCH  28  29
ATOM     29  C   UNL     1       6.492  16.069  18.421  0.00  0.00    +0.000 A 
ATOM     30  C   UNL     1       7.050  14.858  18.002  0.00  0.00    +0.000 A 
ATOM     31  C   UNL     1       8.436  14.718  17.911  0.00  0.00    +0.000 A 
ATOM     32  C   UNL     1       9.280  15.789  18.212  0.00  0.00    +0.000 A 
ATOM     33  C   UNL     1       8.727  17.001  18.626  0.00  0.00    +0.000 A 
ATOM     34  C   UNL     1       7.336  17.141  18.732  0.00  0.00    +0.000 A 
BRANCH  32  35
ATOM     35  O   UNL     1      10.616  15.513  18.118  0.00  0.00    +0.000 OA
ATOM     36  C   UNL     1      11.329  15.444  19.347  0.00  0.00    +0.000 C 
ENDBRANCH  32  35
ENDBRANCH  28  29
ENDBRANCH   7  27
TORSDOF 7
ENDMDL
