MODEL 1
REMARK VINA RESULT:      -6.5      0.000      0.000
REMARK  Name = 
REMARK  8 active torsions:
REMARK  status: ('A' for Active; 'I' for Inactive)
REMARK    1  A    between atoms: C_1  and  O_2
REMARK    2  A    between atoms: O_2  and  C_3
REMARK    3  A    between atoms: C_6  and  N_7
REMARK    4  A    between atoms: C_8  and  C_10
REMARK    5  A    between atoms: C_15  and  S_16
REMARK    6  A    between atoms: S_16  and  C_17
REMARK    7  A    between atoms: C_19  and  O_20
REMARK    8  A    between atoms: O_20  and  C_21
REMARK                            x       y       z     vdW  Elec       q    Type
REMARK                         _______ _______ _______ _____ _____    ______ ____
ROOT
ATOM      1  N   UNL     1       2.163   6.743  19.891  0.00  0.00    +0.000 N 
ATOM      2  C   UNL     1       1.900   8.051  19.531  0.00  0.00    +0.000 C 
ATOM      3  O   UNL     1       2.337   8.579  18.507  0.00  0.00    +0.000 OA
ATOM      4  H   UNL     1       1.883   6.454  20.824  0.00  0.00    +0.000 HD
ENDROOT
BRANCH   1   8
ATOM      5  C   UNL     1       4.687   4.242  17.584  0.00  0.00    +0.000 A 
ATOM      6  C   UNL     1       3.334   4.374  17.252  0.00  0.00    +0.000 A 
ATOM      7  C   UNL     1       2.483   5.169  18.016  0.00  0.00    +0.000 A 
ATOM      8  C   UNL     1       2.951   5.831  19.149  0.00  0.00    +0.000 A 
ATOM      9  C   UNL     1       4.267   5.592  19.557  0.00  0.00    +0.000 A 
ATOM     10  C   UNL     1       5.146   4.804  18.785  0.00  0.00    +0.000 A 
BRANCH   5  12
ATOM     11  C   UNL     1       5.685   4.153  15.450  0.00  0.00    +0.000 C 
ATOM     12  O   UNL     1       5.547   3.575  16.750  0.00  0.00    +0.000 OA
ENDBRANCH   5  12
BRANCH  10  13
ATOM     13  O   UNL     1       6.400   4.745  19.336  0.00  0.00    +0.000 OA
ATOM     14  C   UNL     1       7.366   5.713  18.958  0.00  0.00    +0.000 C 
ENDBRANCH  10  13
ENDBRANCH   1   8
BRANCH   2  15
ATOM     15  C   UNL     1       1.082   8.919  20.443  0.00  0.00    +0.000 A 
ATOM     16  C   UNL     1       1.320   8.682  21.820  0.00  0.00    +0.000 A 
ATOM     17  C   UNL     1       0.637   9.358  22.822  0.00  0.00    +0.000 A 
ATOM     18  C   UNL     1      -0.315  10.299  22.473  0.00  0.00    +0.000 A 
ATOM     19  C   UNL     1      -0.570  10.560  21.124  0.00  0.00    +0.000 A 
ATOM     20  C   UNL     1       0.122   9.894  20.090  0.00  0.00    +0.000 A 
BRANCH  20  21
ATOM     21  S   UNL     1      -0.351  10.301  18.401  0.00  0.00    +0.000 S 
ATOM     22  C   UNL     1      -0.932  12.019  18.573  0.00  0.00    +0.000 C 
ENDBRANCH  20  21
ENDBRANCH   2  15
TORSDOF 5
ENDMDL
MODEL 2
REMARK VINA RESULT:      -6.4      3.504      5.177
REMARK  Name = 
REMARK  8 active torsions:
REMARK  status: ('A' for Active; 'I' for Inactive)
REMARK    1  A    between atoms: C_1  and  O_2
REMARK    2  A    between atoms: O_2  and  C_3
REMARK    3  A    between atoms: C_6  and  N_7
REMARK    4  A    between atoms: C_8  and  C_10
REMARK    5  A    between atoms: C_15  and  S_16
REMARK    6  A    between atoms: S_16  and  C_17
REMARK    7  A    between atoms: C_19  and  O_20
REMARK    8  A    between atoms: O_20  and  C_21
REMARK                            x       y       z     vdW  Elec       q    Type
REMARK                         _______ _______ _______ _____ _____    ______ ____
ROOT
ATOM      1  N   UNL     1       4.302   4.161  17.701  0.00  0.00    +0.000 N 
ATOM      2  C   UNL     1       4.487   3.811  19.025  0.00  0.00    +0.000 C 
ATOM      3  O   UNL     1       5.594   3.659  19.544  0.00  0.00    +0.000 OA
ATOM      4  H   UNL     1       3.356   4.112  17.336  0.00  0.00    +0.000 HD
ENDROOT
BRANCH   1   8
ATOM      5  C   UNL     1       7.259   5.122  14.823  0.00  0.00    +0.000 A 
ATOM      6  C   UNL     1       6.476   3.972  14.670  0.00  0.00    +0.000 A 
ATOM      7  C   UNL     1       5.519   3.625  15.621  0.00  0.00    +0.000 A 
ATOM      8  C   UNL     1       5.337   4.399  16.764  0.00  0.00    +0.000 A 
ATOM      9  C   UNL     1       6.208   5.470  16.983  0.00  0.00    +0.000 A 
ATOM     10  C   UNL     1       7.171   5.845  16.022  0.00  0.00    +0.000 A 
BRANCH   5  12
ATOM     11  C   UNL     1       7.691   5.138  12.505  0.00  0.00    +0.000 C 
ATOM     12  O   UNL     1       8.096   5.534  13.818  0.00  0.00    +0.000 OA
ENDBRANCH   5  12
BRANCH  10  13
ATOM     13  O   UNL     1       7.880   6.951  16.412  0.00  0.00    +0.000 OA
ATOM     14  C   UNL     1       7.701   7.460  17.723  0.00  0.00    +0.000 C 
ENDBRANCH  10  13
ENDBRANCH   1   8
BRANCH   2  15
ATOM     15  C   UNL     1       3.291   3.545  19.893  0.00  0.00    +0.000 A 
ATOM     16  C   UNL     1       3.488   2.499  20.829  0.00  0.00    +0.000 A 
ATOM     17  C   UNL     1       2.490   2.078  21.699  0.00  0.00    +0.000 A 
ATOM     18  C   UNL     1       1.253   2.695  21.655  0.00  0.00    +0.000 A 
ATOM     19  C   UNL     1       1.028   3.733  20.746  0.00  0.00    +0.000 A 
ATOM     20  C   UNL     1       2.031   4.186  19.863  0.00  0.00    +0.000 A 
BRANCH  20  21
ATOM     21  S   UNL     1       1.577   5.497  18.717  0.00  0.00    +0.000 S 
ATOM     22  C   UNL     1       2.489   6.923  19.391  0.00  0.00    +0.000 C 
ENDBRANCH  20  21
ENDBRANCH   2  15
TORSDOF 5
ENDMDL
MODEL 3
REMARK VINA RESULT:      -6.3      2.805      7.690
REMARK  Name = 
REMARK  8 active torsions:
REMARK  status: ('A' for Active; 'I' for Inactive)
REMARK    1  A    between atoms: C_1  and  O_2
REMARK    2  A    between atoms: O_2  and  C_3
REMARK    3  A    between atoms: C_6  and  N_7
REMARK    4  A    between atoms: C_8  and  C_10
REMARK    5  A    between atoms: C_15  and  S_16
REMARK    6  A    between atoms: S_16  and  C_17
REMARK    7  A    between atoms: C_19  and  O_20
REMARK    8  A    between atoms: O_20  and  C_21
REMARK                            x       y       z     vdW  Elec       q    Type
REMARK                         _______ _______ _______ _____ _____    ______ ____
ROOT
ATOM      1  N   UNL     1       3.151   7.076  18.510  0.00  0.00    +0.000 N 
ATOM      2  C   UNL     1       2.954   5.858  17.887  0.00  0.00    +0.000 C 
ATOM      3  O   UNL     1       1.897   5.228  17.937  0.00  0.00    +0.000 OA
ATOM      4  H   UNL     1       4.100   7.437  18.533  0.00  0.00    +0.000 HD
ENDROOT
BRANCH   1   8
ATOM      5  C   UNL     1       0.453   9.375  20.829  0.00  0.00    +0.000 A 
ATOM      6  C   UNL     1       0.928   8.151  21.311  0.00  0.00    +0.000 A 
ATOM      7  C   UNL     1       1.793   7.368  20.550  0.00  0.00    +0.000 A 
ATOM      8  C   UNL     1       2.184   7.771  19.276  0.00  0.00    +0.000 A 
ATOM      9  C   UNL     1       1.606   8.926  18.741  0.00  0.00    +0.000 A 
ATOM     10  C   UNL     1       0.742   9.739  19.505  0.00  0.00    +0.000 A 
BRANCH   5  12
ATOM     11  C   UNL     1      -0.334   9.806  23.009  0.00  0.00    +0.000 C 
ATOM     12  O   UNL     1      -0.282  10.204  21.637  0.00  0.00    +0.000 OA
ENDBRANCH   5  12
BRANCH  10  13
ATOM     13  O   UNL     1       0.333  10.847  18.810  0.00  0.00    +0.000 OA
ATOM     14  C   UNL     1       1.118  12.027  18.869  0.00  0.00    +0.000 C 
ENDBRANCH  10  13
ENDBRANCH   1   8
BRANCH   2  15
ATOM     15  C   UNL     1       4.089   5.217  17.142  0.00  0.00    +0.000 A 
ATOM     16  C   UNL     1       4.849   6.128  16.368  0.00  0.00    +0.000 A 
ATOM     17  C   UNL     1       5.920   5.726  15.579  0.00  0.00    +0.000 A 
ATOM     18  C   UNL     1       6.262   4.386  15.541  0.00  0.00    +0.000 A 
ATOM     19  C   UNL     1       5.535   3.462  16.296  0.00  0.00    +0.000 A 
ATOM     20  C   UNL     1       4.453   3.851  17.115  0.00  0.00    +0.000 A 
BRANCH  20  21
ATOM     21  S   UNL     1       3.583   2.542  17.991  0.00  0.00    +0.000 S 
ATOM     22  C   UNL     1       4.242   2.712  19.680  0.00  0.00    +0.000 C 
ENDBRANCH  20  21
ENDBRANCH   2  15
TORSDOF 5
ENDMDL
MODEL 4
REMARK VINA RESULT:      -6.3      2.604      7.558
REMARK  Name = 
REMARK  8 active torsions:
REMARK  status: ('A' for Active; 'I' for Inactive)
REMARK    1  A    between atoms: C_1  and  O_2
REMARK    2  A    between atoms: O_2  and  C_3
REMARK    3  A    between atoms: C_6  and  N_7
REMARK    4  A    between atoms: C_8  and  C_10
REMARK    5  A    between atoms: C_15  and  S_16
REMARK    6  A    between atoms: S_16  and  C_17
REMARK    7  A    between atoms: C_19  and  O_20
REMARK    8  A    between atoms: O_20  and  C_21
REMARK                            x       y       z     vdW  Elec       q    Type
REMARK                         _______ _______ _______ _____ _____    ______ ____
ROOT
ATOM      1  N   UNL     1       1.955   7.127  19.400  0.00  0.00    +0.000 N 
ATOM      2  C   UNL     1       2.879   6.708  18.461  0.00  0.00    +0.000 C 
ATOM      3  O   UNL     1       3.488   7.474  17.713  0.00  0.00    +0.000 OA
ATOM      4  H   UNL     1       1.401   6.409  19.857  0.00  0.00    +0.000 HD
ENDROOT
BRANCH   1   8
ATOM      5  C   UNL     1       0.579  11.052  20.204  0.00  0.00    +0.000 A 
ATOM      6  C   UNL     1       0.951  10.690  18.905  0.00  0.00    +0.000 A 
ATOM      7  C   UNL     1       1.433   9.413  18.627  0.00  0.00    +0.000 A 
ATOM      8  C   UNL     1       1.584   8.472  19.642  0.00  0.00    +0.000 A 
ATOM      9  C   UNL     1       1.340   8.875  20.958  0.00  0.00    +0.000 A 
ATOM     10  C   UNL     1       0.836  10.158  21.255  0.00  0.00    +0.000 A 
BRANCH   5  12
ATOM     11  C   UNL     1      -1.449  12.249  20.317  0.00  0.00    +0.000 C 
ATOM     12  O   UNL     1      -0.025  12.259  20.444  0.00  0.00    +0.000 OA
ENDBRANCH   5  12
BRANCH  10  13
ATOM     13  O   UNL     1       0.617  10.326  22.597  0.00  0.00    +0.000 OA
ATOM     14  C   UNL     1      -0.621   9.911  23.152  0.00  0.00    +0.000 C 
ENDBRANCH  10  13
ENDBRANCH   1   8
BRANCH   2  15
ATOM     15  C   UNL     1       3.139   5.240  18.283  0.00  0.00    +0.000 A 
ATOM     16  C   UNL     1       2.006   4.510  17.847  0.00  0.00    +0.000 A 
ATOM     17  C   UNL     1       2.032   3.134  17.657  0.00  0.00    +0.000 A 
ATOM     18  C   UNL     1       3.205   2.442  17.903  0.00  0.00    +0.000 A 
ATOM     19  C   UNL     1       4.342   3.134  18.329  0.00  0.00    +0.000 A 
ATOM     20  C   UNL     1       4.341   4.533  18.515  0.00  0.00    +0.000 A 
BRANCH  20  21
ATOM     21  S   UNL     1       5.867   5.276  19.115  0.00  0.00    +0.000 S 
ATOM     22  C   UNL     1       7.061   4.776  17.834  0.00  0.00    +0.000 C 
ENDBRANCH  20  21
ENDBRANCH   2  15
TORSDOF 5
ENDMDL
MODEL 5
REMARK VINA RESULT:      -6.3      2.585      7.670
REMARK  Name = 
REMARK  8 active torsions:
REMARK  status: ('A' for Active; 'I' for Inactive)
REMARK    1  A    between atoms: C_1  and  O_2
REMARK    2  A    between atoms: O_2  and  C_3
REMARK    3  A    between atoms: C_6  and  N_7
REMARK    4  A    between atoms: C_8  and  C_10
REMARK    5  A    between atoms: C_15  and  S_16
REMARK    6  A    between atoms: S_16  and  C_17
REMARK    7  A    between atoms: C_19  and  O_20
REMARK    8  A    between atoms: O_20  and  C_21
REMARK                            x       y       z     vdW  Elec       q    Type
REMARK                         _______ _______ _______ _____ _____    ______ ____
ROOT
ATOM      1  N   UNL     1       2.640   7.244  18.272  0.00  0.00    +0.000 N 
ATOM      2  C   UNL     1       3.536   6.231  18.557  0.00  0.00    +0.000 C 
ATOM      3  O   UNL     1       3.841   5.891  19.701  0.00  0.00    +0.000 OA
ATOM      4  H   UNL     1       2.574   7.546  17.305  0.00  0.00    +0.000 HD
ENDROOT
BRANCH   1   8
ATOM      5  C   UNL     1       0.790   9.755  21.139  0.00  0.00    +0.000 A 
ATOM      6  C   UNL     1       1.164   8.451  21.483  0.00  0.00    +0.000 A 
ATOM      7  C   UNL     1       1.747   7.602  20.545  0.00  0.00    +0.000 A 
ATOM      8  C   UNL     1       1.946   8.020  19.232  0.00  0.00    +0.000 A 
ATOM      9  C   UNL     1       1.452   9.271  18.855  0.00  0.00    +0.000 A 
ATOM     10  C   UNL     1       0.875  10.150  19.795  0.00  0.00    +0.000 A 
BRANCH   5  12
ATOM     11  C   UNL     1      -0.621  10.088  22.998  0.00  0.00    +0.000 C 
ATOM     12  O   UNL     1       0.350  10.629  22.099  0.00  0.00    +0.000 OA
ENDBRANCH   5  12
BRANCH  10  13
ATOM     13  O   UNL     1       0.509  11.342  19.227  0.00  0.00    +0.000 OA
ATOM     14  C   UNL     1      -0.850  11.552  18.878  0.00  0.00    +0.000 C 
ENDBRANCH  10  13
ENDBRANCH   1   8
BRANCH   2  15
ATOM     15  C   UNL     1       4.233   5.522  17.432  0.00  0.00    +0.000 A 
ATOM     16  C   UNL     1       4.806   6.397  16.476  0.00  0.00    +0.000 A 
ATOM     17  C   UNL     1       5.464   5.936  15.343  0.00  0.00    +0.000 A 
ATOM     18  C   UNL     1       5.567   4.573  15.130  0.00  0.00    +0.000 A 
ATOM     19  C   UNL     1       5.017   3.684  16.058  0.00  0.00    +0.000 A 
ATOM     20  C   UNL     1       4.356   4.130  17.222  0.00  0.00    +0.000 A 
BRANCH  20  21
ATOM     21  S   UNL     1       3.657   2.866  18.297  0.00  0.00    +0.000 S 
ATOM     22  C   UNL     1       1.869   3.090  18.032  0.00  0.00    +0.000 C 
ENDBRANCH  20  21
ENDBRANCH   2  15
TORSDOF 5
ENDMDL
MODEL 6
REMARK VINA RESULT:      -6.3      3.134      7.976
REMARK  Name = 
REMARK  8 active torsions:
REMARK  status: ('A' for Active; 'I' for Inactive)
REMARK    1  A    between atoms: C_1  and  O_2
REMARK    2  A    between atoms: O_2  and  C_3
REMARK    3  A    between atoms: C_6  and  N_7
REMARK    4  A    between atoms: C_8  and  C_10
REMARK    5  A    between atoms: C_15  and  S_16
REMARK    6  A    between atoms: S_16  and  C_17
REMARK    7  A    between atoms: C_19  and  O_20
REMARK    8  A    between atoms: O_20  and  C_21
REMARK                            x       y       z     vdW  Elec       q    Type
REMARK                         _______ _______ _______ _____ _____    ______ ____
ROOT
ATOM      1  N   UNL     1       1.918   8.524  17.651  0.00  0.00    +0.000 N 
ATOM      2  C   UNL     1       2.437   7.531  18.461  0.00  0.00    +0.000 C 
ATOM      3  O   UNL     1       2.284   7.497  19.683  0.00  0.00    +0.000 OA
ATOM      4  H   UNL     1       2.227   8.543  16.684  0.00  0.00    +0.000 HD
ENDROOT
BRANCH   1   8
ATOM      5  C   UNL     1      -0.465  11.866  18.698  0.00  0.00    +0.000 A 
ATOM      6  C   UNL     1       0.907  11.868  18.971  0.00  0.00    +0.000 A 
ATOM      7  C   UNL     1       1.701  10.767  18.660  0.00  0.00    +0.000 A 
ATOM      8  C   UNL     1       1.143   9.623  18.095  0.00  0.00    +0.000 A 
ATOM      9  C   UNL     1      -0.246   9.569  17.946  0.00  0.00    +0.000 A 
ATOM     10  C   UNL     1      -1.062  10.682  18.240  0.00  0.00    +0.000 A 
BRANCH   5  12
ATOM     11  C   UNL     1      -1.400  13.387  20.238  0.00  0.00    +0.000 C 
ATOM     12  O   UNL     1      -1.212  13.003  18.874  0.00  0.00    +0.000 OA
ENDBRANCH   5  12
BRANCH  10  13
ATOM     13  O   UNL     1      -2.383  10.434  17.971  0.00  0.00    +0.000 OA
ATOM     14  C   UNL     1      -2.763  10.068  16.655  0.00  0.00    +0.000 C 
ENDBRANCH  10  13
ENDBRANCH   1   8
BRANCH   2  15
ATOM     15  C   UNL     1       3.281   6.448  17.854  0.00  0.00    +0.000 A 
ATOM     16  C   UNL     1       4.387   6.936  17.114  0.00  0.00    +0.000 A 
ATOM     17  C   UNL     1       5.268   6.094  16.447  0.00  0.00    +0.000 A 
ATOM     18  C   UNL     1       5.065   4.727  16.500  0.00  0.00    +0.000 A 
ATOM     19  C   UNL     1       3.986   4.214  17.225  0.00  0.00    +0.000 A 
ATOM     20  C   UNL     1       3.087   5.050  17.921  0.00  0.00    +0.000 A 
BRANCH  20  21
ATOM     21  S   UNL     1       1.718   4.246  18.770  0.00  0.00    +0.000 S 
ATOM     22  C   UNL     1       1.917   2.511  18.253  0.00  0.00    +0.000 C 
ENDBRANCH  20  21
ENDBRANCH   2  15
TORSDOF 5
ENDMDL
MODEL 7
REMARK VINA RESULT:      -6.2      1.349      1.959
REMARK  Name = 
REMARK  8 active torsions:
REMARK  status: ('A' for Active; 'I' for Inactive)
REMARK    1  A    between atoms: C_1  and  O_2
REMARK    2  A    between atoms: O_2  and  C_3
REMARK    3  A    between atoms: C_6  and  N_7
REMARK    4  A    between atoms: C_8  and  C_10
REMARK    5  A    between atoms: C_15  and  S_16
REMARK    6  A    between atoms: S_16  and  C_17
REMARK    7  A    between atoms: C_19  and  O_20
REMARK    8  A    between atoms: O_20  and  C_21
REMARK                            x       y       z     vdW  Elec       q    Type
REMARK                         _______ _______ _______ _____ _____    ______ ____
ROOT
ATOM      1  N   UNL     1       2.259   7.124  19.278  0.00  0.00    +0.000 N 
ATOM      2  C   UNL     1       1.710   8.366  19.019  0.00  0.00    +0.000 C 
ATOM      3  O   UNL     1       1.808   8.944  17.936  0.00  0.00    +0.000 OA
ATOM      4  H   UNL     1       2.251   6.805  20.242  0.00  0.00    +0.000 HD
ENDROOT
BRANCH   1   8
ATOM      5  C   UNL     1       4.548   4.624  16.737  0.00  0.00    +0.000 A 
ATOM      6  C   UNL     1       4.873   5.979  16.869  0.00  0.00    +0.000 A 
ATOM      7  C   UNL     1       4.113   6.822  17.677  0.00  0.00    +0.000 A 
ATOM      8  C   UNL     1       2.994   6.344  18.353  0.00  0.00    +0.000 A 
ATOM      9  C   UNL     1       2.592   5.026  18.116  0.00  0.00    +0.000 A 
ATOM     10  C   UNL     1       3.358   4.154  17.315  0.00  0.00    +0.000 A 
BRANCH   5  12
ATOM     11  C   UNL     1       5.842   4.269  14.798  0.00  0.00    +0.000 C 
ATOM     12  O   UNL     1       5.379   3.772  16.056  0.00  0.00    +0.000 OA
ENDBRANCH   5  12
BRANCH  10  13
ATOM     13  O   UNL     1       2.816   2.897  17.259  0.00  0.00    +0.000 OA
ATOM     14  C   UNL     1       3.248   1.917  18.189  0.00  0.00    +0.000 C 
ENDBRANCH  10  13
ENDBRANCH   1   8
BRANCH   2  15
ATOM     15  C   UNL     1       0.991   9.099  20.115  0.00  0.00    +0.000 A 
ATOM     16  C   UNL     1       1.409   8.728  21.417  0.00  0.00    +0.000 A 
ATOM     17  C   UNL     1       0.842   9.268  22.565  0.00  0.00    +0.000 A 
ATOM     18  C   UNL     1      -0.172  10.201  22.441  0.00  0.00    +0.000 A 
ATOM     19  C   UNL     1      -0.603  10.591  21.171  0.00  0.00    +0.000 A 
ATOM     20  C   UNL     1      -0.032  10.067  19.992  0.00  0.00    +0.000 A 
BRANCH  20  21
ATOM     21  S   UNL     1      -0.726  10.629  18.429  0.00  0.00    +0.000 S 
ATOM     22  C   UNL     1      -1.965  11.845  18.980  0.00  0.00    +0.000 C 
ENDBRANCH  20  21
ENDBRANCH   2  15
TORSDOF 5
ENDMDL
MODEL 8
REMARK VINA RESULT:      -6.2      2.893      7.251
REMARK  Name = 
REMARK  8 active torsions:
REMARK  status: ('A' for Active; 'I' for Inactive)
REMARK    1  A    between atoms: C_1  and  O_2
REMARK    2  A    between atoms: O_2  and  C_3
REMARK    3  A    between atoms: C_6  and  N_7
REMARK    4  A    between atoms: C_8  and  C_10
REMARK    5  A    between atoms: C_15  and  S_16
REMARK    6  A    between atoms: S_16  and  C_17
REMARK    7  A    between atoms: C_19  and  O_20
REMARK    8  A    between atoms: O_20  and  C_21
REMARK                            x       y       z     vdW  Elec       q    Type
REMARK                         _______ _______ _______ _____ _____    ______ ____
ROOT
ATOM      1  N   UNL     1       2.059   7.003  20.442  0.00  0.00    +0.000 N 
ATOM      2  C   UNL     1       2.294   6.004  19.515  0.00  0.00    +0.000 C 
ATOM      3  O   UNL     1       2.156   6.154  18.300  0.00  0.00    +0.000 OA
ATOM      4  H   UNL     1       2.055   6.735  21.421  0.00  0.00    +0.000 HD
ENDROOT
BRANCH   1   8
ATOM      5  C   UNL     1       0.537  10.866  19.599  0.00  0.00    +0.000 A 
ATOM      6  C   UNL     1       1.122  10.103  18.582  0.00  0.00    +0.000 A 
ATOM      7  C   UNL     1       1.654   8.843  18.847  0.00  0.00    +0.000 A 
ATOM      8  C   UNL     1       1.643   8.322  20.138  0.00  0.00    +0.000 A 
ATOM      9  C   UNL     1       1.181   9.136  21.175  0.00  0.00    +0.000 A 
ATOM     10  C   UNL     1       0.624  10.407  20.923  0.00  0.00    +0.000 A 
BRANCH   5  12
ATOM     11  C   UNL     1      -1.508  11.901  19.046  0.00  0.00    +0.000 C 
ATOM     12  O   UNL     1      -0.109  12.039  19.306  0.00  0.00    +0.000 OA
ENDBRANCH   5  12
BRANCH  10  13
ATOM     13  O   UNL     1       0.184  11.013  22.071  0.00  0.00    +0.000 OA
ATOM     14  C   UNL     1      -0.646  10.285  22.961  0.00  0.00    +0.000 C 
ENDBRANCH  10  13
ENDBRANCH   1   8
BRANCH   2  15
ATOM     15  C   UNL     1       2.690   4.635  19.988  0.00  0.00    +0.000 A 
ATOM     16  C   UNL     1       1.865   4.131  21.025  0.00  0.00    +0.000 A 
ATOM     17  C   UNL     1       2.088   2.896  21.621  0.00  0.00    +0.000 A 
ATOM     18  C   UNL     1       3.154   2.124  21.195  0.00  0.00    +0.000 A 
ATOM     19  C   UNL     1       3.983   2.591  20.172  0.00  0.00    +0.000 A 
ATOM     20  C   UNL     1       3.767   3.836  19.542  0.00  0.00    +0.000 A 
BRANCH  20  21
ATOM     21  S   UNL     1       4.947   4.324  18.274  0.00  0.00    +0.000 S 
ATOM     22  C   UNL     1       6.126   5.337  19.222  0.00  0.00    +0.000 C 
ENDBRANCH  20  21
ENDBRANCH   2  15
TORSDOF 5
ENDMDL
MODEL 9
REMARK VINA RESULT:      -6.2      2.639      7.649
REMARK  Name = 
REMARK  8 active torsions:
REMARK  status: ('A' for Active; 'I' for Inactive)
REMARK    1  A    between atoms: C_1  and  O_2
REMARK    2  A    between atoms: O_2  and  C_3
REMARK    3  A    between atoms: C_6  and  N_7
REMARK    4  A    between atoms: C_8  and  C_10
REMARK    5  A    between atoms: C_15  and  S_16
REMARK    6  A    between atoms: S_16  and  C_17
REMARK    7  A    between atoms: C_19  and  O_20
REMARK    8  A    between atoms: O_20  and  C_21
REMARK                            x       y       z     vdW  Elec       q    Type
REMARK                         _______ _______ _______ _____ _____    ______ ____
ROOT
ATOM      1  N   UNL     1       3.395   7.004  17.877  0.00  0.00    +0.000 N 
ATOM      2  C   UNL     1       4.274   6.002  18.242  0.00  0.00    +0.000 C 
ATOM      3  O   UNL     1       4.361   5.552  19.385  0.00  0.00    +0.000 OA
ATOM      4  H   UNL     1       3.508   7.406  16.951  0.00  0.00    +0.000 HD
ENDROOT
BRANCH   1   8
ATOM      5  C   UNL     1       0.844   9.138  20.500  0.00  0.00    +0.000 A 
ATOM      6  C   UNL     1       1.339   7.883  20.868  0.00  0.00    +0.000 A 
ATOM      7  C   UNL     1       2.156   7.154  20.006  0.00  0.00    +0.000 A 
ATOM      8  C   UNL     1       2.477   7.644  18.744  0.00  0.00    +0.000 A 
ATOM      9  C   UNL     1       1.875   8.834  18.324  0.00  0.00    +0.000 A 
ATOM     10  C   UNL     1       1.060   9.593  19.190  0.00  0.00    +0.000 A 
BRANCH   5  12
ATOM     11  C   UNL     1       0.276   9.480  22.763  0.00  0.00    +0.000 C 
ATOM     12  O   UNL     1       0.160   9.910  21.405  0.00  0.00    +0.000 OA
ENDBRANCH   5  12
BRANCH  10  13
ATOM     13  O   UNL     1       0.617  10.747  18.599  0.00  0.00    +0.000 OA
ATOM     14  C   UNL     1       1.308  11.960  18.851  0.00  0.00    +0.000 C 
ENDBRANCH  10  13
ENDBRANCH   1   8
BRANCH   2  15
ATOM     15  C   UNL     1       5.225   5.445  17.221  0.00  0.00    +0.000 A 
ATOM     16  C   UNL     1       4.591   4.681  16.210  0.00  0.00    +0.000 A 
ATOM     17  C   UNL     1       5.301   4.053  15.194  0.00  0.00    +0.000 A 
ATOM     18  C   UNL     1       6.679   4.171  15.163  0.00  0.00    +0.000 A 
ATOM     19  C   UNL     1       7.334   4.921  16.143  0.00  0.00    +0.000 A 
ATOM     20  C   UNL     1       6.631   5.578  17.176  0.00  0.00    +0.000 A 
BRANCH  20  21
ATOM     21  S   UNL     1       7.616   6.466  18.394  0.00  0.00    +0.000 S 
ATOM     22  C   UNL     1       7.755   8.118  17.638  0.00  0.00    +0.000 C 
ENDBRANCH  20  21
ENDBRANCH   2  15
TORSDOF 5
ENDMDL
