MODEL 1
REMARK VINA RESULT:      -8.7      0.000      0.000
REMARK  Name = 
REMARK  5 active torsions:
REMARK  status: ('A' for Active; 'I' for Inactive)
REMARK    1  A    between atoms: C_1  and  C_2
REMARK    2  A    between atoms: C_2  and  C_3
REMARK    3  A    between atoms: C_8  and  C_10
REMARK    4  A    between atoms: C_14  and  S_15
REMARK    5  A    between atoms: S_15  and  N_18
REMARK                            x       y       z     vdW  Elec       q    Type
REMARK                         _______ _______ _______ _____ _____    ______ ____
ROOT
ATOM      1  C   UNL     1       7.859   7.874  18.193  0.00  0.00    +0.000 A 
ATOM      2  C   UNL     1       8.439   7.004  19.131  0.00  0.00    +0.000 A 
ATOM      3  C   UNL     1       8.066   5.663  19.185  0.00  0.00    +0.000 A 
ATOM      4  C   UNL     1       7.076   5.172  18.337  0.00  0.00    +0.000 A 
ATOM      5  C   UNL     1       6.433   6.034  17.444  0.00  0.00    +0.000 A 
ATOM      6  C   UNL     1       6.843   7.385  17.338  0.00  0.00    +0.000 A 
ENDROOT
BRANCH   1  12
ATOM      7  C   UNL     1      10.280  13.195  19.740  0.00  0.00    +0.000 A 
ATOM      8  N   UNL     1      10.957  12.423  20.566  0.00  0.00    +0.000 NA
ATOM      9  N   UNL     1      10.610  11.093  20.435  0.00  0.00    +0.000 NA
ATOM     10  C   UNL     1       9.724  10.893  19.484  0.00  0.00    +0.000 A 
ATOM     11  N   UNL     1       9.208   9.641  19.232  0.00  0.00    +0.000 N 
ATOM     12  C   UNL     1       8.399   9.283  18.183  0.00  0.00    +0.000 C 
ATOM     13  O   UNL     1       8.054  10.016  17.255  0.00  0.00    +0.000 OA
ATOM     14  S   UNL     1       9.233  12.323  18.686  0.00  0.00    +0.000 S 
ATOM     15  H   UNL     1       9.486   8.962  19.923  0.00  0.00    +0.000 HD
BRANCH   7  17
ATOM     16  C   UNL     1      10.754  15.227  21.101  0.00  0.00    +0.000 C 
ATOM     17  C   UNL     1      10.369  14.687  19.730  0.00  0.00    +0.000 C 
ENDBRANCH   7  17
ENDBRANCH   1  12
BRANCH   5  18
ATOM     18  S   UNL     1       5.196   5.346  16.295  0.00  0.00    +0.000 S 
ATOM     19  O   UNL     1       5.147   6.236  15.183  0.00  0.00    +0.000 OA
ATOM     20  O   UNL     1       5.581   3.941  16.138  0.00  0.00    +0.000 OA
BRANCH  18  21
ATOM     21  N   UNL     1       3.766   5.403  17.192  0.00  0.00    +0.000 N 
ATOM     22  C   UNL     1       3.311   6.680  17.779  0.00  0.00    +0.000 C 
ATOM     23  C   UNL     1       3.180   6.399  19.283  0.00  0.00    +0.000 C 
ATOM     24  C   UNL     1       2.752   4.962  19.226  0.00  0.00    +0.000 A 
ATOM     25  C   UNL     1       1.812   4.392  20.076  0.00  0.00    +0.000 A 
ATOM     26  C   UNL     1       1.112   3.294  19.600  0.00  0.00    +0.000 A 
ATOM     27  C   UNL     1       1.434   2.756  18.339  0.00  0.00    +0.000 A 
ATOM     28  C   UNL     1       2.496   3.260  17.556  0.00  0.00    +0.000 A 
ATOM     29  C   UNL     1       3.165   4.381  18.009  0.00  0.00    +0.000 A 
ENDBRANCH  18  21
ENDBRANCH   5  18
TORSDOF 4
ENDMDL
MODEL 2
REMARK VINA RESULT:      -8.1      0.785      1.587
REMARK  Name = 
REMARK  5 active torsions:
REMARK  status: ('A' for Active; 'I' for Inactive)
REMARK    1  A    between atoms: C_1  and  C_2
REMARK    2  A    between atoms: C_2  and  C_3
REMARK    3  A    between atoms: C_8  and  C_10
REMARK    4  A    between atoms: C_14  and  S_15
REMARK    5  A    between atoms: S_15  and  N_18
REMARK                            x       y       z     vdW  Elec       q    Type
REMARK                         _______ _______ _______ _____ _____    ______ ____
ROOT
ATOM      1  C   UNL     1       7.883   8.213  18.215  0.00  0.00    +0.000 A 
ATOM      2  C   UNL     1       8.533   7.290  19.050  0.00  0.00    +0.000 A 
ATOM      3  C   UNL     1       8.113   5.963  19.110  0.00  0.00    +0.000 A 
ATOM      4  C   UNL     1       7.009   5.539  18.373  0.00  0.00    +0.000 A 
ATOM      5  C   UNL     1       6.301   6.456  17.590  0.00  0.00    +0.000 A 
ATOM      6  C   UNL     1       6.752   7.793  17.475  0.00  0.00    +0.000 A 
ENDROOT
BRANCH   1  12
ATOM      7  C   UNL     1      10.700  13.378  19.611  0.00  0.00    +0.000 A 
ATOM      8  N   UNL     1      11.441  12.551  20.321  0.00  0.00    +0.000 NA
ATOM      9  N   UNL     1      11.024  11.242  20.193  0.00  0.00    +0.000 NA
ATOM     10  C   UNL     1      10.020  11.110  19.355  0.00  0.00    +0.000 A 
ATOM     11  N   UNL     1       9.424   9.888  19.131  0.00  0.00    +0.000 N 
ATOM     12  C   UNL     1       8.477   9.600  18.181  0.00  0.00    +0.000 C 
ATOM     13  O   UNL     1       8.052  10.377  17.327  0.00  0.00    +0.000 OA
ATOM     14  S   UNL     1       9.495  12.585  18.669  0.00  0.00    +0.000 S 
ATOM     15  H   UNL     1       9.756   9.175  19.761  0.00  0.00    +0.000 HD
BRANCH   7  17
ATOM     16  C   UNL     1       9.536  15.559  19.307  0.00  0.00    +0.000 C 
ATOM     17  C   UNL     1      10.851  14.865  19.636  0.00  0.00    +0.000 C 
ENDBRANCH   7  17
ENDBRANCH   1  12
BRANCH   5  18
ATOM     18  S   UNL     1       4.908   5.855  16.578  0.00  0.00    +0.000 S 
ATOM     19  O   UNL     1       4.095   6.993  16.306  0.00  0.00    +0.000 OA
ATOM     20  O   UNL     1       5.540   5.086  15.503  0.00  0.00    +0.000 OA
BRANCH  18  21
ATOM     21  N   UNL     1       4.125   4.771  17.610  0.00  0.00    +0.000 N 
ATOM     22  C   UNL     1       4.117   3.327  17.297  0.00  0.00    +0.000 C 
ATOM     23  C   UNL     1       2.630   2.944  17.240  0.00  0.00    +0.000 C 
ATOM     24  C   UNL     1       2.097   3.881  18.285  0.00  0.00    +0.000 A 
ATOM     25  C   UNL     1       1.097   3.552  19.192  0.00  0.00    +0.000 A 
ATOM     26  C   UNL     1       1.087   4.235  20.398  0.00  0.00    +0.000 A 
ATOM     27  C   UNL     1       2.015   5.272  20.619  0.00  0.00    +0.000 A 
ATOM     28  C   UNL     1       2.927   5.689  19.624  0.00  0.00    +0.000 A 
ATOM     29  C   UNL     1       2.966   4.980  18.438  0.00  0.00    +0.000 A 
ENDBRANCH  18  21
ENDBRANCH   5  18
TORSDOF 4
ENDMDL
MODEL 3
REMARK VINA RESULT:      -8.1      5.618      7.232
REMARK  Name = 
REMARK  5 active torsions:
REMARK  status: ('A' for Active; 'I' for Inactive)
REMARK    1  A    between atoms: C_1  and  C_2
REMARK    2  A    between atoms: C_2  and  C_3
REMARK    3  A    between atoms: C_8  and  C_10
REMARK    4  A    between atoms: C_14  and  S_15
REMARK    5  A    between atoms: S_15  and  N_18
REMARK                            x       y       z     vdW  Elec       q    Type
REMARK                         _______ _______ _______ _____ _____    ______ ____
ROOT
ATOM      1  C   UNL     1       2.058   5.851  20.161  0.00  0.00    +0.000 A 
ATOM      2  C   UNL     1       1.916   5.189  21.391  0.00  0.00    +0.000 A 
ATOM      3  C   UNL     1       2.196   3.829  21.505  0.00  0.00    +0.000 A 
ATOM      4  C   UNL     1       2.581   3.092  20.386  0.00  0.00    +0.000 A 
ATOM      5  C   UNL     1       2.660   3.714  19.136  0.00  0.00    +0.000 A 
ATOM      6  C   UNL     1       2.434   5.107  19.018  0.00  0.00    +0.000 A 
ENDROOT
BRANCH   1  12
ATOM      7  C   UNL     1       0.084  11.399  21.534  0.00  0.00    +0.000 A 
ATOM      8  N   UNL     1       0.127  10.898  22.752  0.00  0.00    +0.000 NA
ATOM      9  N   UNL     1       0.565   9.590  22.759  0.00  0.00    +0.000 NA
ATOM     10  C   UNL     1       0.888   9.158  21.560  0.00  0.00    +0.000 A 
ATOM     11  N   UNL     1       1.297   7.860  21.348  0.00  0.00    +0.000 N 
ATOM     12  C   UNL     1       1.797   7.338  20.181  0.00  0.00    +0.000 C 
ATOM     13  O   UNL     1       2.023   7.967  19.147  0.00  0.00    +0.000 OA
ATOM     14  S   UNL     1       0.664  10.319  20.325  0.00  0.00    +0.000 S 
ATOM     15  H   UNL     1       1.193   7.282  22.168  0.00  0.00    +0.000 HD
BRANCH   7  17
ATOM     16  C   UNL     1      -1.970  12.788  21.283  0.00  0.00    +0.000 C 
ATOM     17  C   UNL     1      -0.449  12.758  21.209  0.00  0.00    +0.000 C 
ENDBRANCH   7  17
ENDBRANCH   1  12
BRANCH   5  18
ATOM     18  S   UNL     1       3.239   2.741  17.707  0.00  0.00    +0.000 S 
ATOM     19  O   UNL     1       3.355   1.396  18.162  0.00  0.00    +0.000 OA
ATOM     20  O   UNL     1       2.327   3.108  16.619  0.00  0.00    +0.000 OA
BRANCH  18  21
ATOM     21  N   UNL     1       4.752   3.413  17.373  0.00  0.00    +0.000 N 
ATOM     22  C   UNL     1       5.571   3.971  18.469  0.00  0.00    +0.000 C 
ATOM     23  C   UNL     1       5.840   5.427  18.060  0.00  0.00    +0.000 C 
ATOM     24  C   UNL     1       5.906   5.252  16.570  0.00  0.00    +0.000 A 
ATOM     25  C   UNL     1       6.795   5.928  15.743  0.00  0.00    +0.000 A 
ATOM     26  C   UNL     1       7.144   5.312  14.552  0.00  0.00    +0.000 A 
ATOM     27  C   UNL     1       6.532   4.095  14.192  0.00  0.00    +0.000 A 
ATOM     28  C   UNL     1       5.520   3.501  14.978  0.00  0.00    +0.000 A 
ATOM     29  C   UNL     1       5.204   4.091  16.187  0.00  0.00    +0.000 A 
ENDBRANCH  18  21
ENDBRANCH   5  18
TORSDOF 4
ENDMDL
MODEL 4
REMARK VINA RESULT:      -8.0      3.102      9.732
REMARK  Name = 
REMARK  5 active torsions:
REMARK  status: ('A' for Active; 'I' for Inactive)
REMARK    1  A    between atoms: C_1  and  C_2
REMARK    2  A    between atoms: C_2  and  C_3
REMARK    3  A    between atoms: C_8  and  C_10
REMARK    4  A    between atoms: C_14  and  S_15
REMARK    5  A    between atoms: S_15  and  N_18
REMARK                            x       y       z     vdW  Elec       q    Type
REMARK                         _______ _______ _______ _____ _____    ______ ____
ROOT
ATOM      1  C   UNL     1       9.208  10.561  19.059  0.00  0.00    +0.000 A 
ATOM      2  C   UNL     1       9.247  10.587  20.462  0.00  0.00    +0.000 A 
ATOM      3  C   UNL     1       9.917  11.603  21.138  0.00  0.00    +0.000 A 
ATOM      4  C   UNL     1      10.599  12.591  20.430  0.00  0.00    +0.000 A 
ATOM      5  C   UNL     1      10.636  12.546  19.033  0.00  0.00    +0.000 A 
ATOM      6  C   UNL     1       9.911  11.552  18.333  0.00  0.00    +0.000 A 
ENDROOT
BRANCH   1  12
ATOM      7  C   UNL     1       7.094   5.183  17.276  0.00  0.00    +0.000 A 
ATOM      8  N   UNL     1       7.619   4.817  18.428  0.00  0.00    +0.000 NA
ATOM      9  N   UNL     1       8.196   5.878  19.095  0.00  0.00    +0.000 NA
ATOM     10  C   UNL     1       8.046   7.018  18.458  0.00  0.00    +0.000 A 
ATOM     11  N   UNL     1       8.598   8.187  18.935  0.00  0.00    +0.000 N 
ATOM     12  C   UNL     1       8.389   9.452  18.444  0.00  0.00    +0.000 C 
ATOM     13  O   UNL     1       7.618   9.755  17.534  0.00  0.00    +0.000 OA
ATOM     14  S   UNL     1       7.199   6.877  16.980  0.00  0.00    +0.000 S 
ATOM     15  H   UNL     1       9.209   8.034  19.721  0.00  0.00    +0.000 HD
BRANCH   7  17
ATOM     16  C   UNL     1       5.025   3.970  16.600  0.00  0.00    +0.000 C 
ATOM     17  C   UNL     1       6.494   4.232  16.292  0.00  0.00    +0.000 C 
ENDBRANCH   7  17
ENDBRANCH   1  12
BRANCH   5  18
ATOM     18  S   UNL     1      11.472  13.893  18.133  0.00  0.00    +0.000 S 
ATOM     19  O   UNL     1      12.325  14.533  19.078  0.00  0.00    +0.000 OA
ATOM     20  O   UNL     1      12.005  13.254  16.927  0.00  0.00    +0.000 OA
BRANCH  18  21
ATOM     21  N   UNL     1      10.195  14.899  17.674  0.00  0.00    +0.000 N 
ATOM     22  C   UNL     1      10.461  16.111  16.873  0.00  0.00    +0.000 C 
ATOM     23  C   UNL     1       9.882  17.267  17.702  0.00  0.00    +0.000 C 
ATOM     24  C   UNL     1       8.720  16.557  18.333  0.00  0.00    +0.000 A 
ATOM     25  C   UNL     1       7.473  17.132  18.543  0.00  0.00    +0.000 A 
ATOM     26  C   UNL     1       6.382  16.278  18.592  0.00  0.00    +0.000 A 
ATOM     27  C   UNL     1       6.583  14.886  18.516  0.00  0.00    +0.000 A 
ATOM     28  C   UNL     1       7.874  14.316  18.453  0.00  0.00    +0.000 A 
ATOM     29  C   UNL     1       8.959  15.167  18.360  0.00  0.00    +0.000 A 
ENDBRANCH  18  21
ENDBRANCH   5  18
TORSDOF 4
ENDMDL
MODEL 5
REMARK VINA RESULT:      -8.0      5.332      7.415
REMARK  Name = 
REMARK  5 active torsions:
REMARK  status: ('A' for Active; 'I' for Inactive)
REMARK    1  A    between atoms: C_1  and  C_2
REMARK    2  A    between atoms: C_2  and  C_3
REMARK    3  A    between atoms: C_8  and  C_10
REMARK    4  A    between atoms: C_14  and  S_15
REMARK    5  A    between atoms: S_15  and  N_18
REMARK                            x       y       z     vdW  Elec       q    Type
REMARK                         _______ _______ _______ _____ _____    ______ ____
ROOT
ATOM      1  C   UNL     1       1.682   5.877  20.134  0.00  0.00    +0.000 A 
ATOM      2  C   UNL     1       1.250   5.035  21.172  0.00  0.00    +0.000 A 
ATOM      3  C   UNL     1       1.405   3.654  21.081  0.00  0.00    +0.000 A 
ATOM      4  C   UNL     1       1.955   3.080  19.937  0.00  0.00    +0.000 A 
ATOM      5  C   UNL     1       2.328   3.891  18.861  0.00  0.00    +0.000 A 
ATOM      6  C   UNL     1       2.228   5.300  18.963  0.00  0.00    +0.000 A 
ENDROOT
BRANCH   1  12
ATOM      7  C   UNL     1      -0.140  11.290  22.118  0.00  0.00    +0.000 A 
ATOM      8  N   UNL     1      -0.384  10.589  23.206  0.00  0.00    +0.000 NA
ATOM      9  N   UNL     1      -0.049   9.259  23.052  0.00  0.00    +0.000 NA
ATOM     10  C   UNL     1       0.483   9.005  21.877  0.00  0.00    +0.000 A 
ATOM     11  N   UNL     1       0.835   7.725  21.509  0.00  0.00    +0.000 N 
ATOM     12  C   UNL     1       1.527   7.357  20.381  0.00  0.00    +0.000 C 
ATOM     13  O   UNL     1       2.005   8.125  19.545  0.00  0.00    +0.000 OA
ATOM     14  S   UNL     1       0.600  10.374  20.861  0.00  0.00    +0.000 S 
ATOM     15  H   UNL     1       0.525   7.032  22.171  0.00  0.00    +0.000 HD
BRANCH   7  17
ATOM     16  C   UNL     1      -1.326  13.232  23.132  0.00  0.00    +0.000 C 
ATOM     17  C   UNL     1      -0.498  12.733  21.956  0.00  0.00    +0.000 C 
ENDBRANCH   7  17
ENDBRANCH   1  12
BRANCH   5  18
ATOM     18  S   UNL     1       3.113   3.118  17.408  0.00  0.00    +0.000 S 
ATOM     19  O   UNL     1       3.499   1.808  17.815  0.00  0.00    +0.000 OA
ATOM     20  O   UNL     1       2.160   3.334  16.316  0.00  0.00    +0.000 OA
BRANCH  18  21
ATOM     21  N   UNL     1       4.460   4.100  17.132  0.00  0.00    +0.000 N 
ATOM     22  C   UNL     1       4.910   4.365  15.751  0.00  0.00    +0.000 C 
ATOM     23  C   UNL     1       6.373   3.898  15.716  0.00  0.00    +0.000 C 
ATOM     24  C   UNL     1       6.770   4.238  17.123  0.00  0.00    +0.000 A 
ATOM     25  C   UNL     1       8.010   4.752  17.482  0.00  0.00    +0.000 A 
ATOM     26  C   UNL     1       8.067   5.519  18.635  0.00  0.00    +0.000 A 
ATOM     27  C   UNL     1       6.912   5.673  19.427  0.00  0.00    +0.000 A 
ATOM     28  C   UNL     1       5.699   5.017  19.121  0.00  0.00    +0.000 A 
ATOM     29  C   UNL     1       5.629   4.288  17.950  0.00  0.00    +0.000 A 
ENDBRANCH  18  21
ENDBRANCH   5  18
TORSDOF 4
ENDMDL
MODEL 6
REMARK VINA RESULT:      -8.0      7.010      9.630
REMARK  Name = 
REMARK  5 active torsions:
REMARK  status: ('A' for Active; 'I' for Inactive)
REMARK    1  A    between atoms: C_1  and  C_2
REMARK    2  A    between atoms: C_2  and  C_3
REMARK    3  A    between atoms: C_8  and  C_10
REMARK    4  A    between atoms: C_14  and  S_15
REMARK    5  A    between atoms: S_15  and  N_18
REMARK                            x       y       z     vdW  Elec       q    Type
REMARK                         _______ _______ _______ _____ _____    ______ ____
ROOT
ATOM      1  C   UNL     1       1.179   9.190  19.247  0.00  0.00    +0.000 A 
ATOM      2  C   UNL     1       1.082   8.818  20.597  0.00  0.00    +0.000 A 
ATOM      3  C   UNL     1       0.208   9.479  21.457  0.00  0.00    +0.000 A 
ATOM      4  C   UNL     1      -0.556  10.551  21.000  0.00  0.00    +0.000 A 
ATOM      5  C   UNL     1      -0.424  10.986  19.677  0.00  0.00    +0.000 A 
ATOM      6  C   UNL     1       0.418  10.287  18.779  0.00  0.00    +0.000 A 
ENDROOT
BRANCH   1  12
ATOM      7  C   UNL     1       5.237   5.149  17.306  0.00  0.00    +0.000 A 
ATOM      8  N   UNL     1       4.721   4.450  18.297  0.00  0.00    +0.000 NA
ATOM      9  N   UNL     1       3.722   5.140  18.953  0.00  0.00    +0.000 NA
ATOM     10  C   UNL     1       3.477   6.312  18.411  0.00  0.00    +0.000 A 
ATOM     11  N   UNL     1       2.551   7.177  18.952  0.00  0.00    +0.000 N 
ATOM     12  C   UNL     1       2.105   8.352  18.400  0.00  0.00    +0.000 C 
ATOM     13  O   UNL     1       2.416   8.792  17.293  0.00  0.00    +0.000 OA
ATOM     14  S   UNL     1       4.465   6.669  17.062  0.00  0.00    +0.000 S 
ATOM     15  H   UNL     1       2.204   6.863  19.845  0.00  0.00    +0.000 HD
BRANCH   7  17
ATOM     16  C   UNL     1       6.060   4.674  15.003  0.00  0.00    +0.000 C 
ATOM     17  C   UNL     1       6.404   4.699  16.487  0.00  0.00    +0.000 C 
ENDBRANCH   7  17
ENDBRANCH   1  12
BRANCH   5  18
ATOM     18  S   UNL     1      -1.490  12.342  19.088  0.00  0.00    +0.000 S 
ATOM     19  O   UNL     1      -1.578  13.274  20.162  0.00  0.00    +0.000 OA
ATOM     20  O   UNL     1      -0.925  12.717  17.789  0.00  0.00    +0.000 OA
BRANCH  18  21
ATOM     21  N   UNL     1      -2.971  11.575  18.816  0.00  0.00    +0.000 N 
ATOM     22  C   UNL     1      -3.082  10.532  17.776  0.00  0.00    +0.000 C 
ATOM     23  C   UNL     1      -4.193  11.026  16.838  0.00  0.00    +0.000 C 
ATOM     24  C   UNL     1      -5.064  11.726  17.840  0.00  0.00    +0.000 A 
ATOM     25  C   UNL     1      -6.453  11.710  17.813  0.00  0.00    +0.000 A 
ATOM     26  C   UNL     1      -7.112  11.884  19.020  0.00  0.00    +0.000 A 
ATOM     27  C   UNL     1      -6.368  12.151  20.187  0.00  0.00    +0.000 A 
ATOM     28  C   UNL     1      -4.965  12.310  20.163  0.00  0.00    +0.000 A 
ATOM     29  C   UNL     1      -4.305  12.094  18.969  0.00  0.00    +0.000 A 
ENDBRANCH  18  21
ENDBRANCH   5  18
TORSDOF 4
ENDMDL
MODEL 7
REMARK VINA RESULT:      -7.9      6.199      9.125
REMARK  Name = 
REMARK  5 active torsions:
REMARK  status: ('A' for Active; 'I' for Inactive)
REMARK    1  A    between atoms: C_1  and  C_2
REMARK    2  A    between atoms: C_2  and  C_3
REMARK    3  A    between atoms: C_8  and  C_10
REMARK    4  A    between atoms: C_14  and  S_15
REMARK    5  A    between atoms: S_15  and  N_18
REMARK                            x       y       z     vdW  Elec       q    Type
REMARK                         _______ _______ _______ _____ _____    ______ ____
ROOT
ATOM      1  C   UNL     1       1.697   8.067  19.954  0.00  0.00    +0.000 A 
ATOM      2  C   UNL     1       1.270   7.768  21.258  0.00  0.00    +0.000 A 
ATOM      3  C   UNL     1       0.356   8.589  21.914  0.00  0.00    +0.000 A 
ATOM      4  C   UNL     1      -0.118   9.748  21.301  0.00  0.00    +0.000 A 
ATOM      5  C   UNL     1       0.347  10.104  20.032  0.00  0.00    +0.000 A 
ATOM      6  C   UNL     1       1.232   9.249  19.331  0.00  0.00    +0.000 A 
ENDROOT
BRANCH   1  12
ATOM      7  C   UNL     1       5.269   5.040  16.127  0.00  0.00    +0.000 A 
ATOM      8  N   UNL     1       5.506   6.261  15.693  0.00  0.00    +0.000 NA
ATOM      9  N   UNL     1       4.804   7.210  16.408  0.00  0.00    +0.000 NA
ATOM     10  C   UNL     1       4.102   6.688  17.390  0.00  0.00    +0.000 A 
ATOM     11  N   UNL     1       3.290   7.464  18.187  0.00  0.00    +0.000 N 
ATOM     12  C   UNL     1       2.631   7.063  19.322  0.00  0.00    +0.000 C 
ATOM     13  O   UNL     1       2.713   5.954  19.851  0.00  0.00    +0.000 OA
ATOM     14  S   UNL     1       4.234   4.987  17.503  0.00  0.00    +0.000 S 
ATOM     15  H   UNL     1       3.208   8.411  17.851  0.00  0.00    +0.000 HD
BRANCH   7  17
ATOM     16  C   UNL     1       5.987   4.000  13.980  0.00  0.00    +0.000 C 
ATOM     17  C   UNL     1       5.808   3.805  15.480  0.00  0.00    +0.000 C 
ENDBRANCH   7  17
ENDBRANCH   1  12
BRANCH   5  18
ATOM     18  S   UNL     1      -0.348  11.585  19.226  0.00  0.00    +0.000 S 
ATOM     19  O   UNL     1      -0.587  12.528  20.266  0.00  0.00    +0.000 OA
ATOM     20  O   UNL     1       0.576  11.872  18.125  0.00  0.00    +0.000 OA
BRANCH  18  21
ATOM     21  N   UNL     1      -1.794  11.017  18.563  0.00  0.00    +0.000 N 
ATOM     22  C   UNL     1      -1.769   9.972  17.519  0.00  0.00    +0.000 C 
ATOM     23  C   UNL     1      -2.515  10.588  16.326  0.00  0.00    +0.000 C 
ATOM     24  C   UNL     1      -3.516  11.424  17.070  0.00  0.00    +0.000 A 
ATOM     25  C   UNL     1      -4.838  11.595  16.677  0.00  0.00    +0.000 A 
ATOM     26  C   UNL     1      -5.761  11.886  17.670  0.00  0.00    +0.000 A 
ATOM     27  C   UNL     1      -5.321  12.079  18.994  0.00  0.00    +0.000 A 
ATOM     28  C   UNL     1      -3.953  12.047  19.344  0.00  0.00    +0.000 A 
ATOM     29  C   UNL     1      -3.038  11.714  18.364  0.00  0.00    +0.000 A 
ENDBRANCH  18  21
ENDBRANCH   5  18
TORSDOF 4
ENDMDL
MODEL 8
REMARK VINA RESULT:      -7.9      5.651      8.084
REMARK  Name = 
REMARK  5 active torsions:
REMARK  status: ('A' for Active; 'I' for Inactive)
REMARK    1  A    between atoms: C_1  and  C_2
REMARK    2  A    between atoms: C_2  and  C_3
REMARK    3  A    between atoms: C_8  and  C_10
REMARK    4  A    between atoms: C_14  and  S_15
REMARK    5  A    between atoms: S_15  and  N_18
REMARK                            x       y       z     vdW  Elec       q    Type
REMARK                         _______ _______ _______ _____ _____    ______ ____
ROOT
ATOM      1  C   UNL     1       1.448   8.403  19.854  0.00  0.00    +0.000 A 
ATOM      2  C   UNL     1       1.846   9.095  18.699  0.00  0.00    +0.000 A 
ATOM      3  C   UNL     1       2.586   8.457  17.706  0.00  0.00    +0.000 A 
ATOM      4  C   UNL     1       2.982   7.130  17.863  0.00  0.00    +0.000 A 
ATOM      5  C   UNL     1       2.658   6.442  19.036  0.00  0.00    +0.000 A 
ATOM      6  C   UNL     1       1.858   7.060  20.027  0.00  0.00    +0.000 A 
ENDROOT
BRANCH   1  12
ATOM      7  C   UNL     1      -2.018  12.597  22.492  0.00  0.00    +0.000 A 
ATOM      8  N   UNL     1      -2.409  12.774  21.246  0.00  0.00    +0.000 NA
ATOM      9  N   UNL     1      -1.767  11.917  20.376  0.00  0.00    +0.000 NA
ATOM     10  C   UNL     1      -0.954  11.086  20.990  0.00  0.00    +0.000 A 
ATOM     11  N   UNL     1      -0.180  10.187  20.291  0.00  0.00    +0.000 N 
ATOM     12  C   UNL     1       0.587   9.180  20.821  0.00  0.00    +0.000 C 
ATOM     13  O   UNL     1       0.656   8.875  22.011  0.00  0.00    +0.000 OA
ATOM     14  S   UNL     1      -0.899  11.302  22.685  0.00  0.00    +0.000 S 
ATOM     15  H   UNL     1      -0.220  10.335  19.294  0.00  0.00    +0.000 HD
BRANCH   7  17
ATOM     16  C   UNL     1      -3.779  12.952  24.219  0.00  0.00    +0.000 C 
ATOM     17  C   UNL     1      -2.463  13.451  23.636  0.00  0.00    +0.000 C 
ENDBRANCH   7  17
ENDBRANCH   1  12
BRANCH   5  18
ATOM     18  S   UNL     1       3.124   4.685  19.181  0.00  0.00    +0.000 S 
ATOM     19  O   UNL     1       3.139   4.391  20.575  0.00  0.00    +0.000 OA
ATOM     20  O   UNL     1       2.224   3.989  18.258  0.00  0.00    +0.000 OA
BRANCH  18  21
ATOM     21  N   UNL     1       4.681   4.646  18.526  0.00  0.00    +0.000 N 
ATOM     22  C   UNL     1       5.829   5.128  19.321  0.00  0.00    +0.000 C 
ATOM     23  C   UNL     1       6.472   6.226  18.460  0.00  0.00    +0.000 C 
ATOM     24  C   UNL     1       6.193   5.662  17.098  0.00  0.00    +0.000 A 
ATOM     25  C   UNL     1       7.078   5.728  16.029  0.00  0.00    +0.000 A 
ATOM     26  C   UNL     1       6.975   4.742  15.060  0.00  0.00    +0.000 A 
ATOM     27  C   UNL     1       5.946   3.784  15.148  0.00  0.00    +0.000 A 
ATOM     28  C   UNL     1       4.966   3.826  16.164  0.00  0.00    +0.000 A 
ATOM     29  C   UNL     1       5.093   4.782  17.154  0.00  0.00    +0.000 A 
ENDBRANCH  18  21
ENDBRANCH   5  18
TORSDOF 4
ENDMDL
MODEL 9
REMARK VINA RESULT:      -7.9      4.112      7.372
REMARK  Name = 
REMARK  5 active torsions:
REMARK  status: ('A' for Active; 'I' for Inactive)
REMARK    1  A    between atoms: C_1  and  C_2
REMARK    2  A    between atoms: C_2  and  C_3
REMARK    3  A    between atoms: C_8  and  C_10
REMARK    4  A    between atoms: C_14  and  S_15
REMARK    5  A    between atoms: S_15  and  N_18
REMARK                            x       y       z     vdW  Elec       q    Type
REMARK                         _______ _______ _______ _____ _____    ______ ____
ROOT
ATOM      1  C   UNL     1       2.566   6.870  18.906  0.00  0.00    +0.000 A 
ATOM      2  C   UNL     1       2.368   5.668  19.604  0.00  0.00    +0.000 A 
ATOM      3  C   UNL     1       3.023   4.501  19.214  0.00  0.00    +0.000 A 
ATOM      4  C   UNL     1       3.853   4.499  18.095  0.00  0.00    +0.000 A 
ATOM      5  C   UNL     1       4.009   5.667  17.342  0.00  0.00    +0.000 A 
ATOM      6  C   UNL     1       3.396   6.872  17.760  0.00  0.00    +0.000 A 
ENDROOT
BRANCH   1  12
ATOM      7  C   UNL     1      -0.432  10.731  22.466  0.00  0.00    +0.000 A 
ATOM      8  N   UNL     1       0.237  10.083  23.398  0.00  0.00    +0.000 NA
ATOM      9  N   UNL     1       1.047   9.100  22.866  0.00  0.00    +0.000 NA
ATOM     10  C   UNL     1       1.008   9.069  21.552  0.00  0.00    +0.000 A 
ATOM     11  N   UNL     1       1.706   8.124  20.833  0.00  0.00    +0.000 N 
ATOM     12  C   UNL     1       1.861   8.080  19.470  0.00  0.00    +0.000 C 
ATOM     13  O   UNL     1       1.453   8.922  18.670  0.00  0.00    +0.000 OA
ATOM     14  S   UNL     1      -0.039  10.232  20.864  0.00  0.00    +0.000 S 
ATOM     15  H   UNL     1       2.119   7.417  21.421  0.00  0.00    +0.000 HD
BRANCH   7  17
ATOM     16  C   UNL     1      -1.332  12.956  21.797  0.00  0.00    +0.000 C 
ATOM     17  C   UNL     1      -1.462  11.776  22.751  0.00  0.00    +0.000 C 
ENDBRANCH   7  17
ENDBRANCH   1  12
BRANCH   5  18
ATOM     18  S   UNL     1       5.160   5.652  15.928  0.00  0.00    +0.000 S 
ATOM     19  O   UNL     1       5.108   4.335  15.386  0.00  0.00    +0.000 OA
ATOM     20  O   UNL     1       4.783   6.825  15.134  0.00  0.00    +0.000 OA
BRANCH  18  21
ATOM     21  N   UNL     1       6.656   5.964  16.648  0.00  0.00    +0.000 N 
ATOM     22  C   UNL     1       7.555   4.846  16.999  0.00  0.00    +0.000 C 
ATOM     23  C   UNL     1       7.814   5.006  18.505  0.00  0.00    +0.000 C 
ATOM     24  C   UNL     1       7.776   6.504  18.600  0.00  0.00    +0.000 A 
ATOM     25  C   UNL     1       8.615   7.256  19.413  0.00  0.00    +0.000 A 
ATOM     26  C   UNL     1       8.875   8.560  19.020  0.00  0.00    +0.000 A 
ATOM     27  C   UNL     1       8.225   9.088  17.887  0.00  0.00    +0.000 A 
ATOM     28  C   UNL     1       7.261   8.352  17.163  0.00  0.00    +0.000 A 
ATOM     29  C   UNL     1       7.035   7.039  17.527  0.00  0.00    +0.000 A 
ENDBRANCH  18  21
ENDBRANCH   5  18
TORSDOF 4
ENDMDL
