MODEL 1
REMARK VINA RESULT:      -7.7      0.000      0.000
REMARK  Name = 
REMARK  7 active torsions:
REMARK  status: ('A' for Active; 'I' for Inactive)
REMARK    1  A    between atoms: C_2  and  C_13
REMARK    2  A    between atoms: N_3  and  C_4
REMARK    3  A    between atoms: C_4  and  C_5
REMARK    4  A    between atoms: C_15  and  C_16
REMARK    5  A    between atoms: C_22  and  O_24
REMARK    6  A    between atoms: O_24  and  C_25
REMARK    7  A    between atoms: C_25  and  C_26
REMARK                            x       y       z     vdW  Elec       q    Type
REMARK                         _______ _______ _______ _____ _____    ______ ____
ROOT
ATOM      1  C   UNL     1       1.995   8.468  18.361  0.00  0.00    +0.000 A 
ATOM      2  C   UNL     1       2.189   7.439  17.409  0.00  0.00    +0.000 A 
ATOM      3  C   UNL     1       2.304   6.296  18.162  0.00  0.00    +0.000 A 
ATOM      4  O   UNL     1       2.276   6.615  19.475  0.00  0.00    +0.000 OA
ATOM      5  N   UNL     1       2.098   7.961  19.602  0.00  0.00    +0.000 NA
ENDROOT
BRANCH   3   6
ATOM      6  C   UNL     1       2.420   4.853  17.868  0.00  0.00    +0.000 C 
ATOM      7  C   UNL     1       1.425   4.114  18.785  0.00  0.00    +0.000 C 
ATOM      8  C   UNL     1       1.530   2.602  18.661  0.00  0.00    +0.000 C 
ATOM      9  C   UNL     1       2.973   2.150  18.831  0.00  0.00    +0.000 C 
ATOM     10  C   UNL     1       3.898   2.892  17.878  0.00  0.00    +0.000 C 
ATOM     11  N   UNL     1       3.789   4.341  18.046  0.00  0.00    +0.000 N 
ATOM     12  C   UNL     1       4.910   5.120  17.768  0.00  0.00    +0.000 C 
ATOM     13  O   UNL     1       4.907   6.262  17.322  0.00  0.00    +0.000 OA
BRANCH  12  14
ATOM     14  O   UNL     1       6.065   4.469  18.079  0.00  0.00    +0.000 OA
BRANCH  14  15
ATOM     15  C   UNL     1       7.292   5.168  17.804  0.00  0.00    +0.000 C 
BRANCH  15  16
ATOM     16  C   UNL     1       8.001   5.685  19.047  0.00  0.00    +0.000 C 
ATOM     17  F   UNL     1       7.116   5.733  20.081  0.00  0.00    +0.000 F 
ENDBRANCH  15  16
ENDBRANCH  14  15
ENDBRANCH  12  14
ENDBRANCH   3   6
BRANCH   1  19
ATOM     18  O   UNL     1       2.588  10.740  18.125  0.00  0.00    +0.000 OA
ATOM     19  C   UNL     1       1.707   9.880  18.079  0.00  0.00    +0.000 C 
ATOM     20  N   UNL     1       0.426  10.266  17.743  0.00  0.00    +0.000 N 
ATOM     21  H   UNL     1       0.334  11.240  17.493  0.00  0.00    +0.000 HD
BRANCH  20  22
ATOM     22  C   UNL     1      -0.700   9.378  17.596  0.00  0.00    +0.000 C 
BRANCH  22  23
ATOM     23  C   UNL     1      -2.006  10.097  17.489  0.00  0.00    +0.000 A 
ATOM     24  C   UNL     1      -2.732  10.048  16.295  0.00  0.00    +0.000 A 
ATOM     25  C   UNL     1      -3.902  10.792  16.160  0.00  0.00    +0.000 A 
ATOM     26  C   UNL     1      -4.358  11.580  17.223  0.00  0.00    +0.000 A 
ATOM     27 CL   UNL     1      -5.800  12.493  16.976  0.00  0.00    +0.000 Cl
ATOM     28  C   UNL     1      -3.644  11.616  18.426  0.00  0.00    +0.000 A 
ATOM     29 CL   UNL     1      -4.135  12.579  19.772  0.00  0.00    +0.000 Cl
ATOM     30  C   UNL     1      -2.473  10.869  18.560  0.00  0.00    +0.000 A 
ENDBRANCH  22  23
ENDBRANCH  20  22
ENDBRANCH   1  19
TORSDOF 7
ENDMDL
MODEL 2
REMARK VINA RESULT:      -7.6      1.136      1.244
REMARK  Name = 
REMARK  7 active torsions:
REMARK  status: ('A' for Active; 'I' for Inactive)
REMARK    1  A    between atoms: C_2  and  C_13
REMARK    2  A    between atoms: N_3  and  C_4
REMARK    3  A    between atoms: C_4  and  C_5
REMARK    4  A    between atoms: C_15  and  C_16
REMARK    5  A    between atoms: C_22  and  O_24
REMARK    6  A    between atoms: O_24  and  C_25
REMARK    7  A    between atoms: C_25  and  C_26
REMARK                            x       y       z     vdW  Elec       q    Type
REMARK                         _______ _______ _______ _____ _____    ______ ____
ROOT
ATOM      1  C   UNL     1       1.900   8.879  18.592  0.00  0.00    +0.000 A 
ATOM      2  C   UNL     1       2.254   7.842  17.695  0.00  0.00    +0.000 A 
ATOM      3  C   UNL     1       2.352   6.725  18.489  0.00  0.00    +0.000 A 
ATOM      4  O   UNL     1       2.165   7.071  19.782  0.00  0.00    +0.000 OA
ATOM      5  N   UNL     1       1.897   8.407  19.851  0.00  0.00    +0.000 NA
ENDROOT
BRANCH   3   6
ATOM      6  C   UNL     1       2.581   5.285  18.251  0.00  0.00    +0.000 C 
ATOM      7  C   UNL     1       1.685   4.507  19.235  0.00  0.00    +0.000 C 
ATOM      8  C   UNL     1       1.914   3.005  19.169  0.00  0.00    +0.000 C 
ATOM      9  C   UNL     1       3.396   2.683  19.303  0.00  0.00    +0.000 C 
ATOM     10  C   UNL     1       4.220   3.458  18.285  0.00  0.00    +0.000 C 
ATOM     11  N   UNL     1       3.994   4.899  18.398  0.00  0.00    +0.000 N 
ATOM     12  C   UNL     1       5.034   5.755  18.045  0.00  0.00    +0.000 C 
ATOM     13  O   UNL     1       4.918   6.873  17.553  0.00  0.00    +0.000 OA
BRANCH  12  14
ATOM     14  O   UNL     1       6.251   5.218  18.339  0.00  0.00    +0.000 OA
BRANCH  14  15
ATOM     15  C   UNL     1       7.273   5.355  17.337  0.00  0.00    +0.000 C 
BRANCH  15  16
ATOM     16  C   UNL     1       7.030   4.519  16.088  0.00  0.00    +0.000 C 
ATOM     17  F   UNL     1       7.474   5.204  14.997  0.00  0.00    +0.000 F 
ENDBRANCH  15  16
ENDBRANCH  14  15
ENDBRANCH  12  14
ENDBRANCH   3   6
BRANCH   1  19
ATOM     18  O   UNL     1       2.412  11.159  18.259  0.00  0.00    +0.000 OA
ATOM     19  C   UNL     1       1.565  10.264  18.240  0.00  0.00    +0.000 C 
ATOM     20  N   UNL     1       0.276  10.585  17.867  0.00  0.00    +0.000 N 
ATOM     21  H   UNL     1       0.152  11.544  17.572  0.00  0.00    +0.000 HD
BRANCH  20  22
ATOM     22  C   UNL     1      -0.814   9.650  17.745  0.00  0.00    +0.000 C 
BRANCH  22  23
ATOM     23  C   UNL     1      -2.146  10.313  17.608  0.00  0.00    +0.000 A 
ATOM     24  C   UNL     1      -2.831  10.253  16.390  0.00  0.00    +0.000 A 
ATOM     25  C   UNL     1      -4.028  10.948  16.229  0.00  0.00    +0.000 A 
ATOM     26  C   UNL     1      -4.552  11.697  17.289  0.00  0.00    +0.000 A 
ATOM     27 CL   UNL     1      -6.024  12.550  17.010  0.00  0.00    +0.000 Cl
ATOM     28  C   UNL     1      -3.878  11.743  18.514  0.00  0.00    +0.000 A 
ATOM     29 CL   UNL     1      -4.453  12.661  19.860  0.00  0.00    +0.000 Cl
ATOM     30  C   UNL     1      -2.680  11.046  18.675  0.00  0.00    +0.000 A 
ENDBRANCH  22  23
ENDBRANCH  20  22
ENDBRANCH   1  19
TORSDOF 7
ENDMDL
MODEL 3
REMARK VINA RESULT:      -7.6      1.173      1.244
REMARK  Name = 
REMARK  7 active torsions:
REMARK  status: ('A' for Active; 'I' for Inactive)
REMARK    1  A    between atoms: C_2  and  C_13
REMARK    2  A    between atoms: N_3  and  C_4
REMARK    3  A    between atoms: C_4  and  C_5
REMARK    4  A    between atoms: C_15  and  C_16
REMARK    5  A    between atoms: C_22  and  O_24
REMARK    6  A    between atoms: O_24  and  C_25
REMARK    7  A    between atoms: C_25  and  C_26
REMARK                            x       y       z     vdW  Elec       q    Type
REMARK                         _______ _______ _______ _____ _____    ______ ____
ROOT
ATOM      1  C   UNL     1       1.939   8.486  18.763  0.00  0.00    +0.000 A 
ATOM      2  C   UNL     1       2.164   7.223  18.166  0.00  0.00    +0.000 A 
ATOM      3  C   UNL     1       2.141   6.341  19.218  0.00  0.00    +0.000 A 
ATOM      4  O   UNL     1       2.008   7.023  20.378  0.00  0.00    +0.000 OA
ATOM      5  N   UNL     1       1.895   8.353  20.101  0.00  0.00    +0.000 NA
ENDROOT
BRANCH   3   6
ATOM      6  C   UNL     1       2.203   4.871  19.358  0.00  0.00    +0.000 C 
ATOM      7  C   UNL     1       1.321   4.485  20.562  0.00  0.00    +0.000 C 
ATOM      8  C   UNL     1       1.391   3.000  20.884  0.00  0.00    +0.000 C 
ATOM      9  C   UNL     1       2.839   2.549  21.014  0.00  0.00    +0.000 C 
ATOM     10  C   UNL     1       3.646   2.931  19.783  0.00  0.00    +0.000 C 
ATOM     11  N   UNL     1       3.577   4.369  19.522  0.00  0.00    +0.000 N 
ATOM     12  C   UNL     1       4.664   4.975  18.896  0.00  0.00    +0.000 C 
ATOM     13  O   UNL     1       4.619   5.934  18.133  0.00  0.00    +0.000 OA
BRANCH  12  14
ATOM     14  O   UNL     1       5.841   4.390  19.253  0.00  0.00    +0.000 OA
BRANCH  14  15
ATOM     15  C   UNL     1       7.021   4.851  18.572  0.00  0.00    +0.000 C 
BRANCH  15  16
ATOM     16  C   UNL     1       7.896   5.775  19.408  0.00  0.00    +0.000 C 
ATOM     17  F   UNL     1       8.309   6.820  18.638  0.00  0.00    +0.000 F 
ENDBRANCH  15  16
ENDBRANCH  14  15
ENDBRANCH  12  14
ENDBRANCH   3   6
BRANCH   1  19
ATOM     18  O   UNL     1       2.598  10.189  17.267  0.00  0.00    +0.000 OA
ATOM     19  C   UNL     1       1.760   9.766  18.065  0.00  0.00    +0.000 C 
ATOM     20  N   UNL     1       0.626  10.518  18.291  0.00  0.00    +0.000 N 
ATOM     21  H   UNL     1       0.550  11.345  17.715  0.00  0.00    +0.000 HD
BRANCH  20  22
ATOM     22  C   UNL     1      -0.468  10.141  19.151  0.00  0.00    +0.000 C 
BRANCH  22  23
ATOM     23  C   UNL     1      -1.797  10.601  18.648  0.00  0.00    +0.000 A 
ATOM     24  C   UNL     1      -2.223  10.234  17.368  0.00  0.00    +0.000 A 
ATOM     25  C   UNL     1      -3.419  10.737  16.860  0.00  0.00    +0.000 A 
ATOM     26  C   UNL     1      -4.201  11.601  17.635  0.00  0.00    +0.000 A 
ATOM     27 CL   UNL     1      -5.656  12.203  16.934  0.00  0.00    +0.000 Cl
ATOM     28  C   UNL     1      -3.788  11.954  18.924  0.00  0.00    +0.000 A 
ATOM     29 CL   UNL     1      -4.690  13.029  19.931  0.00  0.00    +0.000 Cl
ATOM     30  C   UNL     1      -2.590  11.448  19.432  0.00  0.00    +0.000 A 
ENDBRANCH  22  23
ENDBRANCH  20  22
ENDBRANCH   1  19
TORSDOF 7
ENDMDL
MODEL 4
REMARK VINA RESULT:      -7.6      1.376      1.923
REMARK  Name = 
REMARK  7 active torsions:
REMARK  status: ('A' for Active; 'I' for Inactive)
REMARK    1  A    between atoms: C_2  and  C_13
REMARK    2  A    between atoms: N_3  and  C_4
REMARK    3  A    between atoms: C_4  and  C_5
REMARK    4  A    between atoms: C_15  and  C_16
REMARK    5  A    between atoms: C_22  and  O_24
REMARK    6  A    between atoms: O_24  and  C_25
REMARK    7  A    between atoms: C_25  and  C_26
REMARK                            x       y       z     vdW  Elec       q    Type
REMARK                         _______ _______ _______ _____ _____    ______ ____
ROOT
ATOM      1  C   UNL     1       1.889   8.639  18.714  0.00  0.00    +0.000 A 
ATOM      2  C   UNL     1       2.157   7.379  18.129  0.00  0.00    +0.000 A 
ATOM      3  C   UNL     1       2.117   6.500  19.183  0.00  0.00    +0.000 A 
ATOM      4  O   UNL     1       1.934   7.182  20.336  0.00  0.00    +0.000 OA
ATOM      5  N   UNL     1       1.805   8.509  20.050  0.00  0.00    +0.000 NA
ENDROOT
BRANCH   3   6
ATOM      6  C   UNL     1       2.201   5.032  19.329  0.00  0.00    +0.000 C 
ATOM      7  C   UNL     1       1.261   4.629  20.483  0.00  0.00    +0.000 C 
ATOM      8  C   UNL     1       1.344   3.146  20.812  0.00  0.00    +0.000 C 
ATOM      9  C   UNL     1       2.792   2.725  21.025  0.00  0.00    +0.000 C 
ATOM     10  C   UNL     1       3.659   3.123  19.840  0.00  0.00    +0.000 C 
ATOM     11  N   UNL     1       3.575   4.559  19.572  0.00  0.00    +0.000 N 
ATOM     12  C   UNL     1       4.682   5.187  19.007  0.00  0.00    +0.000 C 
ATOM     13  O   UNL     1       4.660   6.144  18.240  0.00  0.00    +0.000 OA
BRANCH  12  14
ATOM     14  O   UNL     1       5.849   4.627  19.431  0.00  0.00    +0.000 OA
BRANCH  14  15
ATOM     15  C   UNL     1       7.059   5.327  19.090  0.00  0.00    +0.000 C 
BRANCH  15  16
ATOM     16  C   UNL     1       7.836   4.694  17.944  0.00  0.00    +0.000 C 
ATOM     17  F   UNL     1       7.356   5.170  16.761  0.00  0.00    +0.000 F 
ENDBRANCH  15  16
ENDBRANCH  14  15
ENDBRANCH  12  14
ENDBRANCH   3   6
BRANCH   1  19
ATOM     18  O   UNL     1       2.670  10.564  17.594  0.00  0.00    +0.000 OA
ATOM     19  C   UNL     1       1.709   9.913  18.007  0.00  0.00    +0.000 C 
ATOM     20  N   UNL     1       0.438  10.400  17.783  0.00  0.00    +0.000 N 
ATOM     21  H   UNL     1       0.404  11.242  17.225  0.00  0.00    +0.000 HD
BRANCH  20  22
ATOM     22  C   UNL     1      -0.787   9.737  18.155  0.00  0.00    +0.000 C 
BRANCH  22  23
ATOM     23  C   UNL     1      -1.871  10.685  18.555  0.00  0.00    +0.000 A 
ATOM     24  C   UNL     1      -1.653  11.592  19.597  0.00  0.00    +0.000 A 
ATOM     25  C   UNL     1      -2.691  12.412  20.035  0.00  0.00    +0.000 A 
ATOM     26  C   UNL     1      -3.949  12.337  19.425  0.00  0.00    +0.000 A 
ATOM     27 CL   UNL     1      -5.192  13.364  20.035  0.00  0.00    +0.000 Cl
ATOM     28  C   UNL     1      -4.163  11.444  18.369  0.00  0.00    +0.000 A 
ATOM     29 CL   UNL     1      -5.692  11.283  17.581  0.00  0.00    +0.000 Cl
ATOM     30  C   UNL     1      -3.122  10.624  17.930  0.00  0.00    +0.000 A 
ENDBRANCH  22  23
ENDBRANCH  20  22
ENDBRANCH   1  19
TORSDOF 7
ENDMDL
MODEL 5
REMARK VINA RESULT:      -7.5      0.806      1.435
REMARK  Name = 
REMARK  7 active torsions:
REMARK  status: ('A' for Active; 'I' for Inactive)
REMARK    1  A    between atoms: C_2  and  C_13
REMARK    2  A    between atoms: N_3  and  C_4
REMARK    3  A    between atoms: C_4  and  C_5
REMARK    4  A    between atoms: C_15  and  C_16
REMARK    5  A    between atoms: C_22  and  O_24
REMARK    6  A    between atoms: O_24  and  C_25
REMARK    7  A    between atoms: C_25  and  C_26
REMARK                            x       y       z     vdW  Elec       q    Type
REMARK                         _______ _______ _______ _____ _____    ______ ____
ROOT
ATOM      1  C   UNL     1       2.188   8.424  18.370  0.00  0.00    +0.000 A 
ATOM      2  C   UNL     1       2.358   7.359  17.454  0.00  0.00    +0.000 A 
ATOM      3  C   UNL     1       2.397   6.235  18.243  0.00  0.00    +0.000 A 
ATOM      4  O   UNL     1       2.350   6.595  19.545  0.00  0.00    +0.000 OA
ATOM      5  N   UNL     1       2.233   7.951  19.628  0.00  0.00    +0.000 NA
ENDROOT
BRANCH   3   6
ATOM      6  C   UNL     1       2.452   4.780  17.994  0.00  0.00    +0.000 C 
ATOM      7  C   UNL     1       1.448   4.111  18.955  0.00  0.00    +0.000 C 
ATOM      8  C   UNL     1       1.492   2.592  18.878  0.00  0.00    +0.000 C 
ATOM      9  C   UNL     1       2.921   2.089  19.035  0.00  0.00    +0.000 C 
ATOM     10  C   UNL     1       3.853   2.764  18.040  0.00  0.00    +0.000 C 
ATOM     11  N   UNL     1       3.804   4.221  18.163  0.00  0.00    +0.000 N 
ATOM     12  C   UNL     1       4.948   4.946  17.837  0.00  0.00    +0.000 C 
ATOM     13  O   UNL     1       4.979   6.073  17.354  0.00  0.00    +0.000 OA
BRANCH  12  14
ATOM     14  O   UNL     1       6.083   4.261  18.148  0.00  0.00    +0.000 OA
BRANCH  14  15
ATOM     15  C   UNL     1       7.325   4.971  17.997  0.00  0.00    +0.000 C 
BRANCH  15  16
ATOM     16  C   UNL     1       7.709   5.807  19.210  0.00  0.00    +0.000 C 
ATOM     17  F   UNL     1       8.745   5.205  19.859  0.00  0.00    +0.000 F 
ENDBRANCH  15  16
ENDBRANCH  14  15
ENDBRANCH  12  14
ENDBRANCH   3   6
BRANCH   1  19
ATOM     18  O   UNL     1       2.911  10.574  17.718  0.00  0.00    +0.000 OA
ATOM     19  C   UNL     1       1.976   9.839  18.039  0.00  0.00    +0.000 C 
ATOM     20  N   UNL     1       0.703  10.369  18.075  0.00  0.00    +0.000 N 
ATOM     21  H   UNL     1       0.640  11.328  17.762  0.00  0.00    +0.000 HD
BRANCH  20  22
ATOM     22  C   UNL     1      -0.498   9.634  18.380  0.00  0.00    +0.000 C 
BRANCH  22  23
ATOM     23  C   UNL     1      -1.744  10.334  17.945  0.00  0.00    +0.000 A 
ATOM     24  C   UNL     1      -2.388  11.217  18.819  0.00  0.00    +0.000 A 
ATOM     25  C   UNL     1      -3.600  11.800  18.452  0.00  0.00    +0.000 A 
ATOM     26  C   UNL     1      -4.167  11.512  17.205  0.00  0.00    +0.000 A 
ATOM     27 CL   UNL     1      -5.679  12.251  16.830  0.00  0.00    +0.000 Cl
ATOM     28  C   UNL     1      -3.515  10.645  16.322  0.00  0.00    +0.000 A 
ATOM     29 CL   UNL     1      -4.164  10.229  14.776  0.00  0.00    +0.000 Cl
ATOM     30  C   UNL     1      -2.301  10.063  16.689  0.00  0.00    +0.000 A 
ENDBRANCH  22  23
ENDBRANCH  20  22
ENDBRANCH   1  19
TORSDOF 7
ENDMDL
MODEL 6
REMARK VINA RESULT:      -7.5      1.804      2.265
REMARK  Name = 
REMARK  7 active torsions:
REMARK  status: ('A' for Active; 'I' for Inactive)
REMARK    1  A    between atoms: C_2  and  C_13
REMARK    2  A    between atoms: N_3  and  C_4
REMARK    3  A    between atoms: C_4  and  C_5
REMARK    4  A    between atoms: C_15  and  C_16
REMARK    5  A    between atoms: C_22  and  O_24
REMARK    6  A    between atoms: O_24  and  C_25
REMARK    7  A    between atoms: C_25  and  C_26
REMARK                            x       y       z     vdW  Elec       q    Type
REMARK                         _______ _______ _______ _____ _____    ______ ____
ROOT
ATOM      1  C   UNL     1       1.982   8.679  18.696  0.00  0.00    +0.000 A 
ATOM      2  C   UNL     1       2.213   7.415  18.103  0.00  0.00    +0.000 A 
ATOM      3  C   UNL     1       2.144   6.530  19.152  0.00  0.00    +0.000 A 
ATOM      4  O   UNL     1       1.978   7.211  20.308  0.00  0.00    +0.000 OA
ATOM      5  N   UNL     1       1.890   8.543  20.031  0.00  0.00    +0.000 NA
ENDROOT
BRANCH   3   6
ATOM      6  C   UNL     1       2.184   5.060  19.289  0.00  0.00    +0.000 C 
ATOM      7  C   UNL     1       1.277   4.683  20.478  0.00  0.00    +0.000 C 
ATOM      8  C   UNL     1       1.321   3.197  20.798  0.00  0.00    +0.000 C 
ATOM      9  C   UNL     1       2.761   2.726  20.952  0.00  0.00    +0.000 C 
ATOM     10  C   UNL     1       3.594   3.100  19.735  0.00  0.00    +0.000 C 
ATOM     11  N   UNL     1       3.549   4.539  19.476  0.00  0.00    +0.000 N 
ATOM     12  C   UNL     1       4.654   5.132  18.870  0.00  0.00    +0.000 C 
ATOM     13  O   UNL     1       4.634   6.093  18.108  0.00  0.00    +0.000 OA
BRANCH  12  14
ATOM     14  O   UNL     1       5.817   4.531  19.245  0.00  0.00    +0.000 OA
BRANCH  14  15
ATOM     15  C   UNL     1       7.017   4.996  18.604  0.00  0.00    +0.000 C 
BRANCH  15  16
ATOM     16  C   UNL     1       7.889   5.877  19.488  0.00  0.00    +0.000 C 
ATOM     17  F   UNL     1       8.389   6.903  18.744  0.00  0.00    +0.000 F 
ENDBRANCH  15  16
ENDBRANCH  14  15
ENDBRANCH  12  14
ENDBRANCH   3   6
BRANCH   1  19
ATOM     18  O   UNL     1       2.815  10.546  17.518  0.00  0.00    +0.000 OA
ATOM     19  C   UNL     1       1.842   9.962  17.996  0.00  0.00    +0.000 C 
ATOM     20  N   UNL     1       0.594  10.534  17.854  0.00  0.00    +0.000 N 
ATOM     21  H   UNL     1       0.581  11.376  17.296  0.00  0.00    +0.000 HD
BRANCH  20  22
ATOM     22  C   UNL     1      -0.645   9.955  18.309  0.00  0.00    +0.000 C 
BRANCH  22  23
ATOM     23  C   UNL     1      -1.410  10.851  19.228  0.00  0.00    +0.000 A 
ATOM     24  C   UNL     1      -2.557  11.506  18.767  0.00  0.00    +0.000 A 
ATOM     25  C   UNL     1      -3.220  12.413  19.591  0.00  0.00    +0.000 A 
ATOM     26  C   UNL     1      -2.745  12.662  20.884  0.00  0.00    +0.000 A 
ATOM     27 CL   UNL     1      -3.601  13.815  21.838  0.00  0.00    +0.000 Cl
ATOM     28  C   UNL     1      -1.609  11.994  21.355  0.00  0.00    +0.000 A 
ATOM     29 CL   UNL     1      -0.955  12.264  22.930  0.00  0.00    +0.000 Cl
ATOM     30  C   UNL     1      -0.947  11.084  20.529  0.00  0.00    +0.000 A 
ENDBRANCH  22  23
ENDBRANCH  20  22
ENDBRANCH   1  19
TORSDOF 7
ENDMDL
MODEL 7
REMARK VINA RESULT:      -7.4      5.066      8.020
REMARK  Name = 
REMARK  7 active torsions:
REMARK  status: ('A' for Active; 'I' for Inactive)
REMARK    1  A    between atoms: C_2  and  C_13
REMARK    2  A    between atoms: N_3  and  C_4
REMARK    3  A    between atoms: C_4  and  C_5
REMARK    4  A    between atoms: C_15  and  C_16
REMARK    5  A    between atoms: C_22  and  O_24
REMARK    6  A    between atoms: O_24  and  C_25
REMARK    7  A    between atoms: C_25  and  C_26
REMARK                            x       y       z     vdW  Elec       q    Type
REMARK                         _______ _______ _______ _____ _____    ______ ____
ROOT
ATOM      1  C   UNL     1       6.492   4.894  17.243  0.00  0.00    +0.000 A 
ATOM      2  C   UNL     1       5.145   4.479  17.115  0.00  0.00    +0.000 A 
ATOM      3  C   UNL     1       4.866   3.859  18.309  0.00  0.00    +0.000 A 
ATOM      4  O   UNL     1       5.984   3.815  19.068  0.00  0.00    +0.000 OA
ATOM      5  N   UNL     1       6.996   4.445  18.406  0.00  0.00    +0.000 NA
ENDROOT
BRANCH   3   6
ATOM      6  C   UNL     1       3.660   3.276  18.932  0.00  0.00    +0.000 C 
ATOM      7  C   UNL     1       3.095   2.230  17.950  0.00  0.00    +0.000 C 
ATOM      8  C   UNL     1       1.779   1.634  18.427  0.00  0.00    +0.000 C 
ATOM      9  C   UNL     1       0.791   2.736  18.785  0.00  0.00    +0.000 C 
ATOM     10  C   UNL     1       1.398   3.716  19.779  0.00  0.00    +0.000 C 
ATOM     11  N   UNL     1       2.646   4.288  19.273  0.00  0.00    +0.000 N 
ATOM     12  C   UNL     1       2.994   5.571  19.687  0.00  0.00    +0.000 C 
ATOM     13  O   UNL     1       4.133   5.996  19.852  0.00  0.00    +0.000 OA
BRANCH  12  14
ATOM     14  O   UNL     1       1.897   6.355  19.873  0.00  0.00    +0.000 OA
BRANCH  14  15
ATOM     15  C   UNL     1       2.073   7.768  19.667  0.00  0.00    +0.000 C 
BRANCH  15  16
ATOM     16  C   UNL     1       1.237   8.637  20.595  0.00  0.00    +0.000 C 
ATOM     17  F   UNL     1       1.111   9.881  20.053  0.00  0.00    +0.000 F 
ENDBRANCH  15  16
ENDBRANCH  14  15
ENDBRANCH  12  14
ENDBRANCH   3   6
BRANCH   1  19
ATOM     18  O   UNL     1       7.638   5.242  15.209  0.00  0.00    +0.000 OA
ATOM     19  C   UNL     1       7.253   5.705  16.284  0.00  0.00    +0.000 C 
ATOM     20  N   UNL     1       7.543   7.022  16.576  0.00  0.00    +0.000 N 
ATOM     21  H   UNL     1       8.005   7.524  15.830  0.00  0.00    +0.000 HD
BRANCH  20  22
ATOM     22  C   UNL     1       7.123   7.725  17.762  0.00  0.00    +0.000 C 
BRANCH  22  23
ATOM     23  C   UNL     1       7.919   8.961  18.026  0.00  0.00    +0.000 A 
ATOM     24  C   UNL     1       8.980   8.925  18.937  0.00  0.00    +0.000 A 
ATOM     25  C   UNL     1       9.664  10.096  19.256  0.00  0.00    +0.000 A 
ATOM     26  C   UNL     1       9.298  11.307  18.657  0.00  0.00    +0.000 A 
ATOM     27 CL   UNL     1      10.173  12.720  19.118  0.00  0.00    +0.000 Cl
ATOM     28  C   UNL     1       8.249  11.343  17.732  0.00  0.00    +0.000 A 
ATOM     29 CL   UNL     1       7.730  12.802  16.968  0.00  0.00    +0.000 Cl
ATOM     30  C   UNL     1       7.566  10.169  17.411  0.00  0.00    +0.000 A 
ENDBRANCH  22  23
ENDBRANCH  20  22
ENDBRANCH   1  19
TORSDOF 7
ENDMDL
MODEL 8
REMARK VINA RESULT:      -7.4      3.806      5.474
REMARK  Name = 
REMARK  7 active torsions:
REMARK  status: ('A' for Active; 'I' for Inactive)
REMARK    1  A    between atoms: C_2  and  C_13
REMARK    2  A    between atoms: N_3  and  C_4
REMARK    3  A    between atoms: C_4  and  C_5
REMARK    4  A    between atoms: C_15  and  C_16
REMARK    5  A    between atoms: C_22  and  O_24
REMARK    6  A    between atoms: O_24  and  C_25
REMARK    7  A    between atoms: C_25  and  C_26
REMARK                            x       y       z     vdW  Elec       q    Type
REMARK                         _______ _______ _______ _____ _____    ______ ____
ROOT
ATOM      1  C   UNL     1       2.430   3.447  18.385  0.00  0.00    +0.000 A 
ATOM      2  C   UNL     1       2.804   4.541  17.570  0.00  0.00    +0.000 A 
ATOM      3  C   UNL     1       3.963   4.130  16.959  0.00  0.00    +0.000 A 
ATOM      4  O   UNL     1       4.321   2.917  17.436  0.00  0.00    +0.000 OA
ATOM      5  N   UNL     1       3.380   2.496  18.330  0.00  0.00    +0.000 NA
ENDROOT
BRANCH   3   6
ATOM      6  C   UNL     1       4.857   4.684  15.920  0.00  0.00    +0.000 C 
ATOM      7  C   UNL     1       4.954   3.639  14.791  0.00  0.00    +0.000 C 
ATOM      8  C   UNL     1       5.941   4.043  13.707  0.00  0.00    +0.000 C 
ATOM      9  C   UNL     1       7.286   4.412  14.318  0.00  0.00    +0.000 C 
ATOM     10  C   UNL     1       7.125   5.468  15.402  0.00  0.00    +0.000 C 
ATOM     11  N   UNL     1       6.190   5.032  16.440  0.00  0.00    +0.000 N 
ATOM     12  C   UNL     1       6.376   5.513  17.734  0.00  0.00    +0.000 C 
ATOM     13  O   UNL     1       5.495   5.736  18.558  0.00  0.00    +0.000 OA
BRANCH  12  14
ATOM     14  O   UNL     1       7.695   5.693  18.019  0.00  0.00    +0.000 OA
BRANCH  14  15
ATOM     15  C   UNL     1       8.050   6.928  18.666  0.00  0.00    +0.000 C 
BRANCH  15  16
ATOM     16  C   UNL     1       8.114   8.123  17.725  0.00  0.00    +0.000 C 
ATOM     17  F   UNL     1       6.867   8.657  17.594  0.00  0.00    +0.000 F 
ENDBRANCH  15  16
ENDBRANCH  14  15
ENDBRANCH  12  14
ENDBRANCH   3   6
BRANCH   1  19
ATOM     18  O   UNL     1       0.290   2.562  18.836  0.00  0.00    +0.000 OA
ATOM     19  C   UNL     1       1.198   3.322  19.173  0.00  0.00    +0.000 C 
ATOM     20  N   UNL     1       1.043   4.062  20.328  0.00  0.00    +0.000 N 
ATOM     21  H   UNL     1       0.199   3.859  20.845  0.00  0.00    +0.000 HD
BRANCH  20  22
ATOM     22  C   UNL     1       2.029   4.955  20.884  0.00  0.00    +0.000 C 
BRANCH  22  23
ATOM     23  C   UNL     1       1.750   6.394  20.593  0.00  0.00    +0.000 A 
ATOM     24  C   UNL     1       0.933   7.133  21.455  0.00  0.00    +0.000 A 
ATOM     25  C   UNL     1       0.595   8.447  21.139  0.00  0.00    +0.000 A 
ATOM     26  C   UNL     1       1.081   9.032  19.964  0.00  0.00    +0.000 A 
ATOM     27 CL   UNL     1       0.602  10.653  19.625  0.00  0.00    +0.000 Cl
ATOM     28  C   UNL     1       1.914   8.302  19.109  0.00  0.00    +0.000 A 
ATOM     29 CL   UNL     1       2.535   8.951  17.635  0.00  0.00    +0.000 Cl
ATOM     30  C   UNL     1       2.253   6.986  19.428  0.00  0.00    +0.000 A 
ENDBRANCH  22  23
ENDBRANCH  20  22
ENDBRANCH   1  19
TORSDOF 7
ENDMDL
MODEL 9
REMARK VINA RESULT:      -7.4      2.462      2.984
REMARK  Name = 
REMARK  7 active torsions:
REMARK  status: ('A' for Active; 'I' for Inactive)
REMARK    1  A    between atoms: C_2  and  C_13
REMARK    2  A    between atoms: N_3  and  C_4
REMARK    3  A    between atoms: C_4  and  C_5
REMARK    4  A    between atoms: C_15  and  C_16
REMARK    5  A    between atoms: C_22  and  O_24
REMARK    6  A    between atoms: O_24  and  C_25
REMARK    7  A    between atoms: C_25  and  C_26
REMARK                            x       y       z     vdW  Elec       q    Type
REMARK                         _______ _______ _______ _____ _____    ______ ____
ROOT
ATOM      1  C   UNL     1       2.074   8.282  18.642  0.00  0.00    +0.000 A 
ATOM      2  C   UNL     1       2.313   7.323  17.629  0.00  0.00    +0.000 A 
ATOM      3  C   UNL     1       2.409   6.132  18.305  0.00  0.00    +0.000 A 
ATOM      4  O   UNL     1       2.330   6.358  19.636  0.00  0.00    +0.000 OA
ATOM      5  N   UNL     1       2.135   7.691  19.849  0.00  0.00    +0.000 NA
ENDROOT
BRANCH   3   6
ATOM      6  C   UNL     1       2.549   4.713  17.917  0.00  0.00    +0.000 C 
ATOM      7  C   UNL     1       1.460   3.920  18.668  0.00  0.00    +0.000 C 
ATOM      8  C   UNL     1       1.570   2.420  18.441  0.00  0.00    +0.000 C 
ATOM      9  C   UNL     1       2.986   1.938  18.726  0.00  0.00    +0.000 C 
ATOM     10  C   UNL     1       4.008   2.738  17.933  0.00  0.00    +0.000 C 
ATOM     11  N   UNL     1       3.890   4.172  18.198  0.00  0.00    +0.000 N 
ATOM     12  C   UNL     1       5.037   4.955  18.097  0.00  0.00    +0.000 C 
ATOM     13  O   UNL     1       5.086   6.128  17.741  0.00  0.00    +0.000 OA
BRANCH  12  14
ATOM     14  O   UNL     1       6.150   4.268  18.477  0.00  0.00    +0.000 OA
BRANCH  14  15
ATOM     15  C   UNL     1       7.417   4.855  18.130  0.00  0.00    +0.000 C 
BRANCH  15  16
ATOM     16  C   UNL     1       8.021   5.717  19.230  0.00  0.00    +0.000 C 
ATOM     17  F   UNL     1       8.299   6.953  18.729  0.00  0.00    +0.000 F 
ENDBRANCH  15  16
ENDBRANCH  14  15
ENDBRANCH  12  14
ENDBRANCH   3   6
BRANCH   1  19
ATOM     18  O   UNL     1       2.090  10.293  17.407  0.00  0.00    +0.000 OA
ATOM     19  C   UNL     1       1.785   9.708  18.448  0.00  0.00    +0.000 C 
ATOM     20  N   UNL     1       1.147  10.422  19.442  0.00  0.00    +0.000 N 
ATOM     21  H   UNL     1       0.922  11.375  19.194  0.00  0.00    +0.000 HD
BRANCH  20  22
ATOM     22  C   UNL     1       0.681   9.876  20.691  0.00  0.00    +0.000 C 
BRANCH  22  23
ATOM     23  C   UNL     1      -0.262  10.781  21.414  0.00  0.00    +0.000 A 
ATOM     24  C   UNL     1      -0.725  10.433  22.687  0.00  0.00    +0.000 A 
ATOM     25  C   UNL     1      -1.676  11.227  23.325  0.00  0.00    +0.000 A 
ATOM     26  C   UNL     1      -2.161  12.380  22.697  0.00  0.00    +0.000 A 
ATOM     27 CL   UNL     1      -3.354  13.300  23.534  0.00  0.00    +0.000 Cl
ATOM     28  C   UNL     1      -1.685  12.742  21.431  0.00  0.00    +0.000 A 
ATOM     29 CL   UNL     1      -2.251  14.138  20.588  0.00  0.00    +0.000 Cl
ATOM     30  C   UNL     1      -0.731  11.946  20.794  0.00  0.00    +0.000 A 
ENDBRANCH  22  23
ENDBRANCH  20  22
ENDBRANCH   1  19
TORSDOF 7
ENDMDL
