MODEL 1
REMARK VINA RESULT:      -6.2      0.000      0.000
REMARK  Name = 
REMARK  10 active torsions:
REMARK  status: ('A' for Active; 'I' for Inactive)
REMARK    1  A    between atoms: C_1  and  C_2
REMARK    2  A    between atoms: C_2  and  O_3
REMARK    3  A    between atoms: O_3  and  C_4
REMARK    4  A    between atoms: C_4  and  N_5
REMARK    5  A    between atoms: C_6  and  S_7
REMARK    6  A    between atoms: S_7  and  C_8
REMARK    7  A    between atoms: C_10  and  C_11
REMARK    8  A    between atoms: C_13  and  C_14
REMARK    9  A    between atoms: C_16  and  C_17
REMARK   10  A    between atoms: C_17  and  C_18
REMARK                            x       y       z     vdW  Elec       q    Type
REMARK                         _______ _______ _______ _____ _____    ______ ____
ROOT
ATOM      1  N   UNL     1       2.181   5.797  19.164  0.00  0.00    +0.000 N 
ATOM      2  C   UNL     1       2.582   4.467  18.888  0.00  0.00    +0.000 A 
ATOM      3  C   UNL     1       2.647   3.530  19.865  0.00  0.00    +0.000 A 
ATOM      4  C   UNL     1       2.359   3.942  21.258  0.00  0.00    +0.000 A 
ATOM      5  O   UNL     1       2.458   3.178  22.213  0.00  0.00    +0.000 OA
ATOM      6  N   UNL     1       1.961   5.227  21.434  0.00  0.00    +0.000 N 
ATOM      7  C   UNL     1       1.841   6.182  20.466  0.00  0.00    +0.000 A 
ATOM      8  S   UNL     1       1.320   7.688  21.004  0.00  0.00    +0.000 S 
ATOM      9  H   UNL     1       1.731   5.493  22.381  0.00  0.00    +0.000 HD
ENDROOT
BRANCH   3  10
ATOM     10  C   UNL     1       2.897   2.047  19.706  0.00  0.00    +0.000 C 
ATOM     11  C   UNL     1       4.375   1.688  19.712  0.00  0.00    +0.000 C 
ENDBRANCH   3  10
BRANCH   1  12
ATOM     12  C   UNL     1       2.059   6.775  18.068  0.00  0.00    +0.000 C 
BRANCH  12  13
ATOM     13  O   UNL     1       3.241   7.567  18.005  0.00  0.00    +0.000 OA
BRANCH  13  15
ATOM     14  C   UNL     1       1.435   9.092  17.683  0.00  0.00    +0.000 C 
ATOM     15  C   UNL     1       2.941   8.930  17.721  0.00  0.00    +0.000 C 
ENDBRANCH  13  15
ENDBRANCH  12  13
ENDBRANCH   1  12
BRANCH   2  16
ATOM     16  S   UNL     1       2.854   3.978  17.216  0.00  0.00    +0.000 S 
BRANCH  16  17
ATOM     17  C   UNL     1       4.577   4.310  16.860  0.00  0.00    +0.000 A 
ATOM     18  C   UNL     1       5.537   4.674  17.809  0.00  0.00    +0.000 A 
ATOM     19  C   UNL     1       6.869   4.910  17.429  0.00  0.00    +0.000 A 
ATOM     20  C   UNL     1       7.916   5.285  18.442  0.00  0.00    +0.000 C 
ATOM     21  C   UNL     1       7.243   4.778  16.086  0.00  0.00    +0.000 A 
ATOM     22  C   UNL     1       6.303   4.437  15.114  0.00  0.00    +0.000 A 
ATOM     23  C   UNL     1       6.738   4.269  13.687  0.00  0.00    +0.000 C 
ATOM     24  C   UNL     1       4.977   4.197  15.512  0.00  0.00    +0.000 A 
ENDBRANCH  16  17
ENDBRANCH   2  16
TORSDOF 6
ENDMDL
MODEL 2
REMARK VINA RESULT:      -6.1      0.335      1.809
REMARK  Name = 
REMARK  10 active torsions:
REMARK  status: ('A' for Active; 'I' for Inactive)
REMARK    1  A    between atoms: C_1  and  C_2
REMARK    2  A    between atoms: C_2  and  O_3
REMARK    3  A    between atoms: O_3  and  C_4
REMARK    4  A    between atoms: C_4  and  N_5
REMARK    5  A    between atoms: C_6  and  S_7
REMARK    6  A    between atoms: S_7  and  C_8
REMARK    7  A    between atoms: C_10  and  C_11
REMARK    8  A    between atoms: C_13  and  C_14
REMARK    9  A    between atoms: C_16  and  C_17
REMARK   10  A    between atoms: C_17  and  C_18
REMARK                            x       y       z     vdW  Elec       q    Type
REMARK                         _______ _______ _______ _____ _____    ______ ____
ROOT
ATOM      1  N   UNL     1       2.244   5.742  19.159  0.00  0.00    +0.000 N 
ATOM      2  C   UNL     1       2.666   4.416  18.891  0.00  0.00    +0.000 A 
ATOM      3  C   UNL     1       2.730   3.482  19.871  0.00  0.00    +0.000 A 
ATOM      4  C   UNL     1       2.420   3.894  21.260  0.00  0.00    +0.000 A 
ATOM      5  O   UNL     1       2.517   3.134  22.218  0.00  0.00    +0.000 OA
ATOM      6  N   UNL     1       2.003   5.173  21.427  0.00  0.00    +0.000 N 
ATOM      7  C   UNL     1       1.882   6.125  20.456  0.00  0.00    +0.000 A 
ATOM      8  S   UNL     1       1.335   7.625  20.983  0.00  0.00    +0.000 S 
ATOM      9  H   UNL     1       1.757   5.439  22.370  0.00  0.00    +0.000 HD
ENDROOT
BRANCH   3  10
ATOM     10  C   UNL     1       3.002   2.002  19.720  0.00  0.00    +0.000 C 
ATOM     11  C   UNL     1       4.484   1.661  19.762  0.00  0.00    +0.000 C 
ENDBRANCH   3  10
BRANCH   1  12
ATOM     12  C   UNL     1       2.123   6.714  18.059  0.00  0.00    +0.000 C 
BRANCH  12  13
ATOM     13  O   UNL     1       3.014   7.802  18.287  0.00  0.00    +0.000 OA
BRANCH  13  15
ATOM     14  C   UNL     1       1.284   9.406  17.935  0.00  0.00    +0.000 C 
ATOM     15  C   UNL     1       2.660   8.939  17.506  0.00  0.00    +0.000 C 
ENDBRANCH  13  15
ENDBRANCH  12  13
ENDBRANCH   1  12
BRANCH   2  16
ATOM     16  S   UNL     1       2.965   3.927  17.224  0.00  0.00    +0.000 S 
BRANCH  16  17
ATOM     17  C   UNL     1       4.647   4.408  16.844  0.00  0.00    +0.000 A 
ATOM     18  C   UNL     1       5.209   4.422  15.563  0.00  0.00    +0.000 A 
ATOM     19  C   UNL     1       6.542   4.820  15.368  0.00  0.00    +0.000 A 
ATOM     20  C   UNL     1       7.152   4.856  13.994  0.00  0.00    +0.000 C 
ATOM     21  C   UNL     1       7.319   5.211  16.464  0.00  0.00    +0.000 A 
ATOM     22  C   UNL     1       6.793   5.187  17.756  0.00  0.00    +0.000 A 
ATOM     23  C   UNL     1       7.638   5.643  18.911  0.00  0.00    +0.000 C 
ATOM     24  C   UNL     1       5.456   4.793  17.934  0.00  0.00    +0.000 A 
ENDBRANCH  16  17
ENDBRANCH   2  16
TORSDOF 6
ENDMDL
MODEL 3
REMARK VINA RESULT:      -6.1      2.425      3.833
REMARK  Name = 
REMARK  10 active torsions:
REMARK  status: ('A' for Active; 'I' for Inactive)
REMARK    1  A    between atoms: C_1  and  C_2
REMARK    2  A    between atoms: C_2  and  O_3
REMARK    3  A    between atoms: O_3  and  C_4
REMARK    4  A    between atoms: C_4  and  N_5
REMARK    5  A    between atoms: C_6  and  S_7
REMARK    6  A    between atoms: S_7  and  C_8
REMARK    7  A    between atoms: C_10  and  C_11
REMARK    8  A    between atoms: C_13  and  C_14
REMARK    9  A    between atoms: C_16  and  C_17
REMARK   10  A    between atoms: C_17  and  C_18
REMARK                            x       y       z     vdW  Elec       q    Type
REMARK                         _______ _______ _______ _____ _____    ______ ____
ROOT
ATOM      1  N   UNL     1       4.360   6.011  17.450  0.00  0.00    +0.000 N 
ATOM      2  C   UNL     1       4.482   4.604  17.338  0.00  0.00    +0.000 A 
ATOM      3  C   UNL     1       3.404   3.790  17.439  0.00  0.00    +0.000 A 
ATOM      4  C   UNL     1       2.088   4.395  17.749  0.00  0.00    +0.000 A 
ATOM      5  O   UNL     1       1.073   3.729  17.924  0.00  0.00    +0.000 OA
ATOM      6  N   UNL     1       2.053   5.749  17.819  0.00  0.00    +0.000 N 
ATOM      7  C   UNL     1       3.110   6.601  17.675  0.00  0.00    +0.000 A 
ATOM      8  S   UNL     1       2.741   8.235  17.815  0.00  0.00    +0.000 S 
ATOM      9  H   UNL     1       1.146   6.160  17.994  0.00  0.00    +0.000 HD
ENDROOT
BRANCH   3  10
ATOM     10  C   UNL     1       3.345   2.300  17.184  0.00  0.00    +0.000 C 
ATOM     11  C   UNL     1       3.524   1.472  18.447  0.00  0.00    +0.000 C 
ENDBRANCH   3  10
BRANCH   1  12
ATOM     12  C   UNL     1       5.542   6.872  17.271  0.00  0.00    +0.000 C 
BRANCH  12  13
ATOM     13  O   UNL     1       6.452   6.658  18.345  0.00  0.00    +0.000 OA
BRANCH  13  15
ATOM     14  C   UNL     1       7.799   8.507  17.667  0.00  0.00    +0.000 C 
ATOM     15  C   UNL     1       7.780   7.025  17.983  0.00  0.00    +0.000 C 
ENDBRANCH  13  15
ENDBRANCH  12  13
ENDBRANCH   1  12
BRANCH   2  16
ATOM     16  S   UNL     1       6.042   3.907  16.902  0.00  0.00    +0.000 S 
BRANCH  16  17
ATOM     17  C   UNL     1       6.201   4.079  15.127  0.00  0.00    +0.000 A 
ATOM     18  C   UNL     1       5.337   3.511  14.185  0.00  0.00    +0.000 A 
ATOM     19  C   UNL     1       5.546   3.707  12.809  0.00  0.00    +0.000 A 
ATOM     20  C   UNL     1       4.615   3.117  11.787  0.00  0.00    +0.000 C 
ATOM     21  C   UNL     1       6.627   4.482  12.373  0.00  0.00    +0.000 A 
ATOM     22  C   UNL     1       7.518   5.043  13.289  0.00  0.00    +0.000 A 
ATOM     23  C   UNL     1       8.650   5.897  12.796  0.00  0.00    +0.000 C 
ATOM     24  C   UNL     1       7.291   4.843  14.661  0.00  0.00    +0.000 A 
ENDBRANCH  16  17
ENDBRANCH   2  16
TORSDOF 6
ENDMDL
MODEL 4
REMARK VINA RESULT:      -6.0      2.505      6.016
REMARK  Name = 
REMARK  10 active torsions:
REMARK  status: ('A' for Active; 'I' for Inactive)
REMARK    1  A    between atoms: C_1  and  C_2
REMARK    2  A    between atoms: C_2  and  O_3
REMARK    3  A    between atoms: O_3  and  C_4
REMARK    4  A    between atoms: C_4  and  N_5
REMARK    5  A    between atoms: C_6  and  S_7
REMARK    6  A    between atoms: S_7  and  C_8
REMARK    7  A    between atoms: C_10  and  C_11
REMARK    8  A    between atoms: C_13  and  C_14
REMARK    9  A    between atoms: C_16  and  C_17
REMARK   10  A    between atoms: C_17  and  C_18
REMARK                            x       y       z     vdW  Elec       q    Type
REMARK                         _______ _______ _______ _____ _____    ______ ____
ROOT
ATOM      1  N   UNL     1       3.972   4.950  18.348  0.00  0.00    +0.000 N 
ATOM      2  C   UNL     1       2.921   4.865  19.294  0.00  0.00    +0.000 A 
ATOM      3  C   UNL     1       1.934   3.944  19.174  0.00  0.00    +0.000 A 
ATOM      4  C   UNL     1       1.931   3.063  17.982  0.00  0.00    +0.000 A 
ATOM      5  O   UNL     1       1.042   2.248  17.759  0.00  0.00    +0.000 OA
ATOM      6  N   UNL     1       2.984   3.194  17.138  0.00  0.00    +0.000 N 
ATOM      7  C   UNL     1       4.017   4.079  17.253  0.00  0.00    +0.000 A 
ATOM      8  S   UNL     1       5.176   3.993  16.038  0.00  0.00    +0.000 S 
ATOM      9  H   UNL     1       2.996   2.567  16.346  0.00  0.00    +0.000 HD
ENDROOT
BRANCH   3  10
ATOM     10  C   UNL     1       0.846   3.622  20.173  0.00  0.00    +0.000 C 
ATOM     11  C   UNL     1       1.326   2.738  21.314  0.00  0.00    +0.000 C 
ENDBRANCH   3  10
BRANCH   1  12
ATOM     12  C   UNL     1       5.063   5.921  18.542  0.00  0.00    +0.000 C 
BRANCH  12  13
ATOM     13  O   UNL     1       6.106   5.317  19.302  0.00  0.00    +0.000 OA
BRANCH  13  15
ATOM     14  C   UNL     1       7.204   6.762  17.753  0.00  0.00    +0.000 C 
ATOM     15  C   UNL     1       7.390   5.714  18.832  0.00  0.00    +0.000 C 
ENDBRANCH  13  15
ENDBRANCH  12  13
ENDBRANCH   1  12
BRANCH   2  16
ATOM     16  S   UNL     1       2.978   5.873  20.739  0.00  0.00    +0.000 S 
BRANCH  16  17
ATOM     17  C   UNL     1       2.034   7.349  20.371  0.00  0.00    +0.000 A 
ATOM     18  C   UNL     1       2.088   8.057  19.167  0.00  0.00    +0.000 A 
ATOM     19  C   UNL     1       1.303   9.206  18.973  0.00  0.00    +0.000 A 
ATOM     20  C   UNL     1       1.338   9.966  17.676  0.00  0.00    +0.000 C 
ATOM     21  C   UNL     1       0.454   9.648  19.994  0.00  0.00    +0.000 A 
ATOM     22  C   UNL     1       0.395   8.975  21.215  0.00  0.00    +0.000 A 
ATOM     23  C   UNL     1      -0.549   9.452  22.281  0.00  0.00    +0.000 C 
ATOM     24  C   UNL     1       1.181   7.823  21.390  0.00  0.00    +0.000 A 
ENDBRANCH  16  17
ENDBRANCH   2  16
TORSDOF 6
ENDMDL
MODEL 5
REMARK VINA RESULT:      -6.0      1.798      2.248
REMARK  Name = 
REMARK  10 active torsions:
REMARK  status: ('A' for Active; 'I' for Inactive)
REMARK    1  A    between atoms: C_1  and  C_2
REMARK    2  A    between atoms: C_2  and  O_3
REMARK    3  A    between atoms: O_3  and  C_4
REMARK    4  A    between atoms: C_4  and  N_5
REMARK    5  A    between atoms: C_6  and  S_7
REMARK    6  A    between atoms: S_7  and  C_8
REMARK    7  A    between atoms: C_10  and  C_11
REMARK    8  A    between atoms: C_13  and  C_14
REMARK    9  A    between atoms: C_16  and  C_17
REMARK   10  A    between atoms: C_17  and  C_18
REMARK                            x       y       z     vdW  Elec       q    Type
REMARK                         _______ _______ _______ _____ _____    ______ ____
ROOT
ATOM      1  N   UNL     1       2.011   8.048  19.497  0.00  0.00    +0.000 N 
ATOM      2  C   UNL     1       2.568   6.958  18.784  0.00  0.00    +0.000 A 
ATOM      3  C   UNL     1       2.523   5.695  19.274  0.00  0.00    +0.000 A 
ATOM      4  C   UNL     1       1.941   5.480  20.619  0.00  0.00    +0.000 A 
ATOM      5  O   UNL     1       1.919   4.383  21.168  0.00  0.00    +0.000 OA
ATOM      6  N   UNL     1       1.411   6.572  21.225  0.00  0.00    +0.000 N 
ATOM      7  C   UNL     1       1.398   7.848  20.739  0.00  0.00    +0.000 A 
ATOM      8  S   UNL     1       0.660   8.987  21.732  0.00  0.00    +0.000 S 
ATOM      9  H   UNL     1       0.982   6.414  22.126  0.00  0.00    +0.000 HD
ENDROOT
BRANCH   3  10
ATOM     10  C   UNL     1       2.921   4.417  18.570  0.00  0.00    +0.000 C 
ATOM     11  C   UNL     1       1.808   3.839  17.710  0.00  0.00    +0.000 C 
ENDBRANCH   3  10
BRANCH   1  12
ATOM     12  C   UNL     1       2.021   9.398  18.907  0.00  0.00    +0.000 C 
BRANCH  12  13
ATOM     13  O   UNL     1       0.858   9.573  18.103  0.00  0.00    +0.000 OA
BRANCH  13  15
ATOM     14  C   UNL     1      -1.331  10.344  18.656  0.00  0.00    +0.000 C 
ATOM     15  C   UNL     1       0.125  10.730  18.491  0.00  0.00    +0.000 C 
ENDBRANCH  13  15
ENDBRANCH  12  13
ENDBRANCH   1  12
BRANCH   2  16
ATOM     16  S   UNL     1       3.194   7.221  17.157  0.00  0.00    +0.000 S 
BRANCH  16  17
ATOM     17  C   UNL     1       4.795   6.422  17.089  0.00  0.00    +0.000 A 
ATOM     18  C   UNL     1       5.751   6.452  18.109  0.00  0.00    +0.000 A 
ATOM     19  C   UNL     1       6.981   5.788  17.960  0.00  0.00    +0.000 A 
ATOM     20  C   UNL     1       8.011   5.799  19.056  0.00  0.00    +0.000 C 
ATOM     21  C   UNL     1       7.253   5.085  16.782  0.00  0.00    +0.000 A 
ATOM     22  C   UNL     1       6.327   5.054  15.739  0.00  0.00    +0.000 A 
ATOM     23  C   UNL     1       6.631   4.264  14.498  0.00  0.00    +0.000 C 
ATOM     24  C   UNL     1       5.099   5.718  15.906  0.00  0.00    +0.000 A 
ENDBRANCH  16  17
ENDBRANCH   2  16
TORSDOF 6
ENDMDL
MODEL 6
REMARK VINA RESULT:      -5.9      0.912      1.125
REMARK  Name = 
REMARK  10 active torsions:
REMARK  status: ('A' for Active; 'I' for Inactive)
REMARK    1  A    between atoms: C_1  and  C_2
REMARK    2  A    between atoms: C_2  and  O_3
REMARK    3  A    between atoms: O_3  and  C_4
REMARK    4  A    between atoms: C_4  and  N_5
REMARK    5  A    between atoms: C_6  and  S_7
REMARK    6  A    between atoms: S_7  and  C_8
REMARK    7  A    between atoms: C_10  and  C_11
REMARK    8  A    between atoms: C_13  and  C_14
REMARK    9  A    between atoms: C_16  and  C_17
REMARK   10  A    between atoms: C_17  and  C_18
REMARK                            x       y       z     vdW  Elec       q    Type
REMARK                         _______ _______ _______ _____ _____    ______ ____
ROOT
ATOM      1  N   UNL     1       2.413   6.318  19.266  0.00  0.00    +0.000 N 
ATOM      2  C   UNL     1       2.601   4.969  18.876  0.00  0.00    +0.000 A 
ATOM      3  C   UNL     1       2.355   3.946  19.729  0.00  0.00    +0.000 A 
ATOM      4  C   UNL     1       1.953   4.265  21.119  0.00  0.00    +0.000 A 
ATOM      5  O   UNL     1       1.776   3.406  21.975  0.00  0.00    +0.000 OA
ATOM      6  N   UNL     1       1.775   5.579  21.404  0.00  0.00    +0.000 N 
ATOM      7  C   UNL     1       1.968   6.631  20.556  0.00  0.00    +0.000 A 
ATOM      8  S   UNL     1       1.660   8.149  21.210  0.00  0.00    +0.000 S 
ATOM      9  H   UNL     1       1.466   5.791  22.342  0.00  0.00    +0.000 HD
ENDROOT
BRANCH   3  10
ATOM     10  C   UNL     1       2.351   2.465  19.418  0.00  0.00    +0.000 C 
ATOM     11  C   UNL     1       1.014   1.973  18.883  0.00  0.00    +0.000 C 
ENDBRANCH   3  10
BRANCH   1  12
ATOM     12  C   UNL     1       2.628   7.404  18.293  0.00  0.00    +0.000 C 
BRANCH  12  13
ATOM     13  O   UNL     1       1.369   7.931  17.885  0.00  0.00    +0.000 OA
BRANCH  13  15
ATOM     14  C   UNL     1       0.041   9.892  18.173  0.00  0.00    +0.000 C 
ATOM     15  C   UNL     1       1.404   9.352  17.791  0.00  0.00    +0.000 C 
ENDBRANCH  13  15
ENDBRANCH  12  13
ENDBRANCH   1  12
BRANCH   2  16
ATOM     16  S   UNL     1       3.012   4.605  17.201  0.00  0.00    +0.000 S 
BRANCH  16  17
ATOM     17  C   UNL     1       4.776   4.865  17.039  0.00  0.00    +0.000 A 
ATOM     18  C   UNL     1       5.642   5.176  18.093  0.00  0.00    +0.000 A 
ATOM     19  C   UNL     1       7.016   5.358  17.863  0.00  0.00    +0.000 A 
ATOM     20  C   UNL     1       7.960   5.675  18.991  0.00  0.00    +0.000 C 
ATOM     21  C   UNL     1       7.528   5.224  16.568  0.00  0.00    +0.000 A 
ATOM     22  C   UNL     1       6.686   4.935  15.494  0.00  0.00    +0.000 A 
ATOM     23  C   UNL     1       7.267   4.764  14.120  0.00  0.00    +0.000 C 
ATOM     24  C   UNL     1       5.315   4.749  15.741  0.00  0.00    +0.000 A 
ENDBRANCH  16  17
ENDBRANCH   2  16
TORSDOF 6
ENDMDL
MODEL 7
REMARK VINA RESULT:      -5.8      2.517      5.775
REMARK  Name = 
REMARK  10 active torsions:
REMARK  status: ('A' for Active; 'I' for Inactive)
REMARK    1  A    between atoms: C_1  and  C_2
REMARK    2  A    between atoms: C_2  and  O_3
REMARK    3  A    between atoms: O_3  and  C_4
REMARK    4  A    between atoms: C_4  and  N_5
REMARK    5  A    between atoms: C_6  and  S_7
REMARK    6  A    between atoms: S_7  and  C_8
REMARK    7  A    between atoms: C_10  and  C_11
REMARK    8  A    between atoms: C_13  and  C_14
REMARK    9  A    between atoms: C_16  and  C_17
REMARK   10  A    between atoms: C_17  and  C_18
REMARK                            x       y       z     vdW  Elec       q    Type
REMARK                         _______ _______ _______ _____ _____    ______ ____
ROOT
ATOM      1  N   UNL     1       3.990   4.841  18.400  0.00  0.00    +0.000 N 
ATOM      2  C   UNL     1       2.933   4.795  19.343  0.00  0.00    +0.000 A 
ATOM      3  C   UNL     1       1.902   3.926  19.207  0.00  0.00    +0.000 A 
ATOM      4  C   UNL     1       1.858   3.064  18.004  0.00  0.00    +0.000 A 
ATOM      5  O   UNL     1       0.930   2.298  17.767  0.00  0.00    +0.000 OA
ATOM      6  N   UNL     1       2.918   3.154  17.163  0.00  0.00    +0.000 N 
ATOM      7  C   UNL     1       3.994   3.984  17.293  0.00  0.00    +0.000 A 
ATOM      8  S   UNL     1       5.151   3.857  16.080  0.00  0.00    +0.000 S 
ATOM      9  H   UNL     1       2.901   2.538  16.362  0.00  0.00    +0.000 HD
ENDROOT
BRANCH   3  10
ATOM     10  C   UNL     1       0.796   3.646  20.200  0.00  0.00    +0.000 C 
ATOM     11  C   UNL     1       1.236   2.744  21.343  0.00  0.00    +0.000 C 
ENDBRANCH   3  10
BRANCH   1  12
ATOM     12  C   UNL     1       5.128   5.753  18.611  0.00  0.00    +0.000 C 
BRANCH  12  13
ATOM     13  O   UNL     1       6.174   5.059  19.284  0.00  0.00    +0.000 OA
BRANCH  13  15
ATOM     14  C   UNL     1       7.376   6.563  17.874  0.00  0.00    +0.000 C 
ATOM     15  C   UNL     1       7.422   5.730  19.139  0.00  0.00    +0.000 C 
ENDBRANCH  13  15
ENDBRANCH  12  13
ENDBRANCH   1  12
BRANCH   2  16
ATOM     16  S   UNL     1       3.037   5.778  20.802  0.00  0.00    +0.000 S 
BRANCH  16  17
ATOM     17  C   UNL     1       2.041   7.237  20.508  0.00  0.00    +0.000 A 
ATOM     18  C   UNL     1       1.129   7.783  21.417  0.00  0.00    +0.000 A 
ATOM     19  C   UNL     1       0.394   8.936  21.093  0.00  0.00    +0.000 A 
ATOM     20  C   UNL     1      -0.576   9.543  22.068  0.00  0.00    +0.000 C 
ATOM     21  C   UNL     1       0.577   9.549  19.848  0.00  0.00    +0.000 A 
ATOM     22  C   UNL     1       1.464   9.015  18.913  0.00  0.00    +0.000 A 
ATOM     23  C   UNL     1       1.665   9.712  17.598  0.00  0.00    +0.000 C 
ATOM     24  C   UNL     1       2.195   7.866  19.256  0.00  0.00    +0.000 A 
ENDBRANCH  16  17
ENDBRANCH   2  16
TORSDOF 6
ENDMDL
MODEL 8
REMARK VINA RESULT:      -5.6      6.955      9.799
REMARK  Name = 
REMARK  10 active torsions:
REMARK  status: ('A' for Active; 'I' for Inactive)
REMARK    1  A    between atoms: C_1  and  C_2
REMARK    2  A    between atoms: C_2  and  O_3
REMARK    3  A    between atoms: O_3  and  C_4
REMARK    4  A    between atoms: C_4  and  N_5
REMARK    5  A    between atoms: C_6  and  S_7
REMARK    6  A    between atoms: S_7  and  C_8
REMARK    7  A    between atoms: C_10  and  C_11
REMARK    8  A    between atoms: C_13  and  C_14
REMARK    9  A    between atoms: C_16  and  C_17
REMARK   10  A    between atoms: C_17  and  C_18
REMARK                            x       y       z     vdW  Elec       q    Type
REMARK                         _______ _______ _______ _____ _____    ______ ____
ROOT
ATOM      1  N   UNL     1      -4.262  11.967  19.161  0.00  0.00    +0.000 N 
ATOM      2  C   UNL     1      -3.443  12.698  20.057  0.00  0.00    +0.000 A 
ATOM      3  C   UNL     1      -3.874  13.031  21.298  0.00  0.00    +0.000 A 
ATOM      4  C   UNL     1      -5.261  12.678  21.683  0.00  0.00    +0.000 A 
ATOM      5  O   UNL     1      -5.755  12.998  22.758  0.00  0.00    +0.000 OA
ATOM      6  N   UNL     1      -5.970  11.960  20.777  0.00  0.00    +0.000 N 
ATOM      7  C   UNL     1      -5.550  11.568  19.538  0.00  0.00    +0.000 A 
ATOM      8  S   UNL     1      -6.668  10.682  18.647  0.00  0.00    +0.000 S 
ATOM      9  H   UNL     1      -6.902  11.690  21.058  0.00  0.00    +0.000 HD
ENDROOT
BRANCH   3  10
ATOM     10  C   UNL     1      -3.072  13.659  22.415  0.00  0.00    +0.000 C 
ATOM     11  C   UNL     1      -2.683  12.667  23.501  0.00  0.00    +0.000 C 
ENDBRANCH   3  10
BRANCH   1  12
ATOM     12  C   UNL     1      -3.740  11.566  17.843  0.00  0.00    +0.000 C 
BRANCH  12  13
ATOM     13  O   UNL     1      -3.324  10.205  17.891  0.00  0.00    +0.000 OA
BRANCH  13  15
ATOM     14  C   UNL     1      -2.846  10.919  15.665  0.00  0.00    +0.000 C 
ATOM     15  C   UNL     1      -2.659   9.820  16.692  0.00  0.00    +0.000 C 
ENDBRANCH  13  15
ENDBRANCH  12  13
ENDBRANCH   1  12
BRANCH   2  16
ATOM     16  S   UNL     1      -1.775  13.049  19.608  0.00  0.00    +0.000 S 
BRANCH  16  17
ATOM     17  C   UNL     1      -0.819  11.591  20.014  0.00  0.00    +0.000 A 
ATOM     18  C   UNL     1      -0.743  11.007  21.282  0.00  0.00    +0.000 A 
ATOM     19  C   UNL     1       0.035   9.857  21.498  0.00  0.00    +0.000 A 
ATOM     20  C   UNL     1       0.111   9.210  22.854  0.00  0.00    +0.000 C 
ATOM     21  C   UNL     1       0.741   9.285  20.434  0.00  0.00    +0.000 A 
ATOM     22  C   UNL     1       0.701   9.857  19.162  0.00  0.00    +0.000 A 
ATOM     23  C   UNL     1       1.441   9.203  18.030  0.00  0.00    +0.000 C 
ATOM     24  C   UNL     1      -0.087  11.002  18.961  0.00  0.00    +0.000 A 
ENDBRANCH  16  17
ENDBRANCH   2  16
TORSDOF 6
ENDMDL
MODEL 9
REMARK VINA RESULT:      -5.6      6.661      9.851
REMARK  Name = 
REMARK  10 active torsions:
REMARK  status: ('A' for Active; 'I' for Inactive)
REMARK    1  A    between atoms: C_1  and  C_2
REMARK    2  A    between atoms: C_2  and  O_3
REMARK    3  A    between atoms: O_3  and  C_4
REMARK    4  A    between atoms: C_4  and  N_5
REMARK    5  A    between atoms: C_6  and  S_7
REMARK    6  A    between atoms: S_7  and  C_8
REMARK    7  A    between atoms: C_10  and  C_11
REMARK    8  A    between atoms: C_13  and  C_14
REMARK    9  A    between atoms: C_16  and  C_17
REMARK   10  A    between atoms: C_17  and  C_18
REMARK                            x       y       z     vdW  Elec       q    Type
REMARK                         _______ _______ _______ _____ _____    ______ ____
ROOT
ATOM      1  N   UNL     1      -3.737  12.740  20.334  0.00  0.00    +0.000 N 
ATOM      2  C   UNL     1      -2.867  12.293  19.310  0.00  0.00    +0.000 A 
ATOM      3  C   UNL     1      -3.339  11.671  18.202  0.00  0.00    +0.000 A 
ATOM      4  C   UNL     1      -4.792  11.397  18.110  0.00  0.00    +0.000 A 
ATOM      5  O   UNL     1      -5.296  10.782  17.177  0.00  0.00    +0.000 OA
ATOM      6  N   UNL     1      -5.557  11.877  19.122  0.00  0.00    +0.000 N 
ATOM      7  C   UNL     1      -5.120  12.548  20.228  0.00  0.00    +0.000 A 
ATOM      8  S   UNL     1      -6.322  13.018  21.306  0.00  0.00    +0.000 S 
ATOM      9  H   UNL     1      -6.552  11.720  19.037  0.00  0.00    +0.000 HD
ENDROOT
BRANCH   3  10
ATOM     10  C   UNL     1      -2.566  11.284  16.961  0.00  0.00    +0.000 C 
ATOM     11  C   UNL     1      -2.156   9.820  16.947  0.00  0.00    +0.000 C 
ENDBRANCH   3  10
BRANCH   1  12
ATOM     12  C   UNL     1      -3.198  13.469  21.495  0.00  0.00    +0.000 C 
BRANCH  12  13
ATOM     13  O   UNL     1      -3.162  12.603  22.625  0.00  0.00    +0.000 OA
BRANCH  13  15
ATOM     14  C   UNL     1      -4.325  12.445  24.702  0.00  0.00    +0.000 C 
ATOM     15  C   UNL     1      -3.435  13.309  23.832  0.00  0.00    +0.000 C 
ENDBRANCH  13  15
ENDBRANCH  12  13
ENDBRANCH   1  12
BRANCH   2  16
ATOM     16  S   UNL     1      -1.151  12.688  19.403  0.00  0.00    +0.000 S 
BRANCH  16  17
ATOM     17  C   UNL     1      -0.316  11.209  19.970  0.00  0.00    +0.000 A 
ATOM     18  C   UNL     1       0.483  10.383  19.173  0.00  0.00    +0.000 A 
ATOM     19  C   UNL     1       1.100   9.243  19.715  0.00  0.00    +0.000 A 
ATOM     20  C   UNL     1       1.976   8.355  18.873  0.00  0.00    +0.000 C 
ATOM     21  C   UNL     1       0.918   8.929  21.066  0.00  0.00    +0.000 A 
ATOM     22  C   UNL     1       0.110   9.723  21.881  0.00  0.00    +0.000 A 
ATOM     23  C   UNL     1      -0.041   9.382  23.335  0.00  0.00    +0.000 C 
ATOM     24  C   UNL     1      -0.495  10.863  21.325  0.00  0.00    +0.000 A 
ENDBRANCH  16  17
ENDBRANCH   2  16
TORSDOF 6
ENDMDL
