MODEL 1
REMARK VINA RESULT:      -7.4      0.000      0.000
REMARK  Name = 
REMARK  4 active torsions:
REMARK  status: ('A' for Active; 'I' for Inactive)
REMARK    1  A    between atoms: C_1  and  C_2
REMARK    2  A    between atoms: C_2  and  N_3
REMARK    3  A    between atoms: N_3  and  C_4
REMARK    4  A    between atoms: N_18  and  C_19
REMARK                            x       y       z     vdW  Elec       q    Type
REMARK                         _______ _______ _______ _____ _____    ______ ____
ROOT
ATOM      1  C   UNL     1       3.679   6.830  17.794  0.00  0.00    +0.000 A 
ATOM      2  N   UNL     1       3.011   5.779  18.335  0.00  0.00    +0.000 NA
ATOM      3  C   UNL     1       3.644   4.629  18.646  0.00  0.00    +0.000 A 
ATOM      4  N   UNL     1       2.904   3.633  19.235  0.00  0.00    +0.000 N 
ATOM      5  C   UNL     1       1.482   3.506  18.973  0.00  0.00    +0.000 C 
ATOM      6  C   UNL     1       0.707   3.575  20.287  0.00  0.00    +0.000 C 
ATOM      7  C   UNL     1       1.266   2.597  21.320  0.00  0.00    +0.000 C 
ATOM      8  C   UNL     1       2.775   2.775  21.499  0.00  0.00    +0.000 C 
ATOM      9  C   UNL     1       3.518   2.701  20.160  0.00  0.00    +0.000 C 
ATOM     10  N   UNL     1       4.950   4.402  18.441  0.00  0.00    +0.000 NA
ATOM     11  C   UNL     1       5.579   5.424  17.846  0.00  0.00    +0.000 A 
ATOM     12  C   UNL     1       5.030   6.642  17.500  0.00  0.00    +0.000 A 
ATOM     13  C   UNL     1       6.104   7.358  16.933  0.00  0.00    +0.000 A 
ATOM     14  N   UNL     1       7.245   6.658  16.908  0.00  0.00    +0.000 NA
ATOM     15  N   UNL     1       6.889   5.476  17.462  0.00  0.00    +0.000 N 
ATOM     16  C   UNL     1       7.848   4.409  17.589  0.00  0.00    +0.000 C 
ENDROOT
BRANCH   1  17
ATOM     17  N   UNL     1       3.011   8.039  17.553  0.00  0.00    +0.000 N 
ATOM     18  H   UNL     1       3.662   8.790  17.352  0.00  0.00    +0.000 HD
BRANCH  17  20
ATOM     19  C   UNL     1       1.127   9.498  18.059  0.00  0.00    +0.000 C 
ATOM     20  C   UNL     1       2.013   8.371  18.565  0.00  0.00    +0.000 C 
ENDBRANCH  17  20
ENDBRANCH   1  17
TORSDOF 2
ENDMDL
MODEL 2
REMARK VINA RESULT:      -6.9      1.727      5.240
REMARK  Name = 
REMARK  4 active torsions:
REMARK  status: ('A' for Active; 'I' for Inactive)
REMARK    1  A    between atoms: C_1  and  C_2
REMARK    2  A    between atoms: C_2  and  N_3
REMARK    3  A    between atoms: N_3  and  C_4
REMARK    4  A    between atoms: N_18  and  C_19
REMARK                            x       y       z     vdW  Elec       q    Type
REMARK                         _______ _______ _______ _____ _____    ______ ____
ROOT
ATOM      1  C   UNL     1       2.605   5.733  20.138  0.00  0.00    +0.000 A 
ATOM      2  N   UNL     1       1.998   6.948  20.116  0.00  0.00    +0.000 NA
ATOM      3  C   UNL     1       2.191   7.812  19.097  0.00  0.00    +0.000 A 
ATOM      4  N   UNL     1       1.501   8.999  19.129  0.00  0.00    +0.000 N 
ATOM      5  C   UNL     1       1.115   9.604  20.390  0.00  0.00    +0.000 C 
ATOM      6  C   UNL     1      -0.398   9.800  20.426  0.00  0.00    +0.000 C 
ATOM      7  C   UNL     1      -0.901  10.525  19.178  0.00  0.00    +0.000 C 
ATOM      8  C   UNL     1      -0.411   9.842  17.900  0.00  0.00    +0.000 C 
ATOM      9  C   UNL     1       1.111   9.662  17.900  0.00  0.00    +0.000 C 
ATOM     10  N   UNL     1       2.993   7.580  18.047  0.00  0.00    +0.000 NA
ATOM     11  C   UNL     1       3.634   6.406  18.119  0.00  0.00    +0.000 A 
ATOM     12  C   UNL     1       3.498   5.450  19.105  0.00  0.00    +0.000 A 
ATOM     13  C   UNL     1       4.364   4.412  18.704  0.00  0.00    +0.000 A 
ATOM     14  N   UNL     1       5.009   4.679  17.561  0.00  0.00    +0.000 NA
ATOM     15  N   UNL     1       4.551   5.911  17.235  0.00  0.00    +0.000 N 
ATOM     16  C   UNL     1       5.039   6.586  16.059  0.00  0.00    +0.000 C 
ENDROOT
BRANCH   1  17
ATOM     17  N   UNL     1       2.324   4.826  21.170  0.00  0.00    +0.000 N 
ATOM     18  H   UNL     1       3.173   4.435  21.562  0.00  0.00    +0.000 HD
BRANCH  17  20
ATOM     19  C   UNL     1       1.575   2.547  21.591  0.00  0.00    +0.000 C 
ATOM     20  C   UNL     1       1.317   3.831  20.819  0.00  0.00    +0.000 C 
ENDBRANCH  17  20
ENDBRANCH   1  17
TORSDOF 2
ENDMDL
MODEL 3
REMARK VINA RESULT:      -6.9      1.246      1.246
REMARK  Name = 
REMARK  4 active torsions:
REMARK  status: ('A' for Active; 'I' for Inactive)
REMARK    1  A    between atoms: C_1  and  C_2
REMARK    2  A    between atoms: C_2  and  N_3
REMARK    3  A    between atoms: N_3  and  C_4
REMARK    4  A    between atoms: N_18  and  C_19
REMARK                            x       y       z     vdW  Elec       q    Type
REMARK                         _______ _______ _______ _____ _____    ______ ____
ROOT
ATOM      1  C   UNL     1       3.514   6.740  17.602  0.00  0.00    +0.000 A 
ATOM      2  N   UNL     1       2.887   5.777  18.325  0.00  0.00    +0.000 NA
ATOM      3  C   UNL     1       3.237   4.478  18.219  0.00  0.00    +0.000 A 
ATOM      4  N   UNL     1       2.584   3.575  19.022  0.00  0.00    +0.000 N 
ATOM      5  C   UNL     1       1.223   3.816  19.463  0.00  0.00    +0.000 C 
ATOM      6  C   UNL     1       1.164   3.799  20.988  0.00  0.00    +0.000 C 
ATOM      7  C   UNL     1       1.819   2.543  21.562  0.00  0.00    +0.000 C 
ATOM      8  C   UNL     1       3.232   2.348  21.011  0.00  0.00    +0.000 C 
ATOM      9  C   UNL     1       3.252   2.371  19.479  0.00  0.00    +0.000 C 
ATOM     10  N   UNL     1       4.193   4.014  17.401  0.00  0.00    +0.000 NA
ATOM     11  C   UNL     1       4.755   4.969  16.648  0.00  0.00    +0.000 A 
ATOM     12  C   UNL     1       4.481   6.320  16.687  0.00  0.00    +0.000 A 
ATOM     13  C   UNL     1       5.347   6.879  15.725  0.00  0.00    +0.000 A 
ATOM     14  N   UNL     1       6.108   5.964  15.112  0.00  0.00    +0.000 NA
ATOM     15  N   UNL     1       5.715   4.804  15.689  0.00  0.00    +0.000 N 
ATOM     16  C   UNL     1       6.285   3.549  15.272  0.00  0.00    +0.000 C 
ENDROOT
BRANCH   1  17
ATOM     17  N   UNL     1       3.182   8.090  17.790  0.00  0.00    +0.000 N 
ATOM     18  H   UNL     1       3.979   8.626  18.114  0.00  0.00    +0.000 HD
BRANCH  17  20
ATOM     19  C   UNL     1       1.208   9.494  18.037  0.00  0.00    +0.000 C 
ATOM     20  C   UNL     1       1.968   8.292  18.574  0.00  0.00    +0.000 C 
ENDBRANCH  17  20
ENDBRANCH   1  17
TORSDOF 2
ENDMDL
MODEL 4
REMARK VINA RESULT:      -6.7      1.805      5.555
REMARK  Name = 
REMARK  4 active torsions:
REMARK  status: ('A' for Active; 'I' for Inactive)
REMARK    1  A    between atoms: C_1  and  C_2
REMARK    2  A    between atoms: C_2  and  N_3
REMARK    3  A    between atoms: N_3  and  C_4
REMARK    4  A    between atoms: N_18  and  C_19
REMARK                            x       y       z     vdW  Elec       q    Type
REMARK                         _______ _______ _______ _____ _____    ______ ____
ROOT
ATOM      1  C   UNL     1       2.538   5.847  20.085  0.00  0.00    +0.000 A 
ATOM      2  N   UNL     1       3.258   5.405  19.022  0.00  0.00    +0.000 NA
ATOM      3  C   UNL     1       3.525   6.208  17.971  0.00  0.00    +0.000 A 
ATOM      4  N   UNL     1       4.301   5.697  16.960  0.00  0.00    +0.000 N 
ATOM      5  C   UNL     1       4.309   4.275  16.670  0.00  0.00    +0.000 C 
ATOM      6  C   UNL     1       5.733   3.736  16.772  0.00  0.00    +0.000 C 
ATOM      7  C   UNL     1       6.711   4.571  15.946  0.00  0.00    +0.000 C 
ATOM      8  C   UNL     1       6.603   6.058  16.288  0.00  0.00    +0.000 C 
ATOM      9  C   UNL     1       5.160   6.563  16.175  0.00  0.00    +0.000 C 
ATOM     10  N   UNL     1       3.103   7.476  17.859  0.00  0.00    +0.000 NA
ATOM     11  C   UNL     1       2.339   7.873  18.885  0.00  0.00    +0.000 A 
ATOM     12  C   UNL     1       2.019   7.139  20.009  0.00  0.00    +0.000 A 
ATOM     13  C   UNL     1       1.221   8.011  20.778  0.00  0.00    +0.000 A 
ATOM     14  N   UNL     1       1.037   9.203  20.196  0.00  0.00    +0.000 NA
ATOM     15  N   UNL     1       1.722   9.084  19.034  0.00  0.00    +0.000 N 
ATOM     16  C   UNL     1       1.744  10.165  18.083  0.00  0.00    +0.000 C 
ENDROOT
BRANCH   1  17
ATOM     17  N   UNL     1       2.343   5.014  21.197  0.00  0.00    +0.000 N 
ATOM     18  H   UNL     1       3.222   4.772  21.639  0.00  0.00    +0.000 HD
BRANCH  17  20
ATOM     19  C   UNL     1       2.003   2.648  21.660  0.00  0.00    +0.000 C 
ATOM     20  C   UNL     1       1.475   3.872  20.931  0.00  0.00    +0.000 C 
ENDBRANCH  17  20
ENDBRANCH   1  17
TORSDOF 2
ENDMDL
MODEL 5
REMARK VINA RESULT:      -6.6      2.524      3.426
REMARK  Name = 
REMARK  4 active torsions:
REMARK  status: ('A' for Active; 'I' for Inactive)
REMARK    1  A    between atoms: C_1  and  C_2
REMARK    2  A    between atoms: C_2  and  N_3
REMARK    3  A    between atoms: N_3  and  C_4
REMARK    4  A    between atoms: N_18  and  C_19
REMARK                            x       y       z     vdW  Elec       q    Type
REMARK                         _______ _______ _______ _____ _____    ______ ____
ROOT
ATOM      1  C   UNL     1       5.025   4.359  16.136  0.00  0.00    +0.000 A 
ATOM      2  N   UNL     1       4.138   3.733  16.952  0.00  0.00    +0.000 NA
ATOM      3  C   UNL     1       4.258   3.786  18.295  0.00  0.00    +0.000 A 
ATOM      4  N   UNL     1       3.290   3.167  19.046  0.00  0.00    +0.000 N 
ATOM      5  C   UNL     1       2.570   2.016  18.534  0.00  0.00    +0.000 C 
ATOM      6  C   UNL     1       1.070   2.301  18.538  0.00  0.00    +0.000 C 
ATOM      7  C   UNL     1       0.598   2.807  19.901  0.00  0.00    +0.000 C 
ATOM      8  C   UNL     1       1.439   3.993  20.378  0.00  0.00    +0.000 C 
ATOM      9  C   UNL     1       2.937   3.669  20.360  0.00  0.00    +0.000 C 
ATOM     10  N   UNL     1       5.246   4.422  18.943  0.00  0.00    +0.000 NA
ATOM     11  C   UNL     1       6.147   4.976  18.123  0.00  0.00    +0.000 A 
ATOM     12  C   UNL     1       6.111   4.991  16.744  0.00  0.00    +0.000 A 
ATOM     13  C   UNL     1       7.266   5.710  16.373  0.00  0.00    +0.000 A 
ATOM     14  N   UNL     1       7.989   6.117  17.423  0.00  0.00    +0.000 NA
ATOM     15  N   UNL     1       7.286   5.643  18.479  0.00  0.00    +0.000 N 
ATOM     16  C   UNL     1       7.761   5.844  19.824  0.00  0.00    +0.000 C 
ENDROOT
BRANCH   1  17
ATOM     17  N   UNL     1       4.831   4.351  14.747  0.00  0.00    +0.000 N 
ATOM     18  H   UNL     1       3.943   3.929  14.499  0.00  0.00    +0.000 HD
BRANCH  17  20
ATOM     19  C   UNL     1       5.534   3.483  12.583  0.00  0.00    +0.000 C 
ATOM     20  C   UNL     1       5.969   3.832  13.997  0.00  0.00    +0.000 C 
ENDBRANCH  17  20
ENDBRANCH   1  17
TORSDOF 2
ENDMDL
MODEL 6
REMARK VINA RESULT:      -6.6      2.331      3.610
REMARK  Name = 
REMARK  4 active torsions:
REMARK  status: ('A' for Active; 'I' for Inactive)
REMARK    1  A    between atoms: C_1  and  C_2
REMARK    2  A    between atoms: C_2  and  N_3
REMARK    3  A    between atoms: N_3  and  C_4
REMARK    4  A    between atoms: N_18  and  C_19
REMARK                            x       y       z     vdW  Elec       q    Type
REMARK                         _______ _______ _______ _____ _____    ______ ____
ROOT
ATOM      1  C   UNL     1       6.478   4.571  17.977  0.00  0.00    +0.000 A 
ATOM      2  N   UNL     1       5.248   4.477  18.545  0.00  0.00    +0.000 NA
ATOM      3  C   UNL     1       4.148   4.229  17.804  0.00  0.00    +0.000 A 
ATOM      4  N   UNL     1       2.950   4.102  18.464  0.00  0.00    +0.000 N 
ATOM      5  C   UNL     1       2.710   4.795  19.716  0.00  0.00    +0.000 C 
ATOM      6  C   UNL     1       2.350   3.787  20.803  0.00  0.00    +0.000 C 
ATOM      7  C   UNL     1       1.226   2.853  20.353  0.00  0.00    +0.000 C 
ATOM      8  C   UNL     1       1.547   2.200  19.008  0.00  0.00    +0.000 C 
ATOM      9  C   UNL     1       1.905   3.243  17.943  0.00  0.00    +0.000 C 
ATOM     10  N   UNL     1       4.150   4.077  16.471  0.00  0.00    +0.000 NA
ATOM     11  C   UNL     1       5.361   4.239  15.921  0.00  0.00    +0.000 A 
ATOM     12  C   UNL     1       6.545   4.480  16.587  0.00  0.00    +0.000 A 
ATOM     13  C   UNL     1       7.512   4.545  15.563  0.00  0.00    +0.000 A 
ATOM     14  N   UNL     1       6.994   4.369  14.341  0.00  0.00    +0.000 NA
ATOM     15  N   UNL     1       5.675   4.196  14.592  0.00  0.00    +0.000 N 
ATOM     16  C   UNL     1       4.743   4.006  13.510  0.00  0.00    +0.000 C 
ENDROOT
BRANCH   1  17
ATOM     17  N   UNL     1       7.612   4.751  18.782  0.00  0.00    +0.000 N 
ATOM     18  H   UNL     1       7.718   3.995  19.450  0.00  0.00    +0.000 HD
BRANCH  17  20
ATOM     19  C   UNL     1       7.890   7.115  18.267  0.00  0.00    +0.000 C 
ATOM     20  C   UNL     1       7.711   6.083  19.369  0.00  0.00    +0.000 C 
ENDBRANCH  17  20
ENDBRANCH   1  17
TORSDOF 2
ENDMDL
MODEL 7
REMARK VINA RESULT:      -6.6      1.705      4.839
REMARK  Name = 
REMARK  4 active torsions:
REMARK  status: ('A' for Active; 'I' for Inactive)
REMARK    1  A    between atoms: C_1  and  C_2
REMARK    2  A    between atoms: C_2  and  N_3
REMARK    3  A    between atoms: N_3  and  C_4
REMARK    4  A    between atoms: N_18  and  C_19
REMARK                            x       y       z     vdW  Elec       q    Type
REMARK                         _______ _______ _______ _____ _____    ______ ____
ROOT
ATOM      1  C   UNL     1       2.348   4.494  18.911  0.00  0.00    +0.000 A 
ATOM      2  N   UNL     1       2.006   5.740  19.327  0.00  0.00    +0.000 NA
ATOM      3  C   UNL     1       2.547   6.842  18.766  0.00  0.00    +0.000 A 
ATOM      4  N   UNL     1       2.110   8.065  19.213  0.00  0.00    +0.000 N 
ATOM      5  C   UNL     1       1.627   8.235  20.570  0.00  0.00    +0.000 C 
ATOM      6  C   UNL     1       0.200   8.778  20.546  0.00  0.00    +0.000 C 
ATOM      7  C   UNL     1       0.086  10.017  19.658  0.00  0.00    +0.000 C 
ATOM      8  C   UNL     1       0.657   9.757  18.262  0.00  0.00    +0.000 C 
ATOM      9  C   UNL     1       2.088   9.213  18.327  0.00  0.00    +0.000 C 
ATOM     10  N   UNL     1       3.466   6.822  17.789  0.00  0.00    +0.000 NA
ATOM     11  C   UNL     1       3.840   5.585  17.438  0.00  0.00    +0.000 A 
ATOM     12  C   UNL     1       3.341   4.399  17.936  0.00  0.00    +0.000 A 
ATOM     13  C   UNL     1       4.045   3.402  17.230  0.00  0.00    +0.000 A 
ATOM     14  N   UNL     1       4.927   3.903  16.356  0.00  0.00    +0.000 NA
ATOM     15  N   UNL     1       4.787   5.240  16.515  0.00  0.00    +0.000 N 
ATOM     16  C   UNL     1       5.604   6.157  15.762  0.00  0.00    +0.000 C 
ENDROOT
BRANCH   1  17
ATOM     17  N   UNL     1       1.711   3.370  19.459  0.00  0.00    +0.000 N 
ATOM     18  H   UNL     1       1.034   2.977  18.815  0.00  0.00    +0.000 HD
BRANCH  17  20
ATOM     19  C   UNL     1       2.049   2.820  21.807  0.00  0.00    +0.000 C 
ATOM     20  C   UNL     1       1.197   3.585  20.807  0.00  0.00    +0.000 C 
ENDBRANCH  17  20
ENDBRANCH   1  17
TORSDOF 2
ENDMDL
MODEL 8
REMARK VINA RESULT:      -6.5      2.989      4.121
REMARK  Name = 
REMARK  4 active torsions:
REMARK  status: ('A' for Active; 'I' for Inactive)
REMARK    1  A    between atoms: C_1  and  C_2
REMARK    2  A    between atoms: C_2  and  N_3
REMARK    3  A    between atoms: N_3  and  C_4
REMARK    4  A    between atoms: N_18  and  C_19
REMARK                            x       y       z     vdW  Elec       q    Type
REMARK                         _______ _______ _______ _____ _____    ______ ____
ROOT
ATOM      1  C   UNL     1       6.797   5.500  16.037  0.00  0.00    +0.000 A 
ATOM      2  N   UNL     1       5.743   5.140  16.813  0.00  0.00    +0.000 NA
ATOM      3  C   UNL     1       4.802   4.281  16.368  0.00  0.00    +0.000 A 
ATOM      4  N   UNL     1       3.796   3.933  17.235  0.00  0.00    +0.000 N 
ATOM      5  C   UNL     1       3.360   4.843  18.277  0.00  0.00    +0.000 C 
ATOM      6  C   UNL     1       3.498   4.171  19.641  0.00  0.00    +0.000 C 
ATOM      7  C   UNL     1       2.829   2.796  19.659  0.00  0.00    +0.000 C 
ATOM      8  C   UNL     1       3.318   1.922  18.503  0.00  0.00    +0.000 C 
ATOM      9  C   UNL     1       3.165   2.630  17.153  0.00  0.00    +0.000 C 
ATOM     10  N   UNL     1       4.797   3.730  15.145  0.00  0.00    +0.000 NA
ATOM     11  C   UNL     1       5.807   4.147  14.371  0.00  0.00    +0.000 A 
ATOM     12  C   UNL     1       6.823   5.007  14.732  0.00  0.00    +0.000 A 
ATOM     13  C   UNL     1       7.626   5.101  13.577  0.00  0.00    +0.000 A 
ATOM     14  N   UNL     1       7.162   4.370  12.555  0.00  0.00    +0.000 NA
ATOM     15  N   UNL     1       6.042   3.808  13.068  0.00  0.00    +0.000 N 
ATOM     16  C   UNL     1       5.213   2.955  12.255  0.00  0.00    +0.000 C 
ENDROOT
BRANCH   1  17
ATOM     17  N   UNL     1       7.801   6.332  16.555  0.00  0.00    +0.000 N 
ATOM     18  H   UNL     1       8.692   5.853  16.604  0.00  0.00    +0.000 HD
BRANCH  17  20
ATOM     19  C   UNL     1       7.911   8.452  17.749  0.00  0.00    +0.000 C 
ATOM     20  C   UNL     1       7.421   7.013  17.787  0.00  0.00    +0.000 C 
ENDBRANCH  17  20
ENDBRANCH   1  17
TORSDOF 2
ENDMDL
MODEL 9
REMARK VINA RESULT:      -6.3      2.481      3.130
REMARK  Name = 
REMARK  4 active torsions:
REMARK  status: ('A' for Active; 'I' for Inactive)
REMARK    1  A    between atoms: C_1  and  C_2
REMARK    2  A    between atoms: C_2  and  N_3
REMARK    3  A    between atoms: N_3  and  C_4
REMARK    4  A    between atoms: N_18  and  C_19
REMARK                            x       y       z     vdW  Elec       q    Type
REMARK                         _______ _______ _______ _____ _____    ______ ____
ROOT
ATOM      1  C   UNL     1       5.394   5.357  16.739  0.00  0.00    +0.000 A 
ATOM      2  N   UNL     1       4.602   4.381  17.253  0.00  0.00    +0.000 NA
ATOM      3  C   UNL     1       4.785   3.914  18.506  0.00  0.00    +0.000 A 
ATOM      4  N   UNL     1       3.910   2.961  18.965  0.00  0.00    +0.000 N 
ATOM      5  C   UNL     1       3.261   2.041  18.050  0.00  0.00    +0.000 C 
ATOM      6  C   UNL     1       1.745   2.159  18.188  0.00  0.00    +0.000 C 
ATOM      7  C   UNL     1       1.304   2.042  19.647  0.00  0.00    +0.000 C 
ATOM      8  C   UNL     1       2.069   3.019  20.542  0.00  0.00    +0.000 C 
ATOM      9  C   UNL     1       3.585   2.871  20.376  0.00  0.00    +0.000 C 
ATOM     10  N   UNL     1       5.750   4.334  19.338  0.00  0.00    +0.000 NA
ATOM     11  C   UNL     1       6.561   5.249  18.791  0.00  0.00    +0.000 A 
ATOM     12  C   UNL     1       6.454   5.799  17.531  0.00  0.00    +0.000 A 
ATOM     13  C   UNL     1       7.526   6.712  17.457  0.00  0.00    +0.000 A 
ATOM     14  N   UNL     1       8.267   6.740  18.572  0.00  0.00    +0.000 NA
ATOM     15  N   UNL     1       7.659   5.826  19.365  0.00  0.00    +0.000 N 
ATOM     16  C   UNL     1       8.183   5.527  20.673  0.00  0.00    +0.000 C 
ENDROOT
BRANCH   1  17
ATOM     17  N   UNL     1       5.130   5.877  15.463  0.00  0.00    +0.000 N 
ATOM     18  H   UNL     1       4.220   6.320  15.423  0.00  0.00    +0.000 HD
BRANCH  17  20
ATOM     19  C   UNL     1       6.880   4.750  14.198  0.00  0.00    +0.000 C 
ATOM     20  C   UNL     1       5.382   4.932  14.380  0.00  0.00    +0.000 C 
ENDBRANCH  17  20
ENDBRANCH   1  17
TORSDOF 2
ENDMDL
