MODEL 1
REMARK VINA RESULT:      -8.1      0.000      0.000
REMARK  Name = 
REMARK  7 active torsions:
REMARK  status: ('A' for Active; 'I' for Inactive)
REMARK    1  A    between atoms: C_4  and  C_5
REMARK    2  A    between atoms: C_6  and  C_7
REMARK    3  A    between atoms: C_16  and  N_17
REMARK    4  A    between atoms: C_20  and  N_21
REMARK    5  A    between atoms: N_21  and  C_22
REMARK    6  A    between atoms: C_22  and  C_23
REMARK    7  A    between atoms: C_23  and  C_24
REMARK                            x       y       z     vdW  Elec       q    Type
REMARK                         _______ _______ _______ _____ _____    ______ ____
ROOT
ATOM      1  O   UNL     1       2.110   4.039  21.631  0.00  0.00    +0.000 OA
ATOM      2  C   UNL     1       2.350   4.871  20.760  0.00  0.00    +0.000 A 
ATOM      3  C   UNL     1       3.308   4.576  19.686  0.00  0.00    +0.000 A 
ATOM      4  C   UNL     1       3.569   5.463  18.720  0.00  0.00    +0.000 A 
ATOM      5  C   UNL     1       2.907   6.739  18.697  0.00  0.00    +0.000 A 
ATOM      6  C   UNL     1       3.106   7.682  17.687  0.00  0.00    +0.000 A 
ATOM      7  C   UNL     1       2.504   8.934  17.765  0.00  0.00    +0.000 A 
ATOM      8  C   UNL     1       1.679   9.265  18.853  0.00  0.00    +0.000 A 
ATOM      9  C   UNL     1       1.429   8.284  19.814  0.00  0.00    +0.000 A 
ATOM     10  C   UNL     1       2.037   7.044  19.725  0.00  0.00    +0.000 A 
ATOM     11  O   UNL     1       1.754   6.117  20.753  0.00  0.00    +0.000 OA
ENDROOT
BRANCH   8  12
ATOM     12  N   UNL     1       1.218  10.552  19.017  0.00  0.00    +0.000 N 
ATOM     13  C   UNL     1      -0.054  10.769  19.713  0.00  0.00    +0.000 C 
ATOM     14  C   UNL     1       0.159  11.839  20.771  0.00  0.00    +0.000 C 
ATOM     15  C   UNL     1       0.699  13.131  20.143  0.00  0.00    +0.000 C 
ATOM     16  C   UNL     1       2.021  12.821  19.423  0.00  0.00    +0.000 C 
ATOM     17  C   UNL     1       1.881  11.695  18.405  0.00  0.00    +0.000 C 
BRANCH  15  18
ATOM     18  N   UNL     1      -0.246  13.786  19.219  0.00  0.00    +0.000 NA
ATOM     19  H   UNL     1      -0.897  13.097  18.839  0.00  0.00    +0.000 HD
BRANCH  18  20
ATOM     20  C   UNL     1      -1.032  14.867  19.830  0.00  0.00    +0.000 C 
BRANCH  20  21
ATOM     21  C   UNL     1      -0.185  16.107  20.136  0.00  0.00    +0.000 C 
BRANCH  21  22
ATOM     22  C   UNL     1       0.170  16.872  18.889  0.00  0.00    +0.000 A 
ATOM     23  C   UNL     1      -0.823  17.571  18.189  0.00  0.00    +0.000 A 
ATOM     24  C   UNL     1      -0.492  18.299  17.047  0.00  0.00    +0.000 A 
ATOM     25  C   UNL     1       0.827  18.323  16.597  0.00  0.00    +0.000 A 
ATOM     26  C   UNL     1       1.815  17.617  17.278  0.00  0.00    +0.000 A 
ATOM     27  C   UNL     1       1.486  16.893  18.425  0.00  0.00    +0.000 A 
ENDBRANCH  21  22
ENDBRANCH  20  21
ENDBRANCH  18  20
ENDBRANCH  15  18
ENDBRANCH   8  12
BRANCH   4  28
ATOM     28  C   UNL     1       4.562   5.079  17.635  0.00  0.00    +0.000 C 
ATOM     29  C   UNL     1       5.412   4.750  16.703  0.00  0.00    +0.000 C 
BRANCH  29  30
ATOM     30  C   UNL     1       6.404   4.366  15.617  0.00  0.00    +0.000 C 
ATOM     31  C   UNL     1       5.635   3.322  14.755  0.00  0.00    +0.000 C 
ATOM     32  C   UNL     1       5.342   3.814  13.356  0.00  0.00    +0.000 C 
ATOM     33  C   UNL     1       6.664   4.094  12.674  0.00  0.00    +0.000 C 
ATOM     34  C   UNL     1       7.401   5.231  13.382  0.00  0.00    +0.000 C 
ATOM     35  C   UNL     1       7.510   5.114  14.912  0.00  0.00    +0.000 C 
ENDBRANCH  29  30
ENDBRANCH   4  28
TORSDOF 7
ENDMDL
MODEL 2
REMARK VINA RESULT:      -7.9      3.203      4.010
REMARK  Name = 
REMARK  7 active torsions:
REMARK  status: ('A' for Active; 'I' for Inactive)
REMARK    1  A    between atoms: C_4  and  C_5
REMARK    2  A    between atoms: C_6  and  C_7
REMARK    3  A    between atoms: C_16  and  N_17
REMARK    4  A    between atoms: C_20  and  N_21
REMARK    5  A    between atoms: N_21  and  C_22
REMARK    6  A    between atoms: C_22  and  C_23
REMARK    7  A    between atoms: C_23  and  C_24
REMARK                            x       y       z     vdW  Elec       q    Type
REMARK                         _______ _______ _______ _____ _____    ______ ____
ROOT
ATOM      1  O   UNL     1       2.170   1.465  19.556  0.00  0.00    +0.000 OA
ATOM      2  C   UNL     1       2.471   2.577  19.128  0.00  0.00    +0.000 A 
ATOM      3  C   UNL     1       3.493   2.726  18.085  0.00  0.00    +0.000 A 
ATOM      4  C   UNL     1       3.821   3.927  17.595  0.00  0.00    +0.000 A 
ATOM      5  C   UNL     1       3.169   5.117  18.072  0.00  0.00    +0.000 A 
ATOM      6  C   UNL     1       3.438   6.388  17.562  0.00  0.00    +0.000 A 
ATOM      7  C   UNL     1       2.839   7.512  18.123  0.00  0.00    +0.000 A 
ATOM      8  C   UNL     1       1.948   7.385  19.202  0.00  0.00    +0.000 A 
ATOM      9  C   UNL     1       1.632   6.101  19.649  0.00  0.00    +0.000 A 
ATOM     10  C   UNL     1       2.237   4.993  19.082  0.00  0.00    +0.000 A 
ATOM     11  O   UNL     1       1.884   3.730  19.611  0.00  0.00    +0.000 OA
ENDROOT
BRANCH   8  12
ATOM     12  N   UNL     1       1.485   8.500  19.864  0.00  0.00    +0.000 N 
ATOM     13  C   UNL     1       1.113   9.685  19.086  0.00  0.00    +0.000 C 
ATOM     14  C   UNL     1      -0.262  10.144  19.546  0.00  0.00    +0.000 C 
ATOM     15  C   UNL     1      -0.270  10.420  21.055  0.00  0.00    +0.000 C 
ATOM     16  C   UNL     1       0.142   9.141  21.799  0.00  0.00    +0.000 C 
ATOM     17  C   UNL     1       1.480   8.591  21.317  0.00  0.00    +0.000 C 
BRANCH  15  18
ATOM     18  N   UNL     1       0.591  11.548  21.461  0.00  0.00    +0.000 NA
ATOM     19  H   UNL     1       1.175  11.841  20.676  0.00  0.00    +0.000 HD
BRANCH  18  20
ATOM     20  C   UNL     1      -0.148  12.724  21.943  0.00  0.00    +0.000 C 
BRANCH  20  21
ATOM     21  C   UNL     1      -1.239  12.356  22.955  0.00  0.00    +0.000 C 
BRANCH  21  22
ATOM     22  C   UNL     1      -2.618  12.660  22.436  0.00  0.00    +0.000 A 
ATOM     23  C   UNL     1      -3.692  12.782  23.329  0.00  0.00    +0.000 A 
ATOM     24  C   UNL     1      -4.966  13.087  22.851  0.00  0.00    +0.000 A 
ATOM     25  C   UNL     1      -5.172  13.261  21.483  0.00  0.00    +0.000 A 
ATOM     26  C   UNL     1      -4.113  13.124  20.590  0.00  0.00    +0.000 A 
ATOM     27  C   UNL     1      -2.837  12.825  21.068  0.00  0.00    +0.000 A 
ENDBRANCH  21  22
ENDBRANCH  20  21
ENDBRANCH  18  20
ENDBRANCH  15  18
ENDBRANCH   8  12
BRANCH   4  28
ATOM     28  C   UNL     1       4.879   3.999  16.505  0.00  0.00    +0.000 C 
ATOM     29  C   UNL     1       5.785   4.061  15.570  0.00  0.00    +0.000 C 
BRANCH  29  30
ATOM     30  C   UNL     1       6.843   4.133  14.481  0.00  0.00    +0.000 C 
ATOM     31  C   UNL     1       6.351   3.117  13.409  0.00  0.00    +0.000 C 
ATOM     32  C   UNL     1       5.951   3.778  12.110  0.00  0.00    +0.000 C 
ATOM     33  C   UNL     1       7.168   4.486  11.553  0.00  0.00    +0.000 C 
ATOM     34  C   UNL     1       7.606   5.612  12.489  0.00  0.00    +0.000 C 
ATOM     35  C   UNL     1       7.736   5.240  13.977  0.00  0.00    +0.000 C 
ENDBRANCH  29  30
ENDBRANCH   4  28
TORSDOF 7
ENDMDL
MODEL 3
REMARK VINA RESULT:      -7.8      3.819     11.444
REMARK  Name = 
REMARK  7 active torsions:
REMARK  status: ('A' for Active; 'I' for Inactive)
REMARK    1  A    between atoms: C_4  and  C_5
REMARK    2  A    between atoms: C_6  and  C_7
REMARK    3  A    between atoms: C_16  and  N_17
REMARK    4  A    between atoms: C_20  and  N_21
REMARK    5  A    between atoms: N_21  and  C_22
REMARK    6  A    between atoms: C_22  and  C_23
REMARK    7  A    between atoms: C_23  and  C_24
REMARK                            x       y       z     vdW  Elec       q    Type
REMARK                         _______ _______ _______ _____ _____    ______ ____
ROOT
ATOM      1  O   UNL     1      -0.919  13.897  24.021  0.00  0.00    +0.000 OA
ATOM      2  C   UNL     1      -1.075  13.241  22.994  0.00  0.00    +0.000 A 
ATOM      3  C   UNL     1      -2.305  13.370  22.203  0.00  0.00    +0.000 A 
ATOM      4  C   UNL     1      -2.484  12.677  21.073  0.00  0.00    +0.000 A 
ATOM      5  C   UNL     1      -1.464  11.787  20.588  0.00  0.00    +0.000 A 
ATOM      6  C   UNL     1      -1.579  11.077  19.391  0.00  0.00    +0.000 A 
ATOM      7  C   UNL     1      -0.597  10.165  19.018  0.00  0.00    +0.000 A 
ATOM      8  C   UNL     1       0.528   9.951  19.832  0.00  0.00    +0.000 A 
ATOM      9  C   UNL     1       0.665  10.725  20.986  0.00  0.00    +0.000 A 
ATOM     10  C   UNL     1      -0.321  11.627  21.345  0.00  0.00    +0.000 A 
ATOM     11  O   UNL     1      -0.121  12.350  22.543  0.00  0.00    +0.000 OA
ENDROOT
BRANCH   8  12
ATOM     12  N   UNL     1       1.414   8.935  19.551  0.00  0.00    +0.000 N 
ATOM     13  C   UNL     1       1.789   8.003  20.618  0.00  0.00    +0.000 C 
ATOM     14  C   UNL     1       1.635   6.586  20.089  0.00  0.00    +0.000 C 
ATOM     15  C   UNL     1       2.477   6.380  18.822  0.00  0.00    +0.000 C 
ATOM     16  C   UNL     1       2.036   7.398  17.759  0.00  0.00    +0.000 C 
ATOM     17  C   UNL     1       2.093   8.834  18.267  0.00  0.00    +0.000 C 
BRANCH  15  18
ATOM     18  N   UNL     1       3.932   6.475  19.050  0.00  0.00    +0.000 NA
ATOM     19  H   UNL     1       4.132   7.218  19.721  0.00  0.00    +0.000 HD
BRANCH  18  20
ATOM     20  C   UNL     1       4.544   5.234  19.547  0.00  0.00    +0.000 C 
BRANCH  20  21
ATOM     21  C   UNL     1       4.422   4.079  18.547  0.00  0.00    +0.000 C 
BRANCH  21  22
ATOM     22  C   UNL     1       5.302   4.278  17.342  0.00  0.00    +0.000 A 
ATOM     23  C   UNL     1       6.667   4.551  17.509  0.00  0.00    +0.000 A 
ATOM     24  C   UNL     1       7.489   4.712  16.394  0.00  0.00    +0.000 A 
ATOM     25  C   UNL     1       6.948   4.610  15.113  0.00  0.00    +0.000 A 
ATOM     26  C   UNL     1       5.590   4.357  14.941  0.00  0.00    +0.000 A 
ATOM     27  C   UNL     1       4.769   4.189  16.056  0.00  0.00    +0.000 A 
ENDBRANCH  21  22
ENDBRANCH  20  21
ENDBRANCH  18  20
ENDBRANCH  15  18
ENDBRANCH   8  12
BRANCH   4  28
ATOM     28  C   UNL     1      -3.779  12.874  20.301  0.00  0.00    +0.000 C 
ATOM     29  C   UNL     1      -4.890  13.044  19.641  0.00  0.00    +0.000 C 
BRANCH  29  30
ATOM     30  C   UNL     1      -6.185  13.240  18.869  0.00  0.00    +0.000 C 
ATOM     31  C   UNL     1      -6.768  14.566  19.440  0.00  0.00    +0.000 C 
ATOM     32  C   UNL     1      -6.795  15.684  18.423  0.00  0.00    +0.000 C 
ATOM     33  C   UNL     1      -7.678  15.247  17.273  0.00  0.00    +0.000 C 
ATOM     34  C   UNL     1      -7.071  14.037  16.563  0.00  0.00    +0.000 C 
ATOM     35  C   UNL     1      -6.622  12.878  17.471  0.00  0.00    +0.000 C 
ENDBRANCH  29  30
ENDBRANCH   4  28
TORSDOF 7
ENDMDL
MODEL 4
REMARK VINA RESULT:      -7.8      0.564      1.000
REMARK  Name = 
REMARK  7 active torsions:
REMARK  status: ('A' for Active; 'I' for Inactive)
REMARK    1  A    between atoms: C_4  and  C_5
REMARK    2  A    between atoms: C_6  and  C_7
REMARK    3  A    between atoms: C_16  and  N_17
REMARK    4  A    between atoms: C_20  and  N_21
REMARK    5  A    between atoms: N_21  and  C_22
REMARK    6  A    between atoms: C_22  and  C_23
REMARK    7  A    between atoms: C_23  and  C_24
REMARK                            x       y       z     vdW  Elec       q    Type
REMARK                         _______ _______ _______ _____ _____    ______ ____
ROOT
ATOM      1  O   UNL     1       1.738   3.456  21.553  0.00  0.00    +0.000 OA
ATOM      2  C   UNL     1       2.030   4.360  20.774  0.00  0.00    +0.000 A 
ATOM      3  C   UNL     1       3.048   4.154  19.736  0.00  0.00    +0.000 A 
ATOM      4  C   UNL     1       3.365   5.121  18.868  0.00  0.00    +0.000 A 
ATOM      5  C   UNL     1       2.706   6.398  18.918  0.00  0.00    +0.000 A 
ATOM      6  C   UNL     1       2.964   7.424  18.008  0.00  0.00    +0.000 A 
ATOM      7  C   UNL     1       2.359   8.667  18.160  0.00  0.00    +0.000 A 
ATOM      8  C   UNL     1       1.472   8.907  19.223  0.00  0.00    +0.000 A 
ATOM      9  C   UNL     1       1.166   7.847  20.079  0.00  0.00    +0.000 A 
ATOM     10  C   UNL     1       1.778   6.617  19.916  0.00  0.00    +0.000 A 
ATOM     11  O   UNL     1       1.435   5.605  20.842  0.00  0.00    +0.000 OA
ENDROOT
BRANCH   8  12
ATOM     12  N   UNL     1       1.003  10.177  19.472  0.00  0.00    +0.000 N 
ATOM     13  C   UNL     1       0.068  10.385  20.581  0.00  0.00    +0.000 C 
ATOM     14  C   UNL     1       0.572  11.551  21.417  0.00  0.00    +0.000 C 
ATOM     15  C   UNL     1       0.734  12.812  20.557  0.00  0.00    +0.000 C 
ATOM     16  C   UNL     1       1.714  12.512  19.412  0.00  0.00    +0.000 C 
ATOM     17  C   UNL     1       1.297  11.298  18.590  0.00  0.00    +0.000 C 
BRANCH  15  18
ATOM     18  N   UNL     1      -0.536  13.336  20.019  0.00  0.00    +0.000 NA
ATOM     19  H   UNL     1      -1.077  13.777  20.766  0.00  0.00    +0.000 HD
BRANCH  18  20
ATOM     20  C   UNL     1      -0.371  14.316  18.936  0.00  0.00    +0.000 C 
BRANCH  20  21
ATOM     21  C   UNL     1      -0.510  15.761  19.428  0.00  0.00    +0.000 C 
BRANCH  21  22
ATOM     22  C   UNL     1       0.057  16.750  18.444  0.00  0.00    +0.000 A 
ATOM     23  C   UNL     1       1.436  16.780  18.197  0.00  0.00    +0.000 A 
ATOM     24  C   UNL     1       1.960  17.678  17.268  0.00  0.00    +0.000 A 
ATOM     25  C   UNL     1       1.110  18.554  16.593  0.00  0.00    +0.000 A 
ATOM     26  C   UNL     1      -0.258  18.540  16.848  0.00  0.00    +0.000 A 
ATOM     27  C   UNL     1      -0.784  17.637  17.772  0.00  0.00    +0.000 A 
ENDBRANCH  21  22
ENDBRANCH  20  21
ENDBRANCH  18  20
ENDBRANCH  15  18
ENDBRANCH   8  12
BRANCH   4  28
ATOM     28  C   UNL     1       4.419   4.827  17.812  0.00  0.00    +0.000 C 
ATOM     29  C   UNL     1       5.322   4.574  16.906  0.00  0.00    +0.000 C 
BRANCH  29  30
ATOM     30  C   UNL     1       6.376   4.281  15.852  0.00  0.00    +0.000 C 
ATOM     31  C   UNL     1       5.685   3.262  14.899  0.00  0.00    +0.000 C 
ATOM     32  C   UNL     1       5.441   3.820  13.515  0.00  0.00    +0.000 C 
ATOM     33  C   UNL     1       6.784   4.179  12.914  0.00  0.00    +0.000 C 
ATOM     34  C   UNL     1       7.447   5.298  13.716  0.00  0.00    +0.000 C 
ATOM     35  C   UNL     1       7.488   5.101  15.242  0.00  0.00    +0.000 C 
ENDBRANCH  29  30
ENDBRANCH   4  28
TORSDOF 7
ENDMDL
MODEL 5
REMARK VINA RESULT:      -7.6      3.313     11.335
REMARK  Name = 
REMARK  7 active torsions:
REMARK  status: ('A' for Active; 'I' for Inactive)
REMARK    1  A    between atoms: C_4  and  C_5
REMARK    2  A    between atoms: C_6  and  C_7
REMARK    3  A    between atoms: C_16  and  N_17
REMARK    4  A    between atoms: C_20  and  N_21
REMARK    5  A    between atoms: N_21  and  C_22
REMARK    6  A    between atoms: C_22  and  C_23
REMARK    7  A    between atoms: C_23  and  C_24
REMARK                            x       y       z     vdW  Elec       q    Type
REMARK                         _______ _______ _______ _____ _____    ______ ____
ROOT
ATOM      1  O   UNL     1       2.265  13.829  17.796  0.00  0.00    +0.000 OA
ATOM      2  C   UNL     1       1.735  12.945  18.464  0.00  0.00    +0.000 A 
ATOM      3  C   UNL     1       0.691  13.272  19.444  0.00  0.00    +0.000 A 
ATOM      4  C   UNL     1       0.091  12.321  20.168  0.00  0.00    +0.000 A 
ATOM      5  C   UNL     1       0.444  10.937  19.999  0.00  0.00    +0.000 A 
ATOM      6  C   UNL     1      -0.184   9.901  20.694  0.00  0.00    +0.000 A 
ATOM      7  C   UNL     1       0.261   8.590  20.552  0.00  0.00    +0.000 A 
ATOM      8  C   UNL     1       1.338   8.287  19.704  0.00  0.00    +0.000 A 
ATOM      9  C   UNL     1       1.904   9.323  18.959  0.00  0.00    +0.000 A 
ATOM     10  C   UNL     1       1.453  10.622  19.111  0.00  0.00    +0.000 A 
ATOM     11  O   UNL     1       2.098  11.618  18.343  0.00  0.00    +0.000 OA
ENDROOT
BRANCH   8  12
ATOM     12  N   UNL     1       1.884   7.023  19.689  0.00  0.00    +0.000 N 
ATOM     13  C   UNL     1       1.774   6.186  20.887  0.00  0.00    +0.000 C 
ATOM     14  C   UNL     1       1.258   4.819  20.467  0.00  0.00    +0.000 C 
ATOM     15  C   UNL     1       2.174   4.190  19.409  0.00  0.00    +0.000 C 
ATOM     16  C   UNL     1       2.250   5.128  18.194  0.00  0.00    +0.000 C 
ATOM     17  C   UNL     1       2.685   6.539  18.573  0.00  0.00    +0.000 C 
BRANCH  15  18
ATOM     18  N   UNL     1       3.530   3.878  19.901  0.00  0.00    +0.000 NA
ATOM     19  H   UNL     1       3.479   3.176  20.642  0.00  0.00    +0.000 HD
BRANCH  18  20
ATOM     20  C   UNL     1       4.445   3.382  18.864  0.00  0.00    +0.000 C 
BRANCH  20  21
ATOM     21  C   UNL     1       5.608   4.346  18.599  0.00  0.00    +0.000 C 
BRANCH  21  22
ATOM     22  C   UNL     1       5.931   4.452  17.133  0.00  0.00    +0.000 A 
ATOM     23  C   UNL     1       4.949   4.161  16.176  0.00  0.00    +0.000 A 
ATOM     24  C   UNL     1       5.238   4.282  14.817  0.00  0.00    +0.000 A 
ATOM     25  C   UNL     1       6.510   4.685  14.412  0.00  0.00    +0.000 A 
ATOM     26  C   UNL     1       7.495   4.959  15.357  0.00  0.00    +0.000 A 
ATOM     27  C   UNL     1       7.203   4.845  16.717  0.00  0.00    +0.000 A 
ENDBRANCH  21  22
ENDBRANCH  20  21
ENDBRANCH  18  20
ENDBRANCH  15  18
ENDBRANCH   8  12
BRANCH   4  28
ATOM     28  C   UNL     1      -0.991  12.736  21.153  0.00  0.00    +0.000 C 
ATOM     29  C   UNL     1      -1.917  13.093  21.997  0.00  0.00    +0.000 C 
BRANCH  29  30
ATOM     30  C   UNL     1      -2.998  13.508  22.982  0.00  0.00    +0.000 C 
ATOM     31  C   UNL     1      -4.205  13.897  22.078  0.00  0.00    +0.000 C 
ATOM     32  C   UNL     1      -5.383  12.963  22.234  0.00  0.00    +0.000 C 
ATOM     33  C   UNL     1      -5.843  13.029  23.674  0.00  0.00    +0.000 C 
ATOM     34  C   UNL     1      -4.754  12.503  24.609  0.00  0.00    +0.000 C 
ATOM     35  C   UNL     1      -3.342  13.073  24.386  0.00  0.00    +0.000 C 
ENDBRANCH  29  30
ENDBRANCH   4  28
TORSDOF 7
ENDMDL
MODEL 6
REMARK VINA RESULT:      -7.6      3.651     11.847
REMARK  Name = 
REMARK  7 active torsions:
REMARK  status: ('A' for Active; 'I' for Inactive)
REMARK    1  A    between atoms: C_4  and  C_5
REMARK    2  A    between atoms: C_6  and  C_7
REMARK    3  A    between atoms: C_16  and  N_17
REMARK    4  A    between atoms: C_20  and  N_21
REMARK    5  A    between atoms: N_21  and  C_22
REMARK    6  A    between atoms: C_22  and  C_23
REMARK    7  A    between atoms: C_23  and  C_24
REMARK                            x       y       z     vdW  Elec       q    Type
REMARK                         _______ _______ _______ _____ _____    ______ ____
ROOT
ATOM      1  O   UNL     1       0.977  15.369  18.566  0.00  0.00    +0.000 OA
ATOM      2  C   UNL     1       0.531  14.308  18.996  0.00  0.00    +0.000 A 
ATOM      3  C   UNL     1      -0.728  14.277  19.751  0.00  0.00    +0.000 A 
ATOM      4  C   UNL     1      -1.238  13.129  20.212  0.00  0.00    +0.000 A 
ATOM      5  C   UNL     1      -0.568  11.880  19.970  0.00  0.00    +0.000 A 
ATOM      6  C   UNL     1      -1.080  10.649  20.386  0.00  0.00    +0.000 A 
ATOM      7  C   UNL     1      -0.344   9.483  20.200  0.00  0.00    +0.000 A 
ATOM      8  C   UNL     1       0.917   9.523  19.582  0.00  0.00    +0.000 A 
ATOM      9  C   UNL     1       1.379  10.750  19.103  0.00  0.00    +0.000 A 
ATOM     10  C   UNL     1       0.637  11.902  19.298  0.00  0.00    +0.000 A 
ATOM     11  O   UNL     1       1.189  13.108  18.809  0.00  0.00    +0.000 OA
ENDROOT
BRANCH   8  12
ATOM     12  N   UNL     1       1.716   8.402  19.546  0.00  0.00    +0.000 N 
ATOM     13  C   UNL     1       1.873   7.602  20.764  0.00  0.00    +0.000 C 
ATOM     14  C   UNL     1       1.629   6.143  20.410  0.00  0.00    +0.000 C 
ATOM     15  C   UNL     1       2.576   5.684  19.294  0.00  0.00    +0.000 C 
ATOM     16  C   UNL     1       2.362   6.576  18.060  0.00  0.00    +0.000 C 
ATOM     17  C   UNL     1       2.515   8.059  18.379  0.00  0.00    +0.000 C 
BRANCH  15  18
ATOM     18  N   UNL     1       4.000   5.680  19.682  0.00  0.00    +0.000 NA
ATOM     19  H   UNL     1       4.097   5.970  20.656  0.00  0.00    +0.000 HD
BRANCH  18  20
ATOM     20  C   UNL     1       4.661   4.377  19.525  0.00  0.00    +0.000 C 
BRANCH  20  21
ATOM     21  C   UNL     1       4.308   3.696  18.197  0.00  0.00    +0.000 C 
BRANCH  21  22
ATOM     22  C   UNL     1       5.225   4.120  17.083  0.00  0.00    +0.000 A 
ATOM     23  C   UNL     1       6.539   4.518  17.369  0.00  0.00    +0.000 A 
ATOM     24  C   UNL     1       7.398   4.888  16.336  0.00  0.00    +0.000 A 
ATOM     25  C   UNL     1       6.946   4.870  15.017  0.00  0.00    +0.000 A 
ATOM     26  C   UNL     1       5.638   4.492  14.727  0.00  0.00    +0.000 A 
ATOM     27  C   UNL     1       4.779   4.115  15.761  0.00  0.00    +0.000 A 
ENDBRANCH  21  22
ENDBRANCH  20  21
ENDBRANCH  18  20
ENDBRANCH  15  18
ENDBRANCH   8  12
BRANCH   4  28
ATOM     28  C   UNL     1      -2.553  13.176  20.973  0.00  0.00    +0.000 C 
ATOM     29  C   UNL     1      -3.681  13.214  21.626  0.00  0.00    +0.000 C 
BRANCH  29  30
ATOM     30  C   UNL     1      -4.996  13.260  22.386  0.00  0.00    +0.000 C 
ATOM     31  C   UNL     1      -4.642  14.000  23.709  0.00  0.00    +0.000 C 
ATOM     32  C   UNL     1      -5.315  15.348  23.830  0.00  0.00    +0.000 C 
ATOM     33  C   UNL     1      -6.812  15.125  23.810  0.00  0.00    +0.000 C 
ATOM     34  C   UNL     1      -7.249  14.547  22.464  0.00  0.00    +0.000 C 
ATOM     35  C   UNL     1      -6.440  13.342  21.953  0.00  0.00    +0.000 C 
ENDBRANCH  29  30
ENDBRANCH   4  28
TORSDOF 7
ENDMDL
MODEL 7
REMARK VINA RESULT:      -7.6      2.823      3.955
REMARK  Name = 
REMARK  7 active torsions:
REMARK  status: ('A' for Active; 'I' for Inactive)
REMARK    1  A    between atoms: C_4  and  C_5
REMARK    2  A    between atoms: C_6  and  C_7
REMARK    3  A    between atoms: C_16  and  N_17
REMARK    4  A    between atoms: C_20  and  N_21
REMARK    5  A    between atoms: N_21  and  C_22
REMARK    6  A    between atoms: C_22  and  C_23
REMARK    7  A    between atoms: C_23  and  C_24
REMARK                            x       y       z     vdW  Elec       q    Type
REMARK                         _______ _______ _______ _____ _____    ______ ____
ROOT
ATOM      1  O   UNL     1       2.548   1.991  20.029  0.00  0.00    +0.000 OA
ATOM      2  C   UNL     1       2.774   3.052  19.451  0.00  0.00    +0.000 A 
ATOM      3  C   UNL     1       3.747   3.113  18.353  0.00  0.00    +0.000 A 
ATOM      4  C   UNL     1       3.994   4.255  17.702  0.00  0.00    +0.000 A 
ATOM      5  C   UNL     1       3.299   5.465  18.053  0.00  0.00    +0.000 A 
ATOM      6  C   UNL     1       3.483   6.672  17.375  0.00  0.00    +0.000 A 
ATOM      7  C   UNL     1       2.848   7.828  17.816  0.00  0.00    +0.000 A 
ATOM      8  C   UNL     1       2.006   7.799  18.940  0.00  0.00    +0.000 A 
ATOM      9  C   UNL     1       1.774   6.570  19.559  0.00  0.00    +0.000 A 
ATOM     10  C   UNL     1       2.414   5.428  19.111  0.00  0.00    +0.000 A 
ATOM     11  O   UNL     1       2.147   4.229  19.810  0.00  0.00    +0.000 OA
ENDROOT
BRANCH   8  12
ATOM     12  N   UNL     1       1.511   8.968  19.476  0.00  0.00    +0.000 N 
ATOM     13  C   UNL     1       1.553  10.192  18.672  0.00  0.00    +0.000 C 
ATOM     14  C   UNL     1       0.175  10.835  18.711  0.00  0.00    +0.000 C 
ATOM     15  C   UNL     1      -0.260  11.110  20.156  0.00  0.00    +0.000 C 
ATOM     16  C   UNL     1      -0.266   9.786  20.936  0.00  0.00    +0.000 C 
ATOM     17  C   UNL     1       1.071   9.058  20.861  0.00  0.00    +0.000 C 
BRANCH  15  18
ATOM     18  N   UNL     1       0.573  12.110  20.851  0.00  0.00    +0.000 NA
ATOM     19  H   UNL     1       0.998  12.743  20.171  0.00  0.00    +0.000 HD
BRANCH  18  20
ATOM     20  C   UNL     1      -0.157  12.921  21.835  0.00  0.00    +0.000 C 
BRANCH  20  21
ATOM     21  C   UNL     1      -1.434  13.540  21.253  0.00  0.00    +0.000 C 
BRANCH  21  22
ATOM     22  C   UNL     1      -2.602  13.417  22.194  0.00  0.00    +0.000 A 
ATOM     23  C   UNL     1      -3.684  14.302  22.088  0.00  0.00    +0.000 A 
ATOM     24  C   UNL     1      -4.777  14.175  22.943  0.00  0.00    +0.000 A 
ATOM     25  C   UNL     1      -4.789  13.171  23.911  0.00  0.00    +0.000 A 
ATOM     26  C   UNL     1      -3.710  12.300  24.032  0.00  0.00    +0.000 A 
ATOM     27  C   UNL     1      -2.618  12.422  23.173  0.00  0.00    +0.000 A 
ENDBRANCH  21  22
ENDBRANCH  20  21
ENDBRANCH  18  20
ENDBRANCH  15  18
ENDBRANCH   8  12
BRANCH   4  28
ATOM     28  C   UNL     1       5.004   4.237  16.566  0.00  0.00    +0.000 C 
ATOM     29  C   UNL     1       5.870   4.220  15.592  0.00  0.00    +0.000 C 
BRANCH  29  30
ATOM     30  C   UNL     1       6.881   4.201  14.457  0.00  0.00    +0.000 C 
ATOM     31  C   UNL     1       6.291   3.178  13.443  0.00  0.00    +0.000 C 
ATOM     32  C   UNL     1       5.868   3.816  12.139  0.00  0.00    +0.000 C 
ATOM     33  C   UNL     1       7.093   4.441  11.507  0.00  0.00    +0.000 C 
ATOM     34  C   UNL     1       7.629   5.573  12.384  0.00  0.00    +0.000 C 
ATOM     35  C   UNL     1       7.806   5.243  13.877  0.00  0.00    +0.000 C 
ENDBRANCH  29  30
ENDBRANCH   4  28
TORSDOF 7
ENDMDL
MODEL 8
REMARK VINA RESULT:      -7.5      3.705     11.074
REMARK  Name = 
REMARK  7 active torsions:
REMARK  status: ('A' for Active; 'I' for Inactive)
REMARK    1  A    between atoms: C_4  and  C_5
REMARK    2  A    between atoms: C_6  and  C_7
REMARK    3  A    between atoms: C_16  and  N_17
REMARK    4  A    between atoms: C_20  and  N_21
REMARK    5  A    between atoms: N_21  and  C_22
REMARK    6  A    between atoms: C_22  and  C_23
REMARK    7  A    between atoms: C_23  and  C_24
REMARK                            x       y       z     vdW  Elec       q    Type
REMARK                         _______ _______ _______ _____ _____    ______ ____
ROOT
ATOM      1  O   UNL     1       2.345  13.451  17.668  0.00  0.00    +0.000 OA
ATOM      2  C   UNL     1       1.892  12.592  18.420  0.00  0.00    +0.000 A 
ATOM      3  C   UNL     1       1.060  12.967  19.570  0.00  0.00    +0.000 A 
ATOM      4  C   UNL     1       0.544  12.044  20.389  0.00  0.00    +0.000 A 
ATOM      5  C   UNL     1       0.782  10.644  20.160  0.00  0.00    +0.000 A 
ATOM      6  C   UNL     1       0.229   9.638  20.955  0.00  0.00    +0.000 A 
ATOM      7  C   UNL     1       0.566   8.306  20.736  0.00  0.00    +0.000 A 
ATOM      8  C   UNL     1       1.456   7.951  19.709  0.00  0.00    +0.000 A 
ATOM      9  C   UNL     1       1.939   8.961  18.876  0.00  0.00    +0.000 A 
ATOM     10  C   UNL     1       1.597  10.282  19.106  0.00  0.00    +0.000 A 
ATOM     11  O   UNL     1       2.151  11.248  18.235  0.00  0.00    +0.000 OA
ENDROOT
BRANCH   8  12
ATOM     12  N   UNL     1       1.917   6.658  19.597  0.00  0.00    +0.000 N 
ATOM     13  C   UNL     1       1.839   5.772  20.761  0.00  0.00    +0.000 C 
ATOM     14  C   UNL     1       1.208   4.461  20.320  0.00  0.00    +0.000 C 
ATOM     15  C   UNL     1       2.004   3.830  19.169  0.00  0.00    +0.000 C 
ATOM     16  C   UNL     1       2.054   4.821  17.995  0.00  0.00    +0.000 C 
ATOM     17  C   UNL     1       2.604   6.183  18.404  0.00  0.00    +0.000 C 
BRANCH  15  18
ATOM     18  N   UNL     1       3.368   3.413  19.545  0.00  0.00    +0.000 NA
ATOM     19  H   UNL     1       3.404   2.398  19.658  0.00  0.00    +0.000 HD
BRANCH  18  20
ATOM     20  C   UNL     1       4.403   3.800  18.576  0.00  0.00    +0.000 C 
BRANCH  20  21
ATOM     21  C   UNL     1       5.741   4.130  19.248  0.00  0.00    +0.000 C 
BRANCH  21  22
ATOM     22  C   UNL     1       6.400   5.337  18.635  0.00  0.00    +0.000 A 
ATOM     23  C   UNL     1       5.814   5.969  17.530  0.00  0.00    +0.000 A 
ATOM     24  C   UNL     1       6.409   7.101  16.976  0.00  0.00    +0.000 A 
ATOM     25  C   UNL     1       7.594   7.598  17.518  0.00  0.00    +0.000 A 
ATOM     26  C   UNL     1       8.190   6.964  18.604  0.00  0.00    +0.000 A 
ATOM     27  C   UNL     1       7.591   5.835  19.163  0.00  0.00    +0.000 A 
ENDBRANCH  21  22
ENDBRANCH  20  21
ENDBRANCH  18  20
ENDBRANCH  15  18
ENDBRANCH   8  12
BRANCH   4  28
ATOM     28  C   UNL     1      -0.319  12.509  21.551  0.00  0.00    +0.000 C 
ATOM     29  C   UNL     1      -1.061  12.907  22.546  0.00  0.00    +0.000 C 
BRANCH  29  30
ATOM     30  C   UNL     1      -1.924  13.373  23.707  0.00  0.00    +0.000 C 
ATOM     31  C   UNL     1      -1.258  14.704  24.164  0.00  0.00    +0.000 C 
ATOM     32  C   UNL     1      -2.131  15.914  23.924  0.00  0.00    +0.000 C 
ATOM     33  C   UNL     1      -3.405  15.736  24.723  0.00  0.00    +0.000 C 
ATOM     34  C   UNL     1      -4.193  14.530  24.211  0.00  0.00    +0.000 C 
ATOM     35  C   UNL     1      -3.392  13.229  24.029  0.00  0.00    +0.000 C 
ENDBRANCH  29  30
ENDBRANCH   4  28
TORSDOF 7
ENDMDL
MODEL 9
REMARK VINA RESULT:      -7.5      3.522     11.719
REMARK  Name = 
REMARK  7 active torsions:
REMARK  status: ('A' for Active; 'I' for Inactive)
REMARK    1  A    between atoms: C_4  and  C_5
REMARK    2  A    between atoms: C_6  and  C_7
REMARK    3  A    between atoms: C_16  and  N_17
REMARK    4  A    between atoms: C_20  and  N_21
REMARK    5  A    between atoms: N_21  and  C_22
REMARK    6  A    between atoms: C_22  and  C_23
REMARK    7  A    between atoms: C_23  and  C_24
REMARK                            x       y       z     vdW  Elec       q    Type
REMARK                         _______ _______ _______ _____ _____    ______ ____
ROOT
ATOM      1  O   UNL     1       2.608  14.961  17.907  0.00  0.00    +0.000 OA
ATOM      2  C   UNL     1       2.103  13.970  18.430  0.00  0.00    +0.000 A 
ATOM      3  C   UNL     1       1.124  14.113  19.515  0.00  0.00    +0.000 A 
ATOM      4  C   UNL     1       0.552  13.047  20.084  0.00  0.00    +0.000 A 
ATOM      5  C   UNL     1       0.873  11.717  19.639  0.00  0.00    +0.000 A 
ATOM      6  C   UNL     1       0.270  10.573  20.165  0.00  0.00    +0.000 A 
ATOM      7  C   UNL     1       0.685   9.309  19.756  0.00  0.00    +0.000 A 
ATOM      8  C   UNL     1       1.706   9.165  18.802  0.00  0.00    +0.000 A 
ATOM      9  C   UNL     1       2.244  10.319  18.231  0.00  0.00    +0.000 A 
ATOM     10  C   UNL     1       1.823  11.569  18.649  0.00  0.00    +0.000 A 
ATOM     11  O   UNL     1       2.438  12.688  18.042  0.00  0.00    +0.000 OA
ENDROOT
BRANCH   8  12
ATOM     12  N   UNL     1       2.231   7.923  18.520  0.00  0.00    +0.000 N 
ATOM     13  C   UNL     1       2.837   7.690  17.206  0.00  0.00    +0.000 C 
ATOM     14  C   UNL     1       4.199   7.046  17.418  0.00  0.00    +0.000 C 
ATOM     15  C   UNL     1       4.073   5.752  18.232  0.00  0.00    +0.000 C 
ATOM     16  C   UNL     1       3.419   6.075  19.584  0.00  0.00    +0.000 C 
ATOM     17  C   UNL     1       2.085   6.796  19.430  0.00  0.00    +0.000 C 
BRANCH  15  18
ATOM     18  N   UNL     1       3.323   4.683  17.543  0.00  0.00    +0.000 NA
ATOM     19  H   UNL     1       2.836   5.067  16.731  0.00  0.00    +0.000 HD
BRANCH  18  20
ATOM     20  C   UNL     1       4.158   3.563  17.087  0.00  0.00    +0.000 C 
BRANCH  20  21
ATOM     21  C   UNL     1       4.033   2.333  17.995  0.00  0.00    +0.000 C 
BRANCH  21  22
ATOM     22  C   UNL     1       3.008   2.531  19.079  0.00  0.00    +0.000 A 
ATOM     23  C   UNL     1       3.398   2.510  20.425  0.00  0.00    +0.000 A 
ATOM     24  C   UNL     1       2.454   2.718  21.429  0.00  0.00    +0.000 A 
ATOM     25  C   UNL     1       1.119   2.937  21.093  0.00  0.00    +0.000 A 
ATOM     26  C   UNL     1       0.722   2.941  19.758  0.00  0.00    +0.000 A 
ATOM     27  C   UNL     1       1.668   2.741  18.752  0.00  0.00    +0.000 A 
ENDBRANCH  21  22
ENDBRANCH  20  21
ENDBRANCH  18  20
ENDBRANCH  15  18
ENDBRANCH   8  12
BRANCH   4  28
ATOM     28  C   UNL     1      -0.464  13.276  21.192  0.00  0.00    +0.000 C 
ATOM     29  C   UNL     1      -1.334  13.473  22.142  0.00  0.00    +0.000 C 
BRANCH  29  30
ATOM     30  C   UNL     1      -2.349  13.701  23.250  0.00  0.00    +0.000 C 
ATOM     31  C   UNL     1      -2.696  15.215  23.139  0.00  0.00    +0.000 C 
ATOM     32  C   UNL     1      -4.126  15.463  22.716  0.00  0.00    +0.000 C 
ATOM     33  C   UNL     1      -5.034  14.856  23.764  0.00  0.00    +0.000 C 
ATOM     34  C   UNL     1      -4.858  13.338  23.809  0.00  0.00    +0.000 C 
ATOM     35  C   UNL     1      -3.408  12.829  23.881  0.00  0.00    +0.000 C 
ENDBRANCH  29  30
ENDBRANCH   4  28
TORSDOF 7
ENDMDL
