MODEL 1
REMARK VINA RESULT:      -6.9      0.000      0.000
REMARK  Name = 
REMARK  6 active torsions:
REMARK  status: ('A' for Active; 'I' for Inactive)
REMARK    1  A    between atoms: C_1  and  C_2
REMARK    2  A    between atoms: C_2  and  N_3
REMARK    3  A    between atoms: C_7  and  S_8
REMARK    4  A    between atoms: S_8  and  C_9
REMARK    5  A    between atoms: C_9  and  C_10
REMARK    6  A    between atoms: C_12  and  C_13
REMARK                            x       y       z     vdW  Elec       q    Type
REMARK                         _______ _______ _______ _____ _____    ______ ____
ROOT
ATOM      1  C   UNL     1       3.746   5.796  18.595  0.00  0.00    +0.000 C 
ENDROOT
BRANCH   1   2
ATOM      2  C   UNL     1       4.972   5.315  17.859  0.00  0.00    +0.000 A 
ATOM      3  C   UNL     1       4.909   4.936  16.506  0.00  0.00    +0.000 A 
ATOM      4  C   UNL     1       6.058   4.483  15.838  0.00  0.00    +0.000 A 
ATOM      5  C   UNL     1       7.280   4.417  16.518  0.00  0.00    +0.000 A 
ATOM      6  C   UNL     1       7.349   4.798  17.860  0.00  0.00    +0.000 A 
ATOM      7  C   UNL     1       6.205   5.242  18.516  0.00  0.00    +0.000 A 
ATOM      8  F   UNL     1       6.299   5.596  19.804  0.00  0.00    +0.000 F 
BRANCH   4   9
ATOM      9  C   UNL     1       5.984   4.086  14.457  0.00  0.00    +0.000 C 
ATOM     10  N   UNL     1       5.925   3.769  13.341  0.00  0.00    +0.000 NA
ENDBRANCH   4   9
ENDBRANCH   1   2
BRANCH   1  11
ATOM     11  S   UNL     1       2.359   4.622  18.452  0.00  0.00    +0.000 S 
BRANCH  11  16
ATOM     12  N   UNL     1       3.244   2.860  20.363  0.00  0.00    +0.000 N 
ATOM     13  N   UNL     1       3.017   2.520  21.648  0.00  0.00    +0.000 NA
ATOM     14  N   UNL     1       2.054   3.335  22.056  0.00  0.00    +0.000 NA
ATOM     15  N   UNL     1       1.666   4.188  21.052  0.00  0.00    +0.000 NA
ATOM     16  C   UNL     1       2.408   3.882  20.013  0.00  0.00    +0.000 A 
BRANCH  12  18
ATOM     17  C   UNL     1       3.701   1.331  18.484  0.00  0.00    +0.000 C 
ATOM     18  C   UNL     1       4.270   2.178  19.610  0.00  0.00    +0.000 C 
ENDBRANCH  12  18
ENDBRANCH  11  16
ENDBRANCH   1  11
TORSDOF 5
ENDMDL
MODEL 2
REMARK VINA RESULT:      -6.6      1.994      6.456
REMARK  Name = 
REMARK  6 active torsions:
REMARK  status: ('A' for Active; 'I' for Inactive)
REMARK    1  A    between atoms: C_1  and  C_2
REMARK    2  A    between atoms: C_2  and  N_3
REMARK    3  A    between atoms: C_7  and  S_8
REMARK    4  A    between atoms: S_8  and  C_9
REMARK    5  A    between atoms: C_9  and  C_10
REMARK    6  A    between atoms: C_12  and  C_13
REMARK                            x       y       z     vdW  Elec       q    Type
REMARK                         _______ _______ _______ _____ _____    ______ ____
ROOT
ATOM      1  C   UNL     1       5.226   5.169  18.023  0.00  0.00    +0.000 C 
ENDROOT
BRANCH   1   2
ATOM      2  C   UNL     1       4.009   5.303  18.905  0.00  0.00    +0.000 A 
ATOM      3  C   UNL     1       3.615   4.264  19.767  0.00  0.00    +0.000 A 
ATOM      4  C   UNL     1       2.476   4.402  20.577  0.00  0.00    +0.000 A 
ATOM      5  C   UNL     1       1.730   5.586  20.536  0.00  0.00    +0.000 A 
ATOM      6  C   UNL     1       2.122   6.624  19.687  0.00  0.00    +0.000 A 
ATOM      7  C   UNL     1       3.249   6.477  18.885  0.00  0.00    +0.000 A 
ATOM      8  F   UNL     1       3.598   7.485  18.075  0.00  0.00    +0.000 F 
BRANCH   4   9
ATOM      9  C   UNL     1       2.072   3.331  21.448  0.00  0.00    +0.000 C 
ATOM     10  N   UNL     1       1.746   2.468  22.154  0.00  0.00    +0.000 NA
ENDBRANCH   4   9
ENDBRANCH   1   2
BRANCH   1  11
ATOM     11  S   UNL     1       4.901   4.118  16.569  0.00  0.00    +0.000 S 
BRANCH  11  16
ATOM     12  N   UNL     1       6.148   4.456  14.146  0.00  0.00    +0.000 N 
ATOM     13  N   UNL     1       7.252   5.020  13.615  0.00  0.00    +0.000 NA
ATOM     14  N   UNL     1       7.888   5.568  14.641  0.00  0.00    +0.000 NA
ATOM     15  N   UNL     1       7.206   5.363  15.816  0.00  0.00    +0.000 NA
ATOM     16  C   UNL     1       6.135   4.674  15.494  0.00  0.00    +0.000 A 
BRANCH  12  18
ATOM     17  C   UNL     1       5.861   3.127  12.089  0.00  0.00    +0.000 C 
ATOM     18  C   UNL     1       5.200   3.786  13.289  0.00  0.00    +0.000 C 
ENDBRANCH  12  18
ENDBRANCH  11  16
ENDBRANCH   1  11
TORSDOF 5
ENDMDL
MODEL 3
REMARK VINA RESULT:      -6.6      2.759      6.369
REMARK  Name = 
REMARK  6 active torsions:
REMARK  status: ('A' for Active; 'I' for Inactive)
REMARK    1  A    between atoms: C_1  and  C_2
REMARK    2  A    between atoms: C_2  and  N_3
REMARK    3  A    between atoms: C_7  and  S_8
REMARK    4  A    between atoms: S_8  and  C_9
REMARK    5  A    between atoms: C_9  and  C_10
REMARK    6  A    between atoms: C_12  and  C_13
REMARK                            x       y       z     vdW  Elec       q    Type
REMARK                         _______ _______ _______ _____ _____    ______ ____
ROOT
ATOM      1  C   UNL     1       4.077   5.625  18.569  0.00  0.00    +0.000 C 
ENDROOT
BRANCH   1   2
ATOM      2  C   UNL     1       3.269   4.367  18.773  0.00  0.00    +0.000 A 
ATOM      3  C   UNL     1       2.732   4.041  20.031  0.00  0.00    +0.000 A 
ATOM      4  C   UNL     1       1.988   2.862  20.206  0.00  0.00    +0.000 A 
ATOM      5  C   UNL     1       1.770   2.008  19.118  0.00  0.00    +0.000 A 
ATOM      6  C   UNL     1       2.296   2.331  17.865  0.00  0.00    +0.000 A 
ATOM      7  C   UNL     1       3.035   3.499  17.702  0.00  0.00    +0.000 A 
ATOM      8  F   UNL     1       3.533   3.780  16.491  0.00  0.00    +0.000 F 
BRANCH   4   9
ATOM      9  C   UNL     1       1.451   2.530  21.498  0.00  0.00    +0.000 C 
ATOM     10  N   UNL     1       1.017   2.264  22.542  0.00  0.00    +0.000 NA
ENDBRANCH   4   9
ENDBRANCH   1   2
BRANCH   1  11
ATOM     11  S   UNL     1       5.816   5.408  19.071  0.00  0.00    +0.000 S 
BRANCH  11  16
ATOM     12  N   UNL     1       7.097   6.411  16.858  0.00  0.00    +0.000 N 
ATOM     13  N   UNL     1       7.617   6.001  15.683  0.00  0.00    +0.000 NA
ATOM     14  N   UNL     1       7.413   4.691  15.653  0.00  0.00    +0.000 NA
ATOM     15  N   UNL     1       6.774   4.261  16.791  0.00  0.00    +0.000 NA
ATOM     16  C   UNL     1       6.584   5.334  17.524  0.00  0.00    +0.000 A 
BRANCH  12  18
ATOM     17  C   UNL     1       8.282   8.077  18.235  0.00  0.00    +0.000 C 
ATOM     18  C   UNL     1       7.175   7.802  17.232  0.00  0.00    +0.000 C 
ENDBRANCH  12  18
ENDBRANCH  11  16
ENDBRANCH   1  11
TORSDOF 5
ENDMDL
MODEL 4
REMARK VINA RESULT:      -6.6      2.580      6.584
REMARK  Name = 
REMARK  6 active torsions:
REMARK  status: ('A' for Active; 'I' for Inactive)
REMARK    1  A    between atoms: C_1  and  C_2
REMARK    2  A    between atoms: C_2  and  N_3
REMARK    3  A    between atoms: C_7  and  S_8
REMARK    4  A    between atoms: S_8  and  C_9
REMARK    5  A    between atoms: C_9  and  C_10
REMARK    6  A    between atoms: C_12  and  C_13
REMARK                            x       y       z     vdW  Elec       q    Type
REMARK                         _______ _______ _______ _____ _____    ______ ____
ROOT
ATOM      1  C   UNL     1       5.698   5.106  16.545  0.00  0.00    +0.000 C 
ENDROOT
BRANCH   1   2
ATOM      2  C   UNL     1       4.364   5.182  17.246  0.00  0.00    +0.000 A 
ATOM      3  C   UNL     1       3.606   4.024  17.498  0.00  0.00    +0.000 A 
ATOM      4  C   UNL     1       2.362   4.112  18.145  0.00  0.00    +0.000 A 
ATOM      5  C   UNL     1       1.876   5.360  18.553  0.00  0.00    +0.000 A 
ATOM      6  C   UNL     1       2.628   6.512  18.311  0.00  0.00    +0.000 A 
ATOM      7  C   UNL     1       3.857   6.416  17.666  0.00  0.00    +0.000 A 
ATOM      8  F   UNL     1       4.555   7.537  17.441  0.00  0.00    +0.000 F 
BRANCH   4   9
ATOM      9  C   UNL     1       1.587   2.926  18.389  0.00  0.00    +0.000 C 
ATOM     10  N   UNL     1       0.962   1.966  18.584  0.00  0.00    +0.000 NA
ENDBRANCH   4   9
ENDBRANCH   1   2
BRANCH   1  11
ATOM     11  S   UNL     1       5.796   3.679  15.416  0.00  0.00    +0.000 S 
BRANCH  11  16
ATOM     12  N   UNL     1       6.653   3.932  12.819  0.00  0.00    +0.000 N 
ATOM     13  N   UNL     1       7.482   4.684  12.067  0.00  0.00    +0.000 NA
ATOM     14  N   UNL     1       8.015   5.559  12.909  0.00  0.00    +0.000 NA
ATOM     15  N   UNL     1       7.538   5.376  14.184  0.00  0.00    +0.000 NA
ATOM     16  C   UNL     1       6.700   4.367  14.113  0.00  0.00    +0.000 A 
BRANCH  12  18
ATOM     17  C   UNL     1       4.521   3.368  11.716  0.00  0.00    +0.000 C 
ATOM     18  C   UNL     1       5.877   2.883  12.204  0.00  0.00    +0.000 C 
ENDBRANCH  12  18
ENDBRANCH  11  16
ENDBRANCH   1  11
TORSDOF 5
ENDMDL
MODEL 5
REMARK VINA RESULT:      -6.6      2.130      6.291
REMARK  Name = 
REMARK  6 active torsions:
REMARK  status: ('A' for Active; 'I' for Inactive)
REMARK    1  A    between atoms: C_1  and  C_2
REMARK    2  A    between atoms: C_2  and  N_3
REMARK    3  A    between atoms: C_7  and  S_8
REMARK    4  A    between atoms: S_8  and  C_9
REMARK    5  A    between atoms: C_9  and  C_10
REMARK    6  A    between atoms: C_12  and  C_13
REMARK                            x       y       z     vdW  Elec       q    Type
REMARK                         _______ _______ _______ _____ _____    ______ ____
ROOT
ATOM      1  C   UNL     1       3.919   5.916  17.400  0.00  0.00    +0.000 C 
ENDROOT
BRANCH   1   2
ATOM      2  C   UNL     1       3.100   5.939  18.667  0.00  0.00    +0.000 A 
ATOM      3  C   UNL     1       2.928   4.780  19.446  0.00  0.00    +0.000 A 
ATOM      4  C   UNL     1       2.157   4.817  20.619  0.00  0.00    +0.000 A 
ATOM      5  C   UNL     1       1.561   6.017  21.025  0.00  0.00    +0.000 A 
ATOM      6  C   UNL     1       1.734   7.172  20.259  0.00  0.00    +0.000 A 
ATOM      7  C   UNL     1       2.497   7.126  19.096  0.00  0.00    +0.000 A 
ATOM      8  F   UNL     1       2.641   8.247  18.376  0.00  0.00    +0.000 F 
BRANCH   4   9
ATOM      9  C   UNL     1       1.976   3.626  21.405  0.00  0.00    +0.000 C 
ATOM     10  N   UNL     1       1.828   2.665  22.041  0.00  0.00    +0.000 NA
ENDBRANCH   4   9
ENDBRANCH   1   2
BRANCH   1  11
ATOM     11  S   UNL     1       4.374   4.220  16.913  0.00  0.00    +0.000 S 
BRANCH  11  16
ATOM     12  N   UNL     1       6.908   4.974  16.169  0.00  0.00    +0.000 N 
ATOM     13  N   UNL     1       7.663   5.130  15.063  0.00  0.00    +0.000 NA
ATOM     14  N   UNL     1       6.871   4.794  14.054  0.00  0.00    +0.000 NA
ATOM     15  N   UNL     1       5.626   4.425  14.500  0.00  0.00    +0.000 NA
ATOM     16  C   UNL     1       5.663   4.543  15.808  0.00  0.00    +0.000 A 
BRANCH  12  18
ATOM     17  C   UNL     1       7.532   6.712  17.802  0.00  0.00    +0.000 C 
ATOM     18  C   UNL     1       7.477   5.230  17.470  0.00  0.00    +0.000 C 
ENDBRANCH  12  18
ENDBRANCH  11  16
ENDBRANCH   1  11
TORSDOF 5
ENDMDL
MODEL 6
REMARK VINA RESULT:      -6.6      2.706      5.768
REMARK  Name = 
REMARK  6 active torsions:
REMARK  status: ('A' for Active; 'I' for Inactive)
REMARK    1  A    between atoms: C_1  and  C_2
REMARK    2  A    between atoms: C_2  and  N_3
REMARK    3  A    between atoms: C_7  and  S_8
REMARK    4  A    between atoms: S_8  and  C_9
REMARK    5  A    between atoms: C_9  and  C_10
REMARK    6  A    between atoms: C_12  and  C_13
REMARK                            x       y       z     vdW  Elec       q    Type
REMARK                         _______ _______ _______ _____ _____    ______ ____
ROOT
ATOM      1  C   UNL     1       3.097   6.033  17.633  0.00  0.00    +0.000 C 
ENDROOT
BRANCH   1   2
ATOM      2  C   UNL     1       2.834   4.662  18.205  0.00  0.00    +0.000 A 
ATOM      3  C   UNL     1       3.770   4.028  19.041  0.00  0.00    +0.000 A 
ATOM      4  C   UNL     1       3.513   2.748  19.559  0.00  0.00    +0.000 A 
ATOM      5  C   UNL     1       2.311   2.099  19.250  0.00  0.00    +0.000 A 
ATOM      6  C   UNL     1       1.375   2.728  18.426  0.00  0.00    +0.000 A 
ATOM      7  C   UNL     1       1.640   3.994  17.914  0.00  0.00    +0.000 A 
ATOM      8  F   UNL     1       0.727   4.571  17.120  0.00  0.00    +0.000 F 
BRANCH   4   9
ATOM      9  C   UNL     1       4.480   2.101  20.405  0.00  0.00    +0.000 C 
ATOM     10  N   UNL     1       5.258   1.576  21.088  0.00  0.00    +0.000 NA
ENDBRANCH   4   9
ENDBRANCH   1   2
BRANCH   1  11
ATOM     11  S   UNL     1       4.745   6.660  18.096  0.00  0.00    +0.000 S 
BRANCH  11  16
ATOM     12  N   UNL     1       6.782   5.309  16.843  0.00  0.00    +0.000 N 
ATOM     13  N   UNL     1       7.271   5.081  15.607  0.00  0.00    +0.000 NA
ATOM     14  N   UNL     1       6.467   5.744  14.789  0.00  0.00    +0.000 NA
ATOM     15  N   UNL     1       5.473   6.390  15.483  0.00  0.00    +0.000 NA
ATOM     16  C   UNL     1       5.681   6.113  16.750  0.00  0.00    +0.000 A 
BRANCH  12  18
ATOM     17  C   UNL     1       7.992   5.727  18.949  0.00  0.00    +0.000 C 
ATOM     18  C   UNL     1       7.413   4.701  17.990  0.00  0.00    +0.000 C 
ENDBRANCH  12  18
ENDBRANCH  11  16
ENDBRANCH   1  11
TORSDOF 5
ENDMDL
MODEL 7
REMARK VINA RESULT:      -6.6      3.394      6.066
REMARK  Name = 
REMARK  6 active torsions:
REMARK  status: ('A' for Active; 'I' for Inactive)
REMARK    1  A    between atoms: C_1  and  C_2
REMARK    2  A    between atoms: C_2  and  N_3
REMARK    3  A    between atoms: C_7  and  S_8
REMARK    4  A    between atoms: S_8  and  C_9
REMARK    5  A    between atoms: C_9  and  C_10
REMARK    6  A    between atoms: C_12  and  C_13
REMARK                            x       y       z     vdW  Elec       q    Type
REMARK                         _______ _______ _______ _____ _____    ______ ____
ROOT
ATOM      1  C   UNL     1       4.155   3.873  17.519  0.00  0.00    +0.000 C 
ENDROOT
BRANCH   1   2
ATOM      2  C   UNL     1       3.064   4.043  18.547  0.00  0.00    +0.000 A 
ATOM      3  C   UNL     1       2.783   5.300  19.112  0.00  0.00    +0.000 A 
ATOM      4  C   UNL     1       1.770   5.440  20.074  0.00  0.00    +0.000 A 
ATOM      5  C   UNL     1       1.024   4.323  20.468  0.00  0.00    +0.000 A 
ATOM      6  C   UNL     1       1.294   3.074  19.906  0.00  0.00    +0.000 A 
ATOM      7  C   UNL     1       2.303   2.943  18.956  0.00  0.00    +0.000 A 
ATOM      8  F   UNL     1       2.546   1.732  18.438  0.00  0.00    +0.000 F 
BRANCH   4   9
ATOM      9  C   UNL     1       1.496   6.727  20.655  0.00  0.00    +0.000 C 
ATOM     10  N   UNL     1       1.277   7.766  21.126  0.00  0.00    +0.000 NA
ENDBRANCH   4   9
ENDBRANCH   1   2
BRANCH   1  11
ATOM     11  S   UNL     1       4.921   5.464  17.067  0.00  0.00    +0.000 S 
BRANCH  11  16
ATOM     12  N   UNL     1       7.269   6.390  18.150  0.00  0.00    +0.000 N 
ATOM     13  N   UNL     1       8.081   6.178  19.205  0.00  0.00    +0.000 NA
ATOM     14  N   UNL     1       7.503   5.206  19.897  0.00  0.00    +0.000 NA
ATOM     15  N   UNL     1       6.335   4.798  19.300  0.00  0.00    +0.000 NA
ATOM     16  C   UNL     1       6.205   5.536  18.222  0.00  0.00    +0.000 A 
BRANCH  12  18
ATOM     17  C   UNL     1       7.967   8.735  17.849  0.00  0.00    +0.000 C 
ATOM     18  C   UNL     1       7.590   7.419  17.190  0.00  0.00    +0.000 C 
ENDBRANCH  12  18
ENDBRANCH  11  16
ENDBRANCH   1  11
TORSDOF 5
ENDMDL
MODEL 8
REMARK VINA RESULT:      -6.6      1.404      2.148
REMARK  Name = 
REMARK  6 active torsions:
REMARK  status: ('A' for Active; 'I' for Inactive)
REMARK    1  A    between atoms: C_1  and  C_2
REMARK    2  A    between atoms: C_2  and  N_3
REMARK    3  A    between atoms: C_7  and  S_8
REMARK    4  A    between atoms: S_8  and  C_9
REMARK    5  A    between atoms: C_9  and  C_10
REMARK    6  A    between atoms: C_12  and  C_13
REMARK                            x       y       z     vdW  Elec       q    Type
REMARK                         _______ _______ _______ _____ _____    ______ ____
ROOT
ATOM      1  C   UNL     1       3.155   4.498  17.670  0.00  0.00    +0.000 C 
ENDROOT
BRANCH   1   2
ATOM      2  C   UNL     1       4.575   4.946  17.425  0.00  0.00    +0.000 A 
ATOM      3  C   UNL     1       5.148   4.883  16.142  0.00  0.00    +0.000 A 
ATOM      4  C   UNL     1       6.474   5.296  15.932  0.00  0.00    +0.000 A 
ATOM      5  C   UNL     1       7.230   5.785  17.004  0.00  0.00    +0.000 A 
ATOM      6  C   UNL     1       6.663   5.856  18.278  0.00  0.00    +0.000 A 
ATOM      7  C   UNL     1       5.350   5.440  18.479  0.00  0.00    +0.000 A 
ATOM      8  F   UNL     1       4.834   5.513  19.713  0.00  0.00    +0.000 F 
BRANCH   4   9
ATOM      9  C   UNL     1       7.057   5.219  14.620  0.00  0.00    +0.000 C 
ATOM     10  N   UNL     1       7.527   5.154  13.559  0.00  0.00    +0.000 NA
ENDBRANCH   4   9
ENDBRANCH   1   2
BRANCH   1  11
ATOM     11  S   UNL     1       3.018   2.683  17.761  0.00  0.00    +0.000 S 
BRANCH  11  16
ATOM     12  N   UNL     1       2.747   2.518  20.489  0.00  0.00    +0.000 N 
ATOM     13  N   UNL     1       3.474   2.240  21.590  0.00  0.00    +0.000 NA
ATOM     14  N   UNL     1       4.691   1.965  21.142  0.00  0.00    +0.000 NA
ATOM     15  N   UNL     1       4.750   2.063  19.773  0.00  0.00    +0.000 NA
ATOM     16  C   UNL     1       3.543   2.406  19.384  0.00  0.00    +0.000 A 
BRANCH  12  18
ATOM     17  C   UNL     1       1.082   4.333  20.588  0.00  0.00    +0.000 C 
ATOM     18  C   UNL     1       1.345   2.837  20.614  0.00  0.00    +0.000 C 
ENDBRANCH  12  18
ENDBRANCH  11  16
ENDBRANCH   1  11
TORSDOF 5
ENDMDL
MODEL 9
REMARK VINA RESULT:      -6.5      3.084      6.404
REMARK  Name = 
REMARK  6 active torsions:
REMARK  status: ('A' for Active; 'I' for Inactive)
REMARK    1  A    between atoms: C_1  and  C_2
REMARK    2  A    between atoms: C_2  and  N_3
REMARK    3  A    between atoms: C_7  and  S_8
REMARK    4  A    between atoms: S_8  and  C_9
REMARK    5  A    between atoms: C_9  and  C_10
REMARK    6  A    between atoms: C_12  and  C_13
REMARK                            x       y       z     vdW  Elec       q    Type
REMARK                         _______ _______ _______ _____ _____    ______ ____
ROOT
ATOM      1  C   UNL     1       4.806   3.867  18.363  0.00  0.00    +0.000 C 
ENDROOT
BRANCH   1   2
ATOM      2  C   UNL     1       3.539   4.156  19.129  0.00  0.00    +0.000 A 
ATOM      3  C   UNL     1       3.203   5.466  19.517  0.00  0.00    +0.000 A 
ATOM      4  C   UNL     1       2.024   5.717  20.237  0.00  0.00    +0.000 A 
ATOM      5  C   UNL     1       1.168   4.659  20.564  0.00  0.00    +0.000 A 
ATOM      6  C   UNL     1       1.493   3.357  20.175  0.00  0.00    +0.000 A 
ATOM      7  C   UNL     1       2.666   3.117  19.466  0.00  0.00    +0.000 A 
ATOM      8  F   UNL     1       2.956   1.858  19.111  0.00  0.00    +0.000 F 
BRANCH   4   9
ATOM      9  C   UNL     1       1.692   7.057  20.640  0.00  0.00    +0.000 C 
ATOM     10  N   UNL     1       1.424   8.141  20.961  0.00  0.00    +0.000 NA
ENDBRANCH   4   9
ENDBRANCH   1   2
BRANCH   1  11
ATOM     11  S   UNL     1       4.523   3.843  16.562  0.00  0.00    +0.000 S 
BRANCH  11  16
ATOM     12  N   UNL     1       6.491   4.572  14.791  0.00  0.00    +0.000 N 
ATOM     13  N   UNL     1       7.540   5.413  14.692  0.00  0.00    +0.000 NA
ATOM     14  N   UNL     1       7.571   6.065  15.846  0.00  0.00    +0.000 NA
ATOM     15  N   UNL     1       6.558   5.653  16.677  0.00  0.00    +0.000 NA
ATOM     16  C   UNL     1       5.901   4.730  16.013  0.00  0.00    +0.000 A 
BRANCH  12  18
ATOM     17  C   UNL     1       6.863   4.110  12.398  0.00  0.00    +0.000 C 
ATOM     18  C   UNL     1       6.147   3.717  13.680  0.00  0.00    +0.000 C 
ENDBRANCH  12  18
ENDBRANCH  11  16
ENDBRANCH   1  11
TORSDOF 5
ENDMDL
