MODEL 1
REMARK VINA RESULT:      -8.2      0.000      0.000
REMARK  Name = 
REMARK  6 active torsions:
REMARK  status: ('A' for Active; 'I' for Inactive)
REMARK    1  A    between atoms: C_1  and  C_2
REMARK    2  A    between atoms: C_4  and  C_5
REMARK    3  A    between atoms: N_7  and  C_8
REMARK    4  A    between atoms: C_15  and  C_16
REMARK    5  A    between atoms: C_16  and  C_17
REMARK    6  A    between atoms: C_20  and  C_21
REMARK                            x       y       z     vdW  Elec       q    Type
REMARK                         _______ _______ _______ _____ _____    ______ ____
ROOT
ATOM      1  C   UNL     1       8.318   5.238  19.745  0.00  0.00    +0.000 C 
ATOM      2  C   UNL     1       7.976   6.317  18.780  0.00  0.00    +0.000 A 
ATOM      3  N   UNL     1       8.477   7.580  18.978  0.00  0.00    +0.000 N 
ATOM      4  C   UNL     1       8.045   8.452  18.009  0.00  0.00    +0.000 A 
ATOM      5  C   UNL     1       7.246   7.711  17.156  0.00  0.00    +0.000 A 
ATOM      6  C   UNL     1       7.187   6.355  17.637  0.00  0.00    +0.000 A 
ATOM      7  H   UNL     1       9.081   7.864  19.738  0.00  0.00    +0.000 HD
ENDROOT
BRANCH   4   8
ATOM      8  C   UNL     1       8.463   9.840  18.046  0.00  0.00    +0.000 C 
ATOM      9  O   UNL     1       7.923  10.692  17.346  0.00  0.00    +0.000 OA
ATOM     10  N   UNL     1       9.498  10.145  18.902  0.00  0.00    +0.000 N 
ATOM     11  H   UNL     1      10.002   9.382  19.331  0.00  0.00    +0.000 HD
BRANCH  10  12
ATOM     12  C   UNL     1      10.058  11.492  18.987  0.00  0.00    +0.000 C 
ATOM     13  C   UNL     1      11.302  11.625  18.105  0.00  0.00    +0.000 C 
ATOM     14  C   UNL     1      11.983  12.968  18.327  0.00  0.00    +0.000 C 
ATOM     15  O   UNL     1      12.286  13.156  19.709  0.00  0.00    +0.000 OA
ATOM     16  C   UNL     1      11.109  13.190  20.513  0.00  0.00    +0.000 C 
ATOM     17  C   UNL     1      10.376  11.857  20.439  0.00  0.00    +0.000 C 
ENDBRANCH  10  12
ENDBRANCH   4   8
BRANCH   6  18
ATOM     18  C   UNL     1       6.357   5.252  17.031  0.00  0.00    +0.000 C 
BRANCH  18  19
ATOM     19  C   UNL     1       5.121   5.092  17.873  0.00  0.00    +0.000 A 
ATOM     20  C   UNL     1       3.971   5.849  17.640  0.00  0.00    +0.000 A 
ATOM     21  C   UNL     1       2.850   5.690  18.455  0.00  0.00    +0.000 A 
ATOM     22  C   UNL     1       2.886   4.763  19.498  0.00  0.00    +0.000 A 
ATOM     23  N   UNL     1       3.983   3.981  19.712  0.00  0.00    +0.000 NA
ATOM     24  C   UNL     1       5.060   4.165  18.908  0.00  0.00    +0.000 A 
BRANCH  22  25
ATOM     25  C   UNL     1       1.689   4.633  20.433  0.00  0.00    +0.000 C 
ATOM     26  F   UNL     1       0.633   3.966  19.871  0.00  0.00    +0.000 F 
ATOM     27  F   UNL     1       1.970   3.953  21.581  0.00  0.00    +0.000 F 
ATOM     28  F   UNL     1       1.182   5.838  20.824  0.00  0.00    +0.000 F 
ENDBRANCH  22  25
ENDBRANCH  18  19
ENDBRANCH   6  18
TORSDOF 5
ENDMDL
MODEL 2
REMARK VINA RESULT:      -8.1      1.528      2.018
REMARK  Name = 
REMARK  6 active torsions:
REMARK  status: ('A' for Active; 'I' for Inactive)
REMARK    1  A    between atoms: C_1  and  C_2
REMARK    2  A    between atoms: C_4  and  C_5
REMARK    3  A    between atoms: N_7  and  C_8
REMARK    4  A    between atoms: C_15  and  C_16
REMARK    5  A    between atoms: C_16  and  C_17
REMARK    6  A    between atoms: C_20  and  C_21
REMARK                            x       y       z     vdW  Elec       q    Type
REMARK                         _______ _______ _______ _____ _____    ______ ____
ROOT
ATOM      1  C   UNL     1       8.025   5.238  18.982  0.00  0.00    +0.000 C 
ATOM      2  C   UNL     1       7.873   6.614  18.440  0.00  0.00    +0.000 A 
ATOM      3  N   UNL     1       8.605   7.638  18.988  0.00  0.00    +0.000 N 
ATOM      4  C   UNL     1       8.325   8.839  18.385  0.00  0.00    +0.000 A 
ATOM      5  C   UNL     1       7.384   8.566  17.407  0.00  0.00    +0.000 A 
ATOM      6  C   UNL     1       7.081   7.159  17.435  0.00  0.00    +0.000 A 
ATOM      7  H   UNL     1       9.267   7.550  19.749  0.00  0.00    +0.000 HD
ENDROOT
BRANCH   4   8
ATOM      8  C   UNL     1       8.997  10.046  18.827  0.00  0.00    +0.000 C 
ATOM      9  O   UNL     1       9.299  10.218  20.005  0.00  0.00    +0.000 OA
ATOM     10  N   UNL     1       9.270  10.984  17.856  0.00  0.00    +0.000 N 
ATOM     11  H   UNL     1       8.861  10.858  16.942  0.00  0.00    +0.000 HD
BRANCH  10  12
ATOM     12  C   UNL     1       9.885  12.271  18.178  0.00  0.00    +0.000 C 
ATOM     13  C   UNL     1       8.852  13.400  18.127  0.00  0.00    +0.000 C 
ATOM     14  C   UNL     1       9.524  14.756  18.290  0.00  0.00    +0.000 C 
ATOM     15  O   UNL     1      10.552  14.928  17.315  0.00  0.00    +0.000 OA
ATOM     16  C   UNL     1      11.596  13.968  17.465  0.00  0.00    +0.000 C 
ATOM     17  C   UNL     1      11.059  12.561  17.240  0.00  0.00    +0.000 C 
ENDBRANCH  10  12
ENDBRANCH   4   8
BRANCH   6  18
ATOM     18  C   UNL     1       6.048   6.473  16.579  0.00  0.00    +0.000 C 
BRANCH  18  19
ATOM     19  C   UNL     1       4.973   5.947  17.489  0.00  0.00    +0.000 A 
ATOM     20  C   UNL     1       4.817   4.579  17.726  0.00  0.00    +0.000 A 
ATOM     21  C   UNL     1       3.793   4.125  18.559  0.00  0.00    +0.000 A 
ATOM     22  C   UNL     1       2.936   5.048  19.158  0.00  0.00    +0.000 A 
ATOM     23  N   UNL     1       3.101   6.390  18.976  0.00  0.00    +0.000 NA
ATOM     24  C   UNL     1       4.099   6.800  18.155  0.00  0.00    +0.000 A 
BRANCH  22  25
ATOM     25  C   UNL     1       1.775   4.554  20.015  0.00  0.00    +0.000 C 
ATOM     26  F   UNL     1       2.158   3.663  20.982  0.00  0.00    +0.000 F 
ATOM     27  F   UNL     1       1.132   5.553  20.685  0.00  0.00    +0.000 F 
ATOM     28  F   UNL     1       0.815   3.907  19.293  0.00  0.00    +0.000 F 
ENDBRANCH  22  25
ENDBRANCH  18  19
ENDBRANCH   6  18
TORSDOF 5
ENDMDL
MODEL 3
REMARK VINA RESULT:      -8.0      6.000      8.511
REMARK  Name = 
REMARK  6 active torsions:
REMARK  status: ('A' for Active; 'I' for Inactive)
REMARK    1  A    between atoms: C_1  and  C_2
REMARK    2  A    between atoms: C_4  and  C_5
REMARK    3  A    between atoms: N_7  and  C_8
REMARK    4  A    between atoms: C_15  and  C_16
REMARK    5  A    between atoms: C_16  and  C_17
REMARK    6  A    between atoms: C_20  and  C_21
REMARK                            x       y       z     vdW  Elec       q    Type
REMARK                         _______ _______ _______ _____ _____    ______ ____
ROOT
ATOM      1  C   UNL     1       0.510   9.156  21.488  0.00  0.00    +0.000 C 
ATOM      2  C   UNL     1       1.179   8.895  20.185  0.00  0.00    +0.000 A 
ATOM      3  N   UNL     1       1.835   7.705  19.992  0.00  0.00    +0.000 N 
ATOM      4  C   UNL     1       2.411   7.641  18.747  0.00  0.00    +0.000 A 
ATOM      5  C   UNL     1       2.099   8.835  18.120  0.00  0.00    +0.000 A 
ATOM      6  C   UNL     1       1.324   9.644  19.023  0.00  0.00    +0.000 A 
ATOM      7  H   UNL     1       1.911   6.955  20.668  0.00  0.00    +0.000 HD
ENDROOT
BRANCH   4   8
ATOM      8  C   UNL     1       3.155   6.460  18.353  0.00  0.00    +0.000 C 
ATOM      9  O   UNL     1       2.886   5.351  18.806  0.00  0.00    +0.000 OA
ATOM     10  N   UNL     1       4.178   6.655  17.451  0.00  0.00    +0.000 N 
ATOM     11  H   UNL     1       4.451   7.603  17.237  0.00  0.00    +0.000 HD
BRANCH  10  12
ATOM     12  C   UNL     1       5.046   5.560  17.021  0.00  0.00    +0.000 C 
ATOM     13  C   UNL     1       6.343   5.538  17.833  0.00  0.00    +0.000 C 
ATOM     14  C   UNL     1       7.317   4.513  17.270  0.00  0.00    +0.000 C 
ATOM     15  O   UNL     1       7.558   4.755  15.885  0.00  0.00    +0.000 OA
ATOM     16  C   UNL     1       6.372   4.619  15.105  0.00  0.00    +0.000 C 
ATOM     17  C   UNL     1       5.340   5.658  15.522  0.00  0.00    +0.000 C 
ENDBRANCH  10  12
ENDBRANCH   4   8
BRANCH   6  18
ATOM     18  C   UNL     1       0.853  11.049  18.747  0.00  0.00    +0.000 C 
BRANCH  18  19
ATOM     19  C   UNL     1      -0.641  11.007  18.570  0.00  0.00    +0.000 A 
ATOM     20  C   UNL     1      -1.257  10.050  17.761  0.00  0.00    +0.000 A 
ATOM     21  C   UNL     1      -2.643  10.054  17.602  0.00  0.00    +0.000 A 
ATOM     22  C   UNL     1      -3.406  11.016  18.265  0.00  0.00    +0.000 A 
ATOM     23  N   UNL     1      -2.828  11.929  19.096  0.00  0.00    +0.000 NA
ATOM     24  C   UNL     1      -1.478  11.905  19.224  0.00  0.00    +0.000 A 
BRANCH  22  25
ATOM     25  C   UNL     1      -4.914  11.068  18.042  0.00  0.00    +0.000 C 
ATOM     26  F   UNL     1      -5.530  12.071  18.742  0.00  0.00    +0.000 F 
ATOM     27  F   UNL     1      -5.263  11.275  16.740  0.00  0.00    +0.000 F 
ATOM     28  F   UNL     1      -5.551   9.923  18.425  0.00  0.00    +0.000 F 
ENDBRANCH  22  25
ENDBRANCH  18  19
ENDBRANCH   6  18
TORSDOF 5
ENDMDL
MODEL 4
REMARK VINA RESULT:      -7.8      1.722      2.261
REMARK  Name = 
REMARK  6 active torsions:
REMARK  status: ('A' for Active; 'I' for Inactive)
REMARK    1  A    between atoms: C_1  and  C_2
REMARK    2  A    between atoms: C_4  and  C_5
REMARK    3  A    between atoms: N_7  and  C_8
REMARK    4  A    between atoms: C_15  and  C_16
REMARK    5  A    between atoms: C_16  and  C_17
REMARK    6  A    between atoms: C_20  and  C_21
REMARK                            x       y       z     vdW  Elec       q    Type
REMARK                         _______ _______ _______ _____ _____    ______ ____
ROOT
ATOM      1  C   UNL     1       4.949   6.956  16.006  0.00  0.00    +0.000 C 
ATOM      2  C   UNL     1       6.140   6.968  16.897  0.00  0.00    +0.000 A 
ATOM      3  N   UNL     1       6.705   8.168  17.248  0.00  0.00    +0.000 N 
ATOM      4  C   UNL     1       7.804   7.994  18.052  0.00  0.00    +0.000 A 
ATOM      5  C   UNL     1       7.937   6.628  18.227  0.00  0.00    +0.000 A 
ATOM      6  C   UNL     1       6.892   5.962  17.493  0.00  0.00    +0.000 A 
ATOM      7  H   UNL     1       6.380   9.083  16.958  0.00  0.00    +0.000 HD
ENDROOT
BRANCH   4   8
ATOM      8  C   UNL     1       8.543   9.148  18.529  0.00  0.00    +0.000 C 
ATOM      9  O   UNL     1       9.122   9.137  19.612  0.00  0.00    +0.000 OA
ATOM     10  N   UNL     1       8.554  10.250  17.704  0.00  0.00    +0.000 N 
ATOM     11  H   UNL     1       7.936  10.255  16.906  0.00  0.00    +0.000 HD
BRANCH  10  12
ATOM     12  C   UNL     1       9.208  11.499  18.093  0.00  0.00    +0.000 C 
ATOM     13  C   UNL     1       8.432  12.710  17.568  0.00  0.00    +0.000 C 
ATOM     14  C   UNL     1       9.201  13.998  17.822  0.00  0.00    +0.000 C 
ATOM     15  O   UNL     1      10.512  13.919  17.262  0.00  0.00    +0.000 OA
ATOM     16  C   UNL     1      11.289  12.888  17.865  0.00  0.00    +0.000 C 
ATOM     17  C   UNL     1      10.658  11.526  17.606  0.00  0.00    +0.000 C 
ENDBRANCH  10  12
ENDBRANCH   4   8
BRANCH   6  18
ATOM     18  C   UNL     1       6.734   4.469  17.364  0.00  0.00    +0.000 C 
BRANCH  18  19
ATOM     19  C   UNL     1       5.369   4.105  17.879  0.00  0.00    +0.000 A 
ATOM     20  C   UNL     1       4.376   3.602  17.035  0.00  0.00    +0.000 A 
ATOM     21  C   UNL     1       3.113   3.296  17.544  0.00  0.00    +0.000 A 
ATOM     22  C   UNL     1       2.855   3.489  18.901  0.00  0.00    +0.000 A 
ATOM     23  N   UNL     1       3.825   3.935  19.750  0.00  0.00    +0.000 NA
ATOM     24  C   UNL     1       5.040   4.232  19.225  0.00  0.00    +0.000 A 
BRANCH  22  25
ATOM     25  C   UNL     1       1.458   3.221  19.450  0.00  0.00    +0.000 C 
ATOM     26  F   UNL     1       0.567   2.822  18.489  0.00  0.00    +0.000 F 
ATOM     27  F   UNL     1       1.426   2.238  20.395  0.00  0.00    +0.000 F 
ATOM     28  F   UNL     1       0.890   4.319  20.028  0.00  0.00    +0.000 F 
ENDBRANCH  22  25
ENDBRANCH  18  19
ENDBRANCH   6  18
TORSDOF 5
ENDMDL
MODEL 5
REMARK VINA RESULT:      -7.8      1.704      2.426
REMARK  Name = 
REMARK  6 active torsions:
REMARK  status: ('A' for Active; 'I' for Inactive)
REMARK    1  A    between atoms: C_1  and  C_2
REMARK    2  A    between atoms: C_4  and  C_5
REMARK    3  A    between atoms: N_7  and  C_8
REMARK    4  A    between atoms: C_15  and  C_16
REMARK    5  A    between atoms: C_16  and  C_17
REMARK    6  A    between atoms: C_20  and  C_21
REMARK                            x       y       z     vdW  Elec       q    Type
REMARK                         _______ _______ _______ _____ _____    ______ ____
ROOT
ATOM      1  C   UNL     1       5.773   7.047  15.976  0.00  0.00    +0.000 C 
ATOM      2  C   UNL     1       6.780   7.199  17.060  0.00  0.00    +0.000 A 
ATOM      3  N   UNL     1       7.282   8.445  17.341  0.00  0.00    +0.000 N 
ATOM      4  C   UNL     1       8.213   8.400  18.350  0.00  0.00    +0.000 A 
ATOM      5  C   UNL     1       8.298   7.072  18.731  0.00  0.00    +0.000 A 
ATOM      6  C   UNL     1       7.401   6.297  17.916  0.00  0.00    +0.000 A 
ATOM      7  H   UNL     1       7.025   9.306  16.874  0.00  0.00    +0.000 HD
ENDROOT
BRANCH   4   8
ATOM      8  C   UNL     1       8.863   9.619  18.792  0.00  0.00    +0.000 C 
ATOM      9  O   UNL     1       9.020   9.867  19.984  0.00  0.00    +0.000 OA
ATOM     10  N   UNL     1       9.287  10.478  17.802  0.00  0.00    +0.000 N 
ATOM     11  H   UNL     1       8.993  10.297  16.854  0.00  0.00    +0.000 HD
BRANCH  10  12
ATOM     12  C   UNL     1       9.899  11.769  18.112  0.00  0.00    +0.000 C 
ATOM     13  C   UNL     1       9.001  12.924  17.659  0.00  0.00    +0.000 C 
ATOM     14  C   UNL     1       9.712  14.259  17.822  0.00  0.00    +0.000 C 
ATOM     15  O   UNL     1      10.961  14.252  17.132  0.00  0.00    +0.000 OA
ATOM     16  C   UNL     1      11.858  13.278  17.663  0.00  0.00    +0.000 C 
ATOM     17  C   UNL     1      11.288  11.877  17.480  0.00  0.00    +0.000 C 
ENDBRANCH  10  12
ENDBRANCH   4   8
BRANCH   6  18
ATOM     18  C   UNL     1       7.255   4.797  17.965  0.00  0.00    +0.000 C 
BRANCH  18  19
ATOM     19  C   UNL     1       5.788   4.481  18.063  0.00  0.00    +0.000 A 
ATOM     20  C   UNL     1       5.116   3.795  17.048  0.00  0.00    +0.000 A 
ATOM     21  C   UNL     1       3.749   3.539  17.162  0.00  0.00    +0.000 A 
ATOM     22  C   UNL     1       3.063   3.965  18.300  0.00  0.00    +0.000 A 
ATOM     23  N   UNL     1       3.711   4.595  19.322  0.00  0.00    +0.000 NA
ATOM     24  C   UNL     1       5.038   4.837  19.179  0.00  0.00    +0.000 A 
BRANCH  22  25
ATOM     25  C   UNL     1       1.557   3.747  18.400  0.00  0.00    +0.000 C 
ATOM     26  F   UNL     1       1.027   4.176  19.587  0.00  0.00    +0.000 F 
ATOM     27  F   UNL     1       0.850   4.403  17.435  0.00  0.00    +0.000 F 
ATOM     28  F   UNL     1       1.200   2.434  18.302  0.00  0.00    +0.000 F 
ENDBRANCH  22  25
ENDBRANCH  18  19
ENDBRANCH   6  18
TORSDOF 5
ENDMDL
MODEL 6
REMARK VINA RESULT:      -7.8      1.109      1.364
REMARK  Name = 
REMARK  6 active torsions:
REMARK  status: ('A' for Active; 'I' for Inactive)
REMARK    1  A    between atoms: C_1  and  C_2
REMARK    2  A    between atoms: C_4  and  C_5
REMARK    3  A    between atoms: N_7  and  C_8
REMARK    4  A    between atoms: C_15  and  C_16
REMARK    5  A    between atoms: C_16  and  C_17
REMARK    6  A    between atoms: C_20  and  C_21
REMARK                            x       y       z     vdW  Elec       q    Type
REMARK                         _______ _______ _______ _____ _____    ______ ____
ROOT
ATOM      1  C   UNL     1       7.937   5.217  19.106  0.00  0.00    +0.000 C 
ATOM      2  C   UNL     1       7.836   6.583  18.525  0.00  0.00    +0.000 A 
ATOM      3  N   UNL     1       8.617   7.590  19.034  0.00  0.00    +0.000 N 
ATOM      4  C   UNL     1       8.380   8.784  18.399  0.00  0.00    +0.000 A 
ATOM      5  C   UNL     1       7.417   8.522  17.440  0.00  0.00    +0.000 A 
ATOM      6  C   UNL     1       7.056   7.130  17.513  0.00  0.00    +0.000 A 
ATOM      7  H   UNL     1       9.284   7.496  19.790  0.00  0.00    +0.000 HD
ENDROOT
BRANCH   4   8
ATOM      8  C   UNL     1       9.108   9.973  18.798  0.00  0.00    +0.000 C 
ATOM      9  O   UNL     1       9.248  10.274  19.980  0.00  0.00    +0.000 OA
ATOM     10  N   UNL     1       9.625  10.743  17.780  0.00  0.00    +0.000 N 
ATOM     11  H   UNL     1       9.346  10.532  16.833  0.00  0.00    +0.000 HD
BRANCH  10  12
ATOM     12  C   UNL     1      10.324  12.001  18.042  0.00  0.00    +0.000 C 
ATOM     13  C   UNL     1      11.575  11.765  18.891  0.00  0.00    +0.000 C 
ATOM     14  C   UNL     1      12.204  13.086  19.309  0.00  0.00    +0.000 C 
ATOM     15  O   UNL     1      11.249  13.907  19.981  0.00  0.00    +0.000 OA
ATOM     16  C   UNL     1      10.156  14.258  19.134  0.00  0.00    +0.000 C 
ATOM     17  C   UNL     1       9.390  13.011  18.712  0.00  0.00    +0.000 C 
ENDBRANCH  10  12
ENDBRANCH   4   8
BRANCH   6  18
ATOM     18  C   UNL     1       5.984   6.465  16.689  0.00  0.00    +0.000 C 
BRANCH  18  19
ATOM     19  C   UNL     1       4.865   6.077  17.616  0.00  0.00    +0.000 A 
ATOM     20  C   UNL     1       3.881   6.991  18.000  0.00  0.00    +0.000 A 
ATOM     21  C   UNL     1       2.870   6.603  18.880  0.00  0.00    +0.000 A 
ATOM     22  C   UNL     1       2.847   5.295  19.365  0.00  0.00    +0.000 A 
ATOM     23  N   UNL     1       3.772   4.376  18.966  0.00  0.00    +0.000 NA
ATOM     24  C   UNL     1       4.747   4.785  18.116  0.00  0.00    +0.000 A 
BRANCH  22  25
ATOM     25  C   UNL     1       1.785   4.884  20.379  0.00  0.00    +0.000 C 
ATOM     26  F   UNL     1       1.018   5.933  20.814  0.00  0.00    +0.000 F 
ATOM     27  F   UNL     1       0.896   3.971  19.893  0.00  0.00    +0.000 F 
ATOM     28  F   UNL     1       2.311   4.334  21.511  0.00  0.00    +0.000 F 
ENDBRANCH  22  25
ENDBRANCH  18  19
ENDBRANCH   6  18
TORSDOF 5
ENDMDL
MODEL 7
REMARK VINA RESULT:      -7.7      0.932      1.432
REMARK  Name = 
REMARK  6 active torsions:
REMARK  status: ('A' for Active; 'I' for Inactive)
REMARK    1  A    between atoms: C_1  and  C_2
REMARK    2  A    between atoms: C_4  and  C_5
REMARK    3  A    between atoms: N_7  and  C_8
REMARK    4  A    between atoms: C_15  and  C_16
REMARK    5  A    between atoms: C_16  and  C_17
REMARK    6  A    between atoms: C_20  and  C_21
REMARK                            x       y       z     vdW  Elec       q    Type
REMARK                         _______ _______ _______ _____ _____    ______ ____
ROOT
ATOM      1  C   UNL     1       8.058   5.232  19.383  0.00  0.00    +0.000 C 
ATOM      2  C   UNL     1       7.870   6.517  18.657  0.00  0.00    +0.000 A 
ATOM      3  N   UNL     1       8.566   7.627  19.064  0.00  0.00    +0.000 N 
ATOM      4  C   UNL     1       8.257   8.726  18.300  0.00  0.00    +0.000 A 
ATOM      5  C   UNL     1       7.334   8.293  17.364  0.00  0.00    +0.000 A 
ATOM      6  C   UNL     1       7.072   6.894  17.583  0.00  0.00    +0.000 A 
ATOM      7  H   UNL     1       9.224   7.665  19.833  0.00  0.00    +0.000 HD
ENDROOT
BRANCH   4   8
ATOM      8  C   UNL     1       8.889  10.002  18.576  0.00  0.00    +0.000 C 
ATOM      9  O   UNL     1       8.836  10.931  17.776  0.00  0.00    +0.000 OA
ATOM     10  N   UNL     1       9.553  10.107  19.779  0.00  0.00    +0.000 N 
ATOM     11  H   UNL     1       9.695   9.268  20.320  0.00  0.00    +0.000 HD
BRANCH  10  12
ATOM     12  C   UNL     1      10.286  11.316  20.152  0.00  0.00    +0.000 C 
ATOM     13  C   UNL     1       9.341  12.515  20.268  0.00  0.00    +0.000 C 
ATOM     14  C   UNL     1      10.124  13.802  20.484  0.00  0.00    +0.000 C 
ATOM     15  O   UNL     1      11.092  13.982  19.450  0.00  0.00    +0.000 OA
ATOM     16  C   UNL     1      12.067  12.941  19.445  0.00  0.00    +0.000 C 
ATOM     17  C   UNL     1      11.409  11.599  19.152  0.00  0.00    +0.000 C 
ENDBRANCH  10  12
ENDBRANCH   4   8
BRANCH   6  18
ATOM     18  C   UNL     1       6.068   6.067  16.823  0.00  0.00    +0.000 C 
BRANCH  18  19
ATOM     19  C   UNL     1       4.966   5.693  17.776  0.00  0.00    +0.000 A 
ATOM     20  C   UNL     1       4.831   4.392  18.268  0.00  0.00    +0.000 A 
ATOM     21  C   UNL     1       3.783   4.075  19.133  0.00  0.00    +0.000 A 
ATOM     22  C   UNL     1       2.879   5.069  19.508  0.00  0.00    +0.000 A 
ATOM     23  N   UNL     1       3.021   6.355  19.076  0.00  0.00    +0.000 NA
ATOM     24  C   UNL     1       4.044   6.631  18.230  0.00  0.00    +0.000 A 
BRANCH  22  25
ATOM     25  C   UNL     1       1.694   4.714  20.399  0.00  0.00    +0.000 C 
ATOM     26  F   UNL     1       0.792   3.881  19.793  0.00  0.00    +0.000 F 
ATOM     27  F   UNL     1       2.052   4.074  21.549  0.00  0.00    +0.000 F 
ATOM     28  F   UNL     1       0.969   5.804  20.785  0.00  0.00    +0.000 F 
ENDBRANCH  22  25
ENDBRANCH  18  19
ENDBRANCH   6  18
TORSDOF 5
ENDMDL
MODEL 8
REMARK VINA RESULT:      -7.7      1.794      2.495
REMARK  Name = 
REMARK  6 active torsions:
REMARK  status: ('A' for Active; 'I' for Inactive)
REMARK    1  A    between atoms: C_1  and  C_2
REMARK    2  A    between atoms: C_4  and  C_5
REMARK    3  A    between atoms: N_7  and  C_8
REMARK    4  A    between atoms: C_15  and  C_16
REMARK    5  A    between atoms: C_16  and  C_17
REMARK    6  A    between atoms: C_20  and  C_21
REMARK                            x       y       z     vdW  Elec       q    Type
REMARK                         _______ _______ _______ _____ _____    ______ ____
ROOT
ATOM      1  C   UNL     1       5.650   7.007  15.965  0.00  0.00    +0.000 C 
ATOM      2  C   UNL     1       6.682   7.157  17.026  0.00  0.00    +0.000 A 
ATOM      3  N   UNL     1       7.195   8.402  17.294  0.00  0.00    +0.000 N 
ATOM      4  C   UNL     1       8.148   8.354  18.281  0.00  0.00    +0.000 A 
ATOM      5  C   UNL     1       8.236   7.027  18.664  0.00  0.00    +0.000 A 
ATOM      6  C   UNL     1       7.317   6.254  17.870  0.00  0.00    +0.000 A 
ATOM      7  H   UNL     1       6.932   9.263  16.830  0.00  0.00    +0.000 HD
ENDROOT
BRANCH   4   8
ATOM      8  C   UNL     1       8.813   9.571  18.706  0.00  0.00    +0.000 C 
ATOM      9  O   UNL     1       9.420   9.633  19.771  0.00  0.00    +0.000 OA
ATOM     10  N   UNL     1       8.721  10.648  17.852  0.00  0.00    +0.000 N 
ATOM     11  H   UNL     1       8.082  10.586  17.073  0.00  0.00    +0.000 HD
BRANCH  10  12
ATOM     12  C   UNL     1       9.291  11.951  18.189  0.00  0.00    +0.000 C 
ATOM     13  C   UNL     1       8.380  13.087  17.716  0.00  0.00    +0.000 C 
ATOM     14  C   UNL     1       9.053  14.438  17.909  0.00  0.00    +0.000 C 
ATOM     15  O   UNL     1      10.323  14.465  17.259  0.00  0.00    +0.000 OA
ATOM     16  C   UNL     1      11.226  13.509  17.811  0.00  0.00    +0.000 C 
ATOM     17  C   UNL     1      10.697  12.097  17.602  0.00  0.00    +0.000 C 
ENDBRANCH  10  12
ENDBRANCH   4   8
BRANCH   6  18
ATOM     18  C   UNL     1       7.165   4.755  17.926  0.00  0.00    +0.000 C 
BRANCH  18  19
ATOM     19  C   UNL     1       5.711   4.449  18.156  0.00  0.00    +0.000 A 
ATOM     20  C   UNL     1       5.052   4.849  19.320  0.00  0.00    +0.000 A 
ATOM     21  C   UNL     1       3.707   4.527  19.511  0.00  0.00    +0.000 A 
ATOM     22  C   UNL     1       3.027   3.812  18.525  0.00  0.00    +0.000 A 
ATOM     23  N   UNL     1       3.641   3.453  17.360  0.00  0.00    +0.000 NA
ATOM     24  C   UNL     1       4.950   3.772  17.208  0.00  0.00    +0.000 A 
BRANCH  22  25
ATOM     25  C   UNL     1       1.577   3.399  18.756  0.00  0.00    +0.000 C 
ATOM     26  F   UNL     1       1.090   3.796  19.973  0.00  0.00    +0.000 F 
ATOM     27  F   UNL     1       0.713   3.920  17.838  0.00  0.00    +0.000 F 
ATOM     28  F   UNL     1       1.395   2.047  18.722  0.00  0.00    +0.000 F 
ENDBRANCH  22  25
ENDBRANCH  18  19
ENDBRANCH   6  18
TORSDOF 5
ENDMDL
MODEL 9
REMARK VINA RESULT:      -7.4      7.035      9.758
REMARK  Name = 
REMARK  6 active torsions:
REMARK  status: ('A' for Active; 'I' for Inactive)
REMARK    1  A    between atoms: C_1  and  C_2
REMARK    2  A    between atoms: C_4  and  C_5
REMARK    3  A    between atoms: N_7  and  C_8
REMARK    4  A    between atoms: C_15  and  C_16
REMARK    5  A    between atoms: C_16  and  C_17
REMARK    6  A    between atoms: C_20  and  C_21
REMARK                            x       y       z     vdW  Elec       q    Type
REMARK                         _______ _______ _______ _____ _____    ______ ____
ROOT
ATOM      1  C   UNL     1       0.333   9.247  22.806  0.00  0.00    +0.000 C 
ATOM      2  C   UNL     1       0.793   9.131  21.396  0.00  0.00    +0.000 A 
ATOM      3  N   UNL     1       1.459   7.999  20.998  0.00  0.00    +0.000 N 
ATOM      4  C   UNL     1       1.829   8.068  19.677  0.00  0.00    +0.000 A 
ATOM      5  C   UNL     1       1.371   9.290  19.216  0.00  0.00    +0.000 A 
ATOM      6  C   UNL     1       0.718   9.979  20.298  0.00  0.00    +0.000 A 
ATOM      7  H   UNL     1       1.674   7.201  21.584  0.00  0.00    +0.000 HD
ENDROOT
BRANCH   4   8
ATOM      8  C   UNL     1       2.549   6.966  19.067  0.00  0.00    +0.000 C 
ATOM      9  O   UNL     1       3.316   7.144  18.125  0.00  0.00    +0.000 OA
ATOM     10  N   UNL     1       2.319   5.717  19.599  0.00  0.00    +0.000 N 
ATOM     11  H   UNL     1       1.565   5.612  20.263  0.00  0.00    +0.000 HD
BRANCH  10  12
ATOM     12  C   UNL     1       2.930   4.514  19.037  0.00  0.00    +0.000 C 
ATOM     13  C   UNL     1       2.004   3.859  18.009  0.00  0.00    +0.000 C 
ATOM     14  C   UNL     1       2.562   2.518  17.554  0.00  0.00    +0.000 C 
ATOM     15  O   UNL     1       2.805   1.668  18.674  0.00  0.00    +0.000 OA
ATOM     16  C   UNL     1       3.788   2.209  19.553  0.00  0.00    +0.000 C 
ATOM     17  C   UNL     1       3.304   3.527  20.144  0.00  0.00    +0.000 C 
ENDBRANCH  10  12
ENDBRANCH   4   8
BRANCH   6  18
ATOM     18  C   UNL     1       0.151  11.374  20.226  0.00  0.00    +0.000 C 
BRANCH  18  19
ATOM     19  C   UNL     1      -1.126  11.310  19.435  0.00  0.00    +0.000 A 
ATOM     20  C   UNL     1      -1.300  10.393  18.396  0.00  0.00    +0.000 A 
ATOM     21  C   UNL     1      -2.491  10.378  17.667  0.00  0.00    +0.000 A 
ATOM     22  C   UNL     1      -3.506  11.278  17.992  0.00  0.00    +0.000 A 
ATOM     23  N   UNL     1      -3.372  12.150  19.033  0.00  0.00    +0.000 NA
ATOM     24  C   UNL     1      -2.201  12.147  19.717  0.00  0.00    +0.000 A 
BRANCH  22  25
ATOM     25  C   UNL     1      -4.781  11.311  17.157  0.00  0.00    +0.000 C 
ATOM     26  F   UNL     1      -5.269  12.577  16.965  0.00  0.00    +0.000 F 
ATOM     27  F   UNL     1      -4.622  10.797  15.904  0.00  0.00    +0.000 F 
ATOM     28  F   UNL     1      -5.809  10.615  17.723  0.00  0.00    +0.000 F 
ENDBRANCH  22  25
ENDBRANCH  18  19
ENDBRANCH   6  18
TORSDOF 5
ENDMDL
