MODEL 1
REMARK VINA RESULT:      -8.1      0.000      0.000
REMARK  Name = 
REMARK  7 active torsions:
REMARK  status: ('A' for Active; 'I' for Inactive)
REMARK    1  A    between atoms: C_1  and  C_2
REMARK    2  A    between atoms: C_5  and  N_6
REMARK    3  A    between atoms: C_7  and  C_9
REMARK    4  A    between atoms: C_12  and  N_13
REMARK    5  A    between atoms: N_13  and  C_14
REMARK    6  A    between atoms: C_14  and  C_15
REMARK    7  A    between atoms: C_20  and  N_21
REMARK                            x       y       z     vdW  Elec       q    Type
REMARK                         _______ _______ _______ _____ _____    ______ ____
ROOT
ATOM      1  C   UNL     1       2.802   7.512  17.989  0.00  0.00    +0.000 A 
ATOM      2  C   UNL     1       4.031   7.664  17.348  0.00  0.00    +0.000 A 
ATOM      3  C   UNL     1       4.747   6.552  16.916  0.00  0.00    +0.000 A 
ATOM      4  C   UNL     1       4.278   5.240  17.099  0.00  0.00    +0.000 A 
ATOM      5  C   UNL     1       3.039   5.101  17.777  0.00  0.00    +0.000 A 
ATOM      6  C   UNL     1       2.308   6.231  18.223  0.00  0.00    +0.000 A 
ENDROOT
BRANCH   1   8
ATOM      7  N   UNL     1       1.306   8.820  19.425  0.00  0.00    +0.000 N 
ATOM      8  C   UNL     1       2.039   8.753  18.254  0.00  0.00    +0.000 C 
ATOM      9  O   UNL     1       2.137   9.632  17.405  0.00  0.00    +0.000 OA
ATOM     10  H   UNL     1       1.385   8.059  20.086  0.00  0.00    +0.000 HD
BRANCH   7  15
ATOM     11  C   UNL     1      -2.020  13.263  20.946  0.00  0.00    +0.000 C 
ATOM     12  C   UNL     1      -1.171  12.095  20.530  0.00  0.00    +0.000 A 
ATOM     13  C   UNL     1      -0.020  11.807  21.262  0.00  0.00    +0.000 A 
ATOM     14  C   UNL     1       0.801  10.736  20.909  0.00  0.00    +0.000 A 
ATOM     15  C   UNL     1       0.498   9.917  19.819  0.00  0.00    +0.000 A 
ATOM     16  C   UNL     1      -0.653  10.198  19.081  0.00  0.00    +0.000 A 
ATOM     17  C   UNL     1      -1.482  11.275  19.434  0.00  0.00    +0.000 A 
ATOM     18 CL   UNL     1      -2.888  11.567  18.473  0.00  0.00    +0.000 Cl
ENDBRANCH   7  15
ENDBRANCH   1   8
BRANCH   5  19
ATOM     19  N   UNL     1       2.422   3.778  18.006  0.00  0.00    +0.000 N 
ATOM     20  O   UNL     1       2.142   3.435  19.164  0.00  0.00    +0.000 OA
ATOM     21  O   UNL     1       2.183   3.081  17.006  0.00  0.00    +0.000 OA
ENDBRANCH   5  19
BRANCH   4  22
ATOM     22  N   UNL     1       4.948   4.182  16.492  0.00  0.00    +0.000 N 
ATOM     23  H   UNL     1       4.554   3.251  16.629  0.00  0.00    +0.000 HD
BRANCH  22  24
ATOM     24  C   UNL     1       6.364   4.248  16.144  0.00  0.00    +0.000 C 
BRANCH  24  25
ATOM     25  C   UNL     1       6.684   4.313  14.694  0.00  0.00    +0.000 A 
ATOM     26  C   UNL     1       6.179   3.704  13.566  0.00  0.00    +0.000 A 
ATOM     27  C   UNL     1       6.854   4.287  12.464  0.00  0.00    +0.000 A 
ATOM     28  C   UNL     1       7.728   5.209  12.990  0.00  0.00    +0.000 A 
ATOM     29  O   UNL     1       7.637   5.228  14.342  0.00  0.00    +0.000 OA
ENDBRANCH  24  25
ENDBRANCH  22  24
ENDBRANCH   4  22
TORSDOF 6
ENDMDL
MODEL 2
REMARK VINA RESULT:      -8.1      2.241      2.927
REMARK  Name = 
REMARK  7 active torsions:
REMARK  status: ('A' for Active; 'I' for Inactive)
REMARK    1  A    between atoms: C_1  and  C_2
REMARK    2  A    between atoms: C_5  and  N_6
REMARK    3  A    between atoms: C_7  and  C_9
REMARK    4  A    between atoms: C_12  and  N_13
REMARK    5  A    between atoms: N_13  and  C_14
REMARK    6  A    between atoms: C_14  and  C_15
REMARK    7  A    between atoms: C_20  and  N_21
REMARK                            x       y       z     vdW  Elec       q    Type
REMARK                         _______ _______ _______ _____ _____    ______ ____
ROOT
ATOM      1  C   UNL     1       2.486   6.980  19.560  0.00  0.00    +0.000 A 
ATOM      2  C   UNL     1       2.820   7.641  18.380  0.00  0.00    +0.000 A 
ATOM      3  C   UNL     1       3.635   7.029  17.432  0.00  0.00    +0.000 A 
ATOM      4  C   UNL     1       4.154   5.736  17.611  0.00  0.00    +0.000 A 
ATOM      5  C   UNL     1       3.826   5.087  18.829  0.00  0.00    +0.000 A 
ATOM      6  C   UNL     1       3.000   5.707  19.800  0.00  0.00    +0.000 A 
ENDROOT
BRANCH   1   8
ATOM      7  N   UNL     1       1.285   8.999  20.262  0.00  0.00    +0.000 N 
ATOM      8  C   UNL     1       1.478   7.640  20.422  0.00  0.00    +0.000 C 
ATOM      9  O   UNL     1       0.884   6.907  21.206  0.00  0.00    +0.000 OA
ATOM     10  H   UNL     1       1.775   9.470  19.513  0.00  0.00    +0.000 HD
BRANCH   7  15
ATOM     11  C   UNL     1      -2.375  12.263  23.272  0.00  0.00    +0.000 C 
ATOM     12  C   UNL     1      -1.431  11.422  22.462  0.00  0.00    +0.000 A 
ATOM     13  C   UNL     1      -0.667  10.454  23.114  0.00  0.00    +0.000 A 
ATOM     14  C   UNL     1       0.228   9.653  22.402  0.00  0.00    +0.000 A 
ATOM     15  C   UNL     1       0.386   9.790  21.021  0.00  0.00    +0.000 A 
ATOM     16  C   UNL     1      -0.375  10.757  20.362  0.00  0.00    +0.000 A 
ATOM     17  C   UNL     1      -1.277  11.564  21.075  0.00  0.00    +0.000 A 
ATOM     18 CL   UNL     1      -2.182  12.743  20.194  0.00  0.00    +0.000 Cl
ENDBRANCH   7  15
ENDBRANCH   1   8
BRANCH   5  19
ATOM     19  N   UNL     1       4.282   3.713  19.127  0.00  0.00    +0.000 N 
ATOM     20  O   UNL     1       3.465   2.782  19.079  0.00  0.00    +0.000 OA
ATOM     21  O   UNL     1       5.487   3.558  19.385  0.00  0.00    +0.000 OA
ENDBRANCH   5  19
BRANCH   4  22
ATOM     22  N   UNL     1       4.813   5.110  16.557  0.00  0.00    +0.000 N 
ATOM     23  H   UNL     1       4.335   4.321  16.121  0.00  0.00    +0.000 HD
BRANCH  22  24
ATOM     24  C   UNL     1       6.263   5.165  16.396  0.00  0.00    +0.000 C 
BRANCH  24  25
ATOM     25  C   UNL     1       6.983   6.156  17.238  0.00  0.00    +0.000 A 
ATOM     26  C   UNL     1       7.670   6.091  18.430  0.00  0.00    +0.000 A 
ATOM     27  C   UNL     1       8.223   7.379  18.642  0.00  0.00    +0.000 A 
ATOM     28  C   UNL     1       7.833   8.147  17.569  0.00  0.00    +0.000 A 
ATOM     29  O   UNL     1       7.076   7.415  16.715  0.00  0.00    +0.000 OA
ENDBRANCH  24  25
ENDBRANCH  22  24
ENDBRANCH   4  22
TORSDOF 6
ENDMDL
MODEL 3
REMARK VINA RESULT:      -8.1      1.241      1.281
REMARK  Name = 
REMARK  7 active torsions:
REMARK  status: ('A' for Active; 'I' for Inactive)
REMARK    1  A    between atoms: C_1  and  C_2
REMARK    2  A    between atoms: C_5  and  N_6
REMARK    3  A    between atoms: C_7  and  C_9
REMARK    4  A    between atoms: C_12  and  N_13
REMARK    5  A    between atoms: N_13  and  C_14
REMARK    6  A    between atoms: C_14  and  C_15
REMARK    7  A    between atoms: C_20  and  N_21
REMARK                            x       y       z     vdW  Elec       q    Type
REMARK                         _______ _______ _______ _____ _____    ______ ____
ROOT
ATOM      1  C   UNL     1       2.850   7.021  18.287  0.00  0.00    +0.000 A 
ATOM      2  C   UNL     1       4.004   7.339  17.574  0.00  0.00    +0.000 A 
ATOM      3  C   UNL     1       4.702   6.355  16.882  0.00  0.00    +0.000 A 
ATOM      4  C   UNL     1       4.287   5.012  16.864  0.00  0.00    +0.000 A 
ATOM      5  C   UNL     1       3.126   4.700  17.616  0.00  0.00    +0.000 A 
ATOM      6  C   UNL     1       2.413   5.699  18.327  0.00  0.00    +0.000 A 
ENDROOT
BRANCH   1   8
ATOM      7  N   UNL     1       1.766   9.201  17.992  0.00  0.00    +0.000 N 
ATOM      8  C   UNL     1       2.085   8.160  18.845  0.00  0.00    +0.000 C 
ATOM      9  O   UNL     1       1.782   8.071  20.030  0.00  0.00    +0.000 OA
ATOM     10  H   UNL     1       1.995   9.107  17.012  0.00  0.00    +0.000 HD
BRANCH   7  15
ATOM     11  C   UNL     1      -1.146  13.936  19.479  0.00  0.00    +0.000 C 
ATOM     12  C   UNL     1      -0.410  12.686  19.090  0.00  0.00    +0.000 A 
ATOM     13  C   UNL     1       0.984  12.692  19.116  0.00  0.00    +0.000 A 
ATOM     14  C   UNL     1       1.709  11.555  18.757  0.00  0.00    +0.000 A 
ATOM     15  C   UNL     1       1.068  10.377  18.366  0.00  0.00    +0.000 A 
ATOM     16  C   UNL     1      -0.328  10.363  18.337  0.00  0.00    +0.000 A 
ATOM     17  C   UNL     1      -1.060  11.505  18.698  0.00  0.00    +0.000 A 
ATOM     18 CL   UNL     1      -2.785  11.417  18.634  0.00  0.00    +0.000 Cl
ENDBRANCH   7  15
ENDBRANCH   1   8
BRANCH   5  19
ATOM     19  N   UNL     1       2.567   3.333  17.655  0.00  0.00    +0.000 N 
ATOM     20  O   UNL     1       3.342   2.365  17.677  0.00  0.00    +0.000 OA
ATOM     21  O   UNL     1       1.330   3.225  17.695  0.00  0.00    +0.000 OA
ENDBRANCH   5  19
BRANCH   4  22
ATOM     22  N   UNL     1       4.921   4.111  16.014  0.00  0.00    +0.000 N 
ATOM     23  H   UNL     1       4.471   3.203  15.889  0.00  0.00    +0.000 HD
BRANCH  22  24
ATOM     24  C   UNL     1       6.351   4.174  15.729  0.00  0.00    +0.000 C 
BRANCH  24  25
ATOM     25  C   UNL     1       6.733   4.299  14.297  0.00  0.00    +0.000 A 
ATOM     26  C   UNL     1       6.288   3.725  13.127  0.00  0.00    +0.000 A 
ATOM     27  C   UNL     1       7.000   4.360  12.077  0.00  0.00    +0.000 A 
ATOM     28  C   UNL     1       7.835   5.274  12.676  0.00  0.00    +0.000 A 
ATOM     29  O   UNL     1       7.684   5.241  14.023  0.00  0.00    +0.000 OA
ENDBRANCH  24  25
ENDBRANCH  22  24
ENDBRANCH   4  22
TORSDOF 6
ENDMDL
MODEL 4
REMARK VINA RESULT:      -8.1      2.056      2.655
REMARK  Name = 
REMARK  7 active torsions:
REMARK  status: ('A' for Active; 'I' for Inactive)
REMARK    1  A    between atoms: C_1  and  C_2
REMARK    2  A    between atoms: C_5  and  N_6
REMARK    3  A    between atoms: C_7  and  C_9
REMARK    4  A    between atoms: C_12  and  N_13
REMARK    5  A    between atoms: N_13  and  C_14
REMARK    6  A    between atoms: C_14  and  C_15
REMARK    7  A    between atoms: C_20  and  N_21
REMARK                            x       y       z     vdW  Elec       q    Type
REMARK                         _______ _______ _______ _____ _____    ______ ____
ROOT
ATOM      1  C   UNL     1       2.490   7.040  19.377  0.00  0.00    +0.000 A 
ATOM      2  C   UNL     1       2.993   7.377  18.122  0.00  0.00    +0.000 A 
ATOM      3  C   UNL     1       3.748   6.463  17.394  0.00  0.00    +0.000 A 
ATOM      4  C   UNL     1       4.037   5.175  17.875  0.00  0.00    +0.000 A 
ATOM      5  C   UNL     1       3.541   4.857  19.166  0.00  0.00    +0.000 A 
ATOM      6  C   UNL     1       2.775   5.787  19.915  0.00  0.00    +0.000 A 
ENDROOT
BRANCH   1   8
ATOM      7  N   UNL     1       1.258   9.158  19.285  0.00  0.00    +0.000 N 
ATOM      8  C   UNL     1       1.558   8.011  19.996  0.00  0.00    +0.000 C 
ATOM      9  O   UNL     1       1.116   7.700  21.097  0.00  0.00    +0.000 OA
ATOM     10  H   UNL     1       1.618   9.249  18.344  0.00  0.00    +0.000 HD
BRANCH   7  15
ATOM     11  C   UNL     1      -2.225  13.383  21.054  0.00  0.00    +0.000 C 
ATOM     12  C   UNL     1      -1.336  12.272  20.575  0.00  0.00    +0.000 A 
ATOM     13  C   UNL     1      -0.139  12.031  21.248  0.00  0.00    +0.000 A 
ATOM     14  C   UNL     1       0.721  11.013  20.834  0.00  0.00    +0.000 A 
ATOM     15  C   UNL     1       0.412  10.202  19.740  0.00  0.00    +0.000 A 
ATOM     16  C   UNL     1      -0.784  10.436  19.060  0.00  0.00    +0.000 A 
ATOM     17  C   UNL     1      -1.651  11.460  19.474  0.00  0.00    +0.000 A 
ATOM     18 CL   UNL     1      -3.113  11.697  18.583  0.00  0.00    +0.000 Cl
ENDBRANCH   7  15
ENDBRANCH   1   8
BRANCH   5  19
ATOM     19  N   UNL     1       3.749   3.527  19.775  0.00  0.00    +0.000 N 
ATOM     20  O   UNL     1       2.786   2.946  20.297  0.00  0.00    +0.000 OA
ATOM     21  O   UNL     1       4.889   3.040  19.702  0.00  0.00    +0.000 OA
ENDBRANCH   5  19
BRANCH   4  22
ATOM     22  N   UNL     1       4.641   4.247  17.032  0.00  0.00    +0.000 N 
ATOM     23  H   UNL     1       4.234   3.312  17.011  0.00  0.00    +0.000 HD
BRANCH  22  24
ATOM     24  C   UNL     1       6.034   4.362  16.611  0.00  0.00    +0.000 C 
BRANCH  24  25
ATOM     25  C   UNL     1       6.894   5.268  17.417  0.00  0.00    +0.000 A 
ATOM     26  C   UNL     1       7.332   6.567  17.268  0.00  0.00    +0.000 A 
ATOM     27  C   UNL     1       8.040   6.885  18.455  0.00  0.00    +0.000 A 
ATOM     28  C   UNL     1       7.993   5.761  19.245  0.00  0.00    +0.000 A 
ATOM     29  O   UNL     1       7.305   4.773  18.622  0.00  0.00    +0.000 OA
ENDBRANCH  24  25
ENDBRANCH  22  24
ENDBRANCH   4  22
TORSDOF 6
ENDMDL
MODEL 5
REMARK VINA RESULT:      -8.0      1.802      2.053
REMARK  Name = 
REMARK  7 active torsions:
REMARK  status: ('A' for Active; 'I' for Inactive)
REMARK    1  A    between atoms: C_1  and  C_2
REMARK    2  A    between atoms: C_5  and  N_6
REMARK    3  A    between atoms: C_7  and  C_9
REMARK    4  A    between atoms: C_12  and  N_13
REMARK    5  A    between atoms: N_13  and  C_14
REMARK    6  A    between atoms: C_14  and  C_15
REMARK    7  A    between atoms: C_20  and  N_21
REMARK                            x       y       z     vdW  Elec       q    Type
REMARK                         _______ _______ _______ _____ _____    ______ ____
ROOT
ATOM      1  C   UNL     1       3.124   6.278  19.144  0.00  0.00    +0.000 A 
ATOM      2  C   UNL     1       3.869   6.833  18.105  0.00  0.00    +0.000 A 
ATOM      3  C   UNL     1       4.750   6.047  17.368  0.00  0.00    +0.000 A 
ATOM      4  C   UNL     1       4.931   4.678  17.626  0.00  0.00    +0.000 A 
ATOM      5  C   UNL     1       4.185   4.134  18.704  0.00  0.00    +0.000 A 
ATOM      6  C   UNL     1       3.290   4.931  19.461  0.00  0.00    +0.000 A 
ENDROOT
BRANCH   1   8
ATOM      7  N   UNL     1       1.866   8.383  19.171  0.00  0.00    +0.000 N 
ATOM      8  C   UNL     1       2.092   7.148  19.753  0.00  0.00    +0.000 C 
ATOM      9  O   UNL     1       1.509   6.684  20.727  0.00  0.00    +0.000 OA
ATOM     10  H   UNL     1       2.351   8.606  18.313  0.00  0.00    +0.000 HD
BRANCH   7  15
ATOM     11  C   UNL     1      -1.896  12.256  21.161  0.00  0.00    +0.000 C 
ATOM     12  C   UNL     1      -0.908  11.237  20.668  0.00  0.00    +0.000 A 
ATOM     13  C   UNL     1      -0.589  11.213  19.310  0.00  0.00    +0.000 A 
ATOM     14  C   UNL     1       0.319  10.280  18.807  0.00  0.00    +0.000 A 
ATOM     15  C   UNL     1       0.940   9.348  19.642  0.00  0.00    +0.000 A 
ATOM     16  C   UNL     1       0.626   9.366  21.002  0.00  0.00    +0.000 A 
ATOM     17  C   UNL     1      -0.287  10.303  21.511  0.00  0.00    +0.000 A 
ATOM     18 CL   UNL     1      -0.631  10.264  23.204  0.00  0.00    +0.000 Cl
ENDBRANCH   7  15
ENDBRANCH   1   8
BRANCH   5  19
ATOM     19  N   UNL     1       4.261   2.703  19.059  0.00  0.00    +0.000 N 
ATOM     20  O   UNL     1       4.822   2.372  20.115  0.00  0.00    +0.000 OA
ATOM     21  O   UNL     1       3.723   1.894  18.284  0.00  0.00    +0.000 OA
ENDBRANCH   5  19
BRANCH   4  22
ATOM     22  N   UNL     1       5.687   3.909  16.747  0.00  0.00    +0.000 N 
ATOM     23  H   UNL     1       5.592   2.896  16.824  0.00  0.00    +0.000 HD
BRANCH  22  24
ATOM     24  C   UNL     1       6.914   4.404  16.128  0.00  0.00    +0.000 C 
BRANCH  24  25
ATOM     25  C   UNL     1       6.949   4.403  14.642  0.00  0.00    +0.000 A 
ATOM     26  C   UNL     1       6.213   3.777  13.660  0.00  0.00    +0.000 A 
ATOM     27  C   UNL     1       6.682   4.290  12.424  0.00  0.00    +0.000 A 
ATOM     28  C   UNL     1       7.675   5.191  12.732  0.00  0.00    +0.000 A 
ATOM     29  O   UNL     1       7.848   5.262  14.075  0.00  0.00    +0.000 OA
ENDBRANCH  24  25
ENDBRANCH  22  24
ENDBRANCH   4  22
TORSDOF 6
ENDMDL
MODEL 6
REMARK VINA RESULT:      -8.0      1.287      1.372
REMARK  Name = 
REMARK  7 active torsions:
REMARK  status: ('A' for Active; 'I' for Inactive)
REMARK    1  A    between atoms: C_1  and  C_2
REMARK    2  A    between atoms: C_5  and  N_6
REMARK    3  A    between atoms: C_7  and  C_9
REMARK    4  A    between atoms: C_12  and  N_13
REMARK    5  A    between atoms: N_13  and  C_14
REMARK    6  A    between atoms: C_14  and  C_15
REMARK    7  A    between atoms: C_20  and  N_21
REMARK                            x       y       z     vdW  Elec       q    Type
REMARK                         _______ _______ _______ _____ _____    ______ ____
ROOT
ATOM      1  C   UNL     1       2.812   7.149  19.010  0.00  0.00    +0.000 A 
ATOM      2  C   UNL     1       3.438   7.583  17.842  0.00  0.00    +0.000 A 
ATOM      3  C   UNL     1       4.297   6.740  17.144  0.00  0.00    +0.000 A 
ATOM      4  C   UNL     1       4.572   5.429  17.570  0.00  0.00    +0.000 A 
ATOM      5  C   UNL     1       3.949   5.012  18.774  0.00  0.00    +0.000 A 
ATOM      6  C   UNL     1       3.076   5.869  19.492  0.00  0.00    +0.000 A 
ENDROOT
BRANCH   1   8
ATOM      7  N   UNL     1       1.387   9.136  18.823  0.00  0.00    +0.000 N 
ATOM      8  C   UNL     1       1.788   8.052  19.583  0.00  0.00    +0.000 C 
ATOM      9  O   UNL     1       1.368   7.746  20.694  0.00  0.00    +0.000 OA
ATOM     10  H   UNL     1       1.745   9.222  17.882  0.00  0.00    +0.000 HD
BRANCH   7  15
ATOM     11  C   UNL     1      -2.489  13.086  20.397  0.00  0.00    +0.000 C 
ATOM     12  C   UNL     1      -1.496  12.045  19.968  0.00  0.00    +0.000 A 
ATOM     13  C   UNL     1      -0.318  11.899  20.699  0.00  0.00    +0.000 A 
ATOM     14  C   UNL     1       0.636  10.948  20.333  0.00  0.00    +0.000 A 
ATOM     15  C   UNL     1       0.443  10.113  19.231  0.00  0.00    +0.000 A 
ATOM     16  C   UNL     1      -0.734  10.253  18.493  0.00  0.00    +0.000 A 
ATOM     17  C   UNL     1      -1.695  11.208  18.859  0.00  0.00    +0.000 A 
ATOM     18 CL   UNL     1      -3.126  11.329  17.897  0.00  0.00    +0.000 Cl
ENDBRANCH   7  15
ENDBRANCH   1   8
BRANCH   5  19
ATOM     19  N   UNL     1       4.131   3.649  19.314  0.00  0.00    +0.000 N 
ATOM     20  O   UNL     1       5.276   3.251  19.573  0.00  0.00    +0.000 OA
ATOM     21  O   UNL     1       3.107   2.973  19.511  0.00  0.00    +0.000 OA
ENDBRANCH   5  19
BRANCH   4  22
ATOM     22  N   UNL     1       5.294   4.577  16.740  0.00  0.00    +0.000 N 
ATOM     23  H   UNL     1       5.106   3.578  16.832  0.00  0.00    +0.000 HD
BRANCH  22  24
ATOM     24  C   UNL     1       6.586   4.947  16.170  0.00  0.00    +0.000 C 
BRANCH  24  25
ATOM     25  C   UNL     1       6.777   4.654  14.725  0.00  0.00    +0.000 A 
ATOM     26  C   UNL     1       6.139   3.842  13.813  0.00  0.00    +0.000 A 
ATOM     27  C   UNL     1       6.742   4.105  12.557  0.00  0.00    +0.000 A 
ATOM     28  C   UNL     1       7.710   5.055  12.785  0.00  0.00    +0.000 A 
ATOM     29  O   UNL     1       7.743   5.390  14.098  0.00  0.00    +0.000 OA
ENDBRANCH  24  25
ENDBRANCH  22  24
ENDBRANCH   4  22
TORSDOF 6
ENDMDL
MODEL 7
REMARK VINA RESULT:      -8.0      2.247      2.900
REMARK  Name = 
REMARK  7 active torsions:
REMARK  status: ('A' for Active; 'I' for Inactive)
REMARK    1  A    between atoms: C_1  and  C_2
REMARK    2  A    between atoms: C_5  and  N_6
REMARK    3  A    between atoms: C_7  and  C_9
REMARK    4  A    between atoms: C_12  and  N_13
REMARK    5  A    between atoms: N_13  and  C_14
REMARK    6  A    between atoms: C_14  and  C_15
REMARK    7  A    between atoms: C_20  and  N_21
REMARK                            x       y       z     vdW  Elec       q    Type
REMARK                         _______ _______ _______ _____ _____    ______ ____
ROOT
ATOM      1  C   UNL     1       2.466   7.475  18.963  0.00  0.00    +0.000 A 
ATOM      2  C   UNL     1       3.140   7.723  17.768  0.00  0.00    +0.000 A 
ATOM      3  C   UNL     1       3.874   6.717  17.148  0.00  0.00    +0.000 A 
ATOM      4  C   UNL     1       3.971   5.421  17.682  0.00  0.00    +0.000 A 
ATOM      5  C   UNL     1       3.302   5.192  18.911  0.00  0.00    +0.000 A 
ATOM      6  C   UNL     1       2.556   6.215  19.550  0.00  0.00    +0.000 A 
ENDROOT
BRANCH   1   8
ATOM      7  N   UNL     1       1.470   8.729  20.821  0.00  0.00    +0.000 N 
ATOM      8  C   UNL     1       1.575   8.553  19.453  0.00  0.00    +0.000 C 
ATOM      9  O   UNL     1       1.012   9.215  18.588  0.00  0.00    +0.000 OA
ATOM     10  H   UNL     1       2.063   8.174  21.424  0.00  0.00    +0.000 HD
BRANCH   7  15
ATOM     11  C   UNL     1      -1.839  12.692  23.360  0.00  0.00    +0.000 C 
ATOM     12  C   UNL     1      -0.969  11.676  22.677  0.00  0.00    +0.000 A 
ATOM     13  C   UNL     1      -0.976  10.363  23.145  0.00  0.00    +0.000 A 
ATOM     14  C   UNL     1      -0.179   9.387  22.545  0.00  0.00    +0.000 A 
ATOM     15  C   UNL     1       0.644   9.689  21.458  0.00  0.00    +0.000 A 
ATOM     16  C   UNL     1       0.657  11.002  20.983  0.00  0.00    +0.000 A 
ATOM     17  C   UNL     1      -0.144  11.986  21.585  0.00  0.00    +0.000 A 
ATOM     18 CL   UNL     1      -0.074  13.590  20.947  0.00  0.00    +0.000 Cl
ENDBRANCH   7  15
ENDBRANCH   1   8
BRANCH   5  19
ATOM     19  N   UNL     1       3.300   3.866  19.563  0.00  0.00    +0.000 N 
ATOM     20  O   UNL     1       4.359   3.224  19.628  0.00  0.00    +0.000 OA
ATOM     21  O   UNL     1       2.226   3.471  20.046  0.00  0.00    +0.000 OA
ENDBRANCH   5  19
BRANCH   4  22
ATOM     22  N   UNL     1       4.568   4.413  16.930  0.00  0.00    +0.000 N 
ATOM     23  H   UNL     1       4.090   3.512  16.909  0.00  0.00    +0.000 HD
BRANCH  22  24
ATOM     24  C   UNL     1       5.997   4.401  16.629  0.00  0.00    +0.000 C 
BRANCH  24  25
ATOM     25  C   UNL     1       6.858   5.255  17.489  0.00  0.00    +0.000 A 
ATOM     26  C   UNL     1       7.388   6.521  17.368  0.00  0.00    +0.000 A 
ATOM     27  C   UNL     1       8.036   6.799  18.598  0.00  0.00    +0.000 A 
ATOM     28  C   UNL     1       7.865   5.684  19.385  0.00  0.00    +0.000 A 
ATOM     29  O   UNL     1       7.157   4.740  18.719  0.00  0.00    +0.000 OA
ENDBRANCH  24  25
ENDBRANCH  22  24
ENDBRANCH   4  22
TORSDOF 6
ENDMDL
MODEL 8
REMARK VINA RESULT:      -8.0      2.788      4.577
REMARK  Name = 
REMARK  7 active torsions:
REMARK  status: ('A' for Active; 'I' for Inactive)
REMARK    1  A    between atoms: C_1  and  C_2
REMARK    2  A    between atoms: C_5  and  N_6
REMARK    3  A    between atoms: C_7  and  C_9
REMARK    4  A    between atoms: C_12  and  N_13
REMARK    5  A    between atoms: N_13  and  C_14
REMARK    6  A    between atoms: C_14  and  C_15
REMARK    7  A    between atoms: C_20  and  N_21
REMARK                            x       y       z     vdW  Elec       q    Type
REMARK                         _______ _______ _______ _____ _____    ______ ____
ROOT
ATOM      1  C   UNL     1       2.834   6.673  18.393  0.00  0.00    +0.000 A 
ATOM      2  C   UNL     1       1.975   5.708  17.870  0.00  0.00    +0.000 A 
ATOM      3  C   UNL     1       2.444   4.435  17.562  0.00  0.00    +0.000 A 
ATOM      4  C   UNL     1       3.784   4.060  17.760  0.00  0.00    +0.000 A 
ATOM      5  C   UNL     1       4.651   5.061  18.268  0.00  0.00    +0.000 A 
ATOM      6  C   UNL     1       4.179   6.362  18.579  0.00  0.00    +0.000 A 
ENDROOT
BRANCH   1   8
ATOM      7  N   UNL     1       2.003   8.929  17.908  0.00  0.00    +0.000 N 
ATOM      8  C   UNL     1       2.208   7.936  18.849  0.00  0.00    +0.000 C 
ATOM      9  O   UNL     1       1.908   7.984  20.037  0.00  0.00    +0.000 OA
ATOM     10  H   UNL     1       2.211   8.724  16.940  0.00  0.00    +0.000 HD
BRANCH   7  15
ATOM     11  C   UNL     1      -0.343  14.069  18.992  0.00  0.00    +0.000 C 
ATOM     12  C   UNL     1       0.245  12.715  18.715  0.00  0.00    +0.000 A 
ATOM     13  C   UNL     1       1.617  12.612  18.490  0.00  0.00    +0.000 A 
ATOM     14  C   UNL     1       2.205  11.375  18.223  0.00  0.00    +0.000 A 
ATOM     15  C   UNL     1       1.446  10.204  18.178  0.00  0.00    +0.000 A 
ATOM     16  C   UNL     1       0.071  10.299  18.402  0.00  0.00    +0.000 A 
ATOM     17  C   UNL     1      -0.524  11.542  18.671  0.00  0.00    +0.000 A 
ATOM     18 CL   UNL     1      -2.231  11.585  18.935  0.00  0.00    +0.000 Cl
ENDBRANCH   7  15
ENDBRANCH   1   8
BRANCH   5  19
ATOM     19  N   UNL     1       6.076   4.788  18.550  0.00  0.00    +0.000 N 
ATOM     20  O   UNL     1       6.508   4.966  19.698  0.00  0.00    +0.000 OA
ATOM     21  O   UNL     1       6.769   4.359  17.612  0.00  0.00    +0.000 OA
ENDBRANCH   5  19
BRANCH   4  22
ATOM     22  N   UNL     1       4.154   2.728  17.602  0.00  0.00    +0.000 N 
ATOM     23  H   UNL     1       4.456   2.443  16.670  0.00  0.00    +0.000 HD
BRANCH  22  24
ATOM     24  C   UNL     1       3.667   1.670  18.482  0.00  0.00    +0.000 C 
BRANCH  24  25
ATOM     25  C   UNL     1       2.999   2.110  19.735  0.00  0.00    +0.000 A 
ATOM     26  C   UNL     1       3.442   2.611  20.939  0.00  0.00    +0.000 A 
ATOM     27  C   UNL     1       2.281   2.942  21.683  0.00  0.00    +0.000 A 
ATOM     28  C   UNL     1       1.207   2.616  20.888  0.00  0.00    +0.000 A 
ATOM     29  O   UNL     1       1.632   2.105  19.706  0.00  0.00    +0.000 OA
ENDBRANCH  24  25
ENDBRANCH  22  24
ENDBRANCH   4  22
TORSDOF 6
ENDMDL
MODEL 9
REMARK VINA RESULT:      -8.0      1.220      1.343
REMARK  Name = 
REMARK  7 active torsions:
REMARK  status: ('A' for Active; 'I' for Inactive)
REMARK    1  A    between atoms: C_1  and  C_2
REMARK    2  A    between atoms: C_5  and  N_6
REMARK    3  A    between atoms: C_7  and  C_9
REMARK    4  A    between atoms: C_12  and  N_13
REMARK    5  A    between atoms: N_13  and  C_14
REMARK    6  A    between atoms: C_14  and  C_15
REMARK    7  A    between atoms: C_20  and  N_21
REMARK                            x       y       z     vdW  Elec       q    Type
REMARK                         _______ _______ _______ _____ _____    ______ ____
ROOT
ATOM      1  C   UNL     1       2.767   7.064  18.487  0.00  0.00    +0.000 A 
ATOM      2  C   UNL     1       3.730   7.433  17.549  0.00  0.00    +0.000 A 
ATOM      3  C   UNL     1       4.468   6.464  16.875  0.00  0.00    +0.000 A 
ATOM      4  C   UNL     1       4.284   5.089  17.099  0.00  0.00    +0.000 A 
ATOM      5  C   UNL     1       3.320   4.732  18.077  0.00  0.00    +0.000 A 
ATOM      6  C   UNL     1       2.568   5.715  18.770  0.00  0.00    +0.000 A 
ENDROOT
BRANCH   1   8
ATOM      7  N   UNL     1       1.660   8.161  20.381  0.00  0.00    +0.000 N 
ATOM      8  C   UNL     1       1.918   8.154  19.022  0.00  0.00    +0.000 C 
ATOM      9  O   UNL     1       1.524   8.975  18.201  0.00  0.00    +0.000 OA
ATOM     10  H   UNL     1       2.124   7.476  20.962  0.00  0.00    +0.000 HD
BRANCH   7  15
ATOM     11  C   UNL     1      -1.628  12.069  23.032  0.00  0.00    +0.000 C 
ATOM     12  C   UNL     1      -0.772  11.063  22.316  0.00  0.00    +0.000 A 
ATOM     13  C   UNL     1      -0.410   9.893  22.983  0.00  0.00    +0.000 A 
ATOM     14  C   UNL     1       0.388   8.934  22.358  0.00  0.00    +0.000 A 
ATOM     15  C   UNL     1       0.845   9.109  21.051  0.00  0.00    +0.000 A 
ATOM     16  C   UNL     1       0.488  10.278  20.376  0.00  0.00    +0.000 A 
ATOM     17  C   UNL     1      -0.316  11.245  21.001  0.00  0.00    +0.000 A 
ATOM     18 CL   UNL     1      -0.715  12.669  20.108  0.00  0.00    +0.000 Cl
ENDBRANCH   7  15
ENDBRANCH   1   8
BRANCH   5  19
ATOM     19  N   UNL     1       3.010   3.321  18.385  0.00  0.00    +0.000 N 
ATOM     20  O   UNL     1       2.998   2.950  19.568  0.00  0.00    +0.000 OA
ATOM     21  O   UNL     1       2.742   2.575  17.428  0.00  0.00    +0.000 OA
ENDBRANCH   5  19
BRANCH   4  22
ATOM     22  N   UNL     1       4.922   4.169  16.272  0.00  0.00    +0.000 N 
ATOM     23  H   UNL     1       4.484   3.252  16.184  0.00  0.00    +0.000 HD
BRANCH  22  24
ATOM     24  C   UNL     1       6.347   4.244  15.968  0.00  0.00    +0.000 C 
BRANCH  24  25
ATOM     25  C   UNL     1       6.710   4.331  14.529  0.00  0.00    +0.000 A 
ATOM     26  C   UNL     1       6.235   3.741  13.377  0.00  0.00    +0.000 A 
ATOM     27  C   UNL     1       6.945   4.337  12.304  0.00  0.00    +0.000 A 
ATOM     28  C   UNL     1       7.809   5.246  12.870  0.00  0.00    +0.000 A 
ATOM     29  O   UNL     1       7.678   5.245  14.220  0.00  0.00    +0.000 OA
ENDBRANCH  24  25
ENDBRANCH  22  24
ENDBRANCH   4  22
TORSDOF 6
ENDMDL
