MODEL 1
REMARK VINA RESULT:      -8.9      0.000      0.000
REMARK  Name = 
REMARK  11 active torsions:
REMARK  status: ('A' for Active; 'I' for Inactive)
REMARK    1  A    between atoms: C_1  and  C_2
REMARK    2  A    between atoms: C_2  and  C_3
REMARK    3  A    between atoms: C_2  and  O_4
REMARK    4  A    between atoms: O_4  and  C_5
REMARK    5  A    between atoms: C_8  and  C_9
REMARK    6  A    between atoms: C_9  and  N_10
REMARK    7  A    between atoms: C_11  and  C_13
REMARK    8  A    between atoms: C_13  and  C_14
REMARK    9  A    between atoms: C_14  and  C_15
REMARK   10  A    between atoms: C_14  and  C_21
REMARK   11  A    between atoms: C_27  and  O_28
REMARK                            x       y       z     vdW  Elec       q    Type
REMARK                         _______ _______ _______ _____ _____    ______ ____
ROOT
ATOM      1  C   UNL     1       2.655   6.971  18.016  0.00  0.00    +0.000 C 
ENDROOT
BRANCH   1   3
ATOM      2  N   UNL     1       1.599   9.133  18.238  0.00  0.00    +0.000 N 
ATOM      3  C   UNL     1       2.035   8.017  18.927  0.00  0.00    +0.000 C 
ATOM      4  O   UNL     1       2.013   7.921  20.150  0.00  0.00    +0.000 OA
ATOM      5  H   UNL     1       1.480   9.074  17.237  0.00  0.00    +0.000 HD
BRANCH   2   6
ATOM      6  C   UNL     1       0.999  10.268  18.901  0.00  0.00    +0.000 C 
BRANCH   6  10
ATOM      7  C   UNL     1      -3.067  11.022  17.627  0.00  0.00    +0.000 A 
ATOM      8  C   UNL     1      -2.483  11.772  18.645  0.00  0.00    +0.000 A 
ATOM      9  C   UNL     1      -1.173  11.515  19.048  0.00  0.00    +0.000 A 
ATOM     10  C   UNL     1      -0.416  10.500  18.449  0.00  0.00    +0.000 A 
ATOM     11  C   UNL     1      -1.017   9.723  17.451  0.00  0.00    +0.000 A 
ATOM     12  C   UNL     1      -2.331   9.985  17.044  0.00  0.00    +0.000 A 
BRANCH   7  13
ATOM     13  O   UNL     1      -4.331  11.199  17.131  0.00  0.00    +0.000 OA
BRANCH  13  15
ATOM     14  C   UNL     1      -6.179  12.712  17.158  0.00  0.00    +0.000 C 
ATOM     15  C   UNL     1      -5.327  11.763  17.995  0.00  0.00    +0.000 C 
ATOM     16  C   UNL     1      -6.197  10.655  18.582  0.00  0.00    +0.000 C 
ENDBRANCH  13  15
ENDBRANCH   7  13
ENDBRANCH   6  10
ENDBRANCH   2   6
ENDBRANCH   1   3
BRANCH   1  17
ATOM     17  C   UNL     1       3.564   5.962  18.752  0.00  0.00    +0.000 C 
BRANCH  17  18
ATOM     18  C   UNL     1       4.732   5.457  17.891  0.00  0.00    +0.000 A 
ATOM     19  C   UNL     1       4.573   5.160  16.522  0.00  0.00    +0.000 A 
ATOM     20  C   UNL     1       5.635   4.657  15.766  0.00  0.00    +0.000 A 
ATOM     21 CL   UNL     1       5.394   4.299  14.099  0.00  0.00    +0.000 Cl
ATOM     22  C   UNL     1       6.877   4.435  16.346  0.00  0.00    +0.000 A 
ATOM     23  C   UNL     1       7.063   4.731  17.696  0.00  0.00    +0.000 A 
ATOM     24  C   UNL     1       6.000   5.237  18.453  0.00  0.00    +0.000 A 
BRANCH  24  25
ATOM     25  O   UNL     1       6.202   5.537  19.771  0.00  0.00    +0.000 OA
ATOM     26  H   UNL     1       5.378   5.389  20.263  0.00  0.00    +0.000 HD
ENDBRANCH  24  25
ENDBRANCH  17  18
BRANCH  17  27
ATOM     27  C   UNL     1       2.718   4.817  19.312  0.00  0.00    +0.000 A 
ATOM     28  C   UNL     1       1.765   4.146  18.528  0.00  0.00    +0.000 A 
ATOM     29  C   UNL     1       0.916   3.196  19.100  0.00  0.00    +0.000 A 
ATOM     30  C   UNL     1       1.017   2.893  20.455  0.00  0.00    +0.000 A 
ATOM     31  C   UNL     1       1.980   3.525  21.239  0.00  0.00    +0.000 A 
ATOM     32  C   UNL     1       2.827   4.477  20.670  0.00  0.00    +0.000 A 
ENDBRANCH  17  27
ENDBRANCH   1  17
TORSDOF 9
ENDMDL
MODEL 2
REMARK VINA RESULT:      -8.6      0.350      1.279
REMARK  Name = 
REMARK  11 active torsions:
REMARK  status: ('A' for Active; 'I' for Inactive)
REMARK    1  A    between atoms: C_1  and  C_2
REMARK    2  A    between atoms: C_2  and  C_3
REMARK    3  A    between atoms: C_2  and  O_4
REMARK    4  A    between atoms: O_4  and  C_5
REMARK    5  A    between atoms: C_8  and  C_9
REMARK    6  A    between atoms: C_9  and  N_10
REMARK    7  A    between atoms: C_11  and  C_13
REMARK    8  A    between atoms: C_13  and  C_14
REMARK    9  A    between atoms: C_14  and  C_15
REMARK   10  A    between atoms: C_14  and  C_21
REMARK   11  A    between atoms: C_27  and  O_28
REMARK                            x       y       z     vdW  Elec       q    Type
REMARK                         _______ _______ _______ _____ _____    ______ ____
ROOT
ATOM      1  C   UNL     1       2.789   7.098  18.122  0.00  0.00    +0.000 C 
ENDROOT
BRANCH   1   3
ATOM      2  N   UNL     1       1.630   9.178  18.531  0.00  0.00    +0.000 N 
ATOM      3  C   UNL     1       2.108   8.022  19.119  0.00  0.00    +0.000 C 
ATOM      4  O   UNL     1       2.075   7.808  20.326  0.00  0.00    +0.000 OA
ATOM      5  H   UNL     1       1.527   9.210  17.528  0.00  0.00    +0.000 HD
BRANCH   2   6
ATOM      6  C   UNL     1       0.970  10.216  19.289  0.00  0.00    +0.000 C 
BRANCH   6  10
ATOM      7  C   UNL     1      -2.822  11.282  17.496  0.00  0.00    +0.000 A 
ATOM      8  C   UNL     1      -2.175  10.095  17.157  0.00  0.00    +0.000 A 
ATOM      9  C   UNL     1      -0.951   9.767  17.739  0.00  0.00    +0.000 A 
ATOM     10  C   UNL     1      -0.341  10.616  18.671  0.00  0.00    +0.000 A 
ATOM     11  C   UNL     1      -0.974  11.827  18.983  0.00  0.00    +0.000 A 
ATOM     12  C   UNL     1      -2.205  12.152  18.400  0.00  0.00    +0.000 A 
BRANCH   7  13
ATOM     13  O   UNL     1      -4.033  11.696  17.011  0.00  0.00    +0.000 OA
BRANCH  13  15
ATOM     14  C   UNL     1      -6.211  12.652  17.236  0.00  0.00    +0.000 C 
ATOM     15  C   UNL     1      -5.118  11.851  17.937  0.00  0.00    +0.000 C 
ATOM     16  C   UNL     1      -5.652  10.481  18.348  0.00  0.00    +0.000 C 
ENDBRANCH  13  15
ENDBRANCH   7  13
ENDBRANCH   6  10
ENDBRANCH   2   6
ENDBRANCH   1   3
BRANCH   1  17
ATOM     17  C   UNL     1       3.584   5.948  18.781  0.00  0.00    +0.000 C 
BRANCH  17  18
ATOM     18  C   UNL     1       4.757   5.453  17.922  0.00  0.00    +0.000 A 
ATOM     19  C   UNL     1       4.613   5.194  16.544  0.00  0.00    +0.000 A 
ATOM     20  C   UNL     1       5.679   4.699  15.788  0.00  0.00    +0.000 A 
ATOM     21 CL   UNL     1       5.456   4.389  14.109  0.00  0.00    +0.000 Cl
ATOM     22  C   UNL     1       6.911   4.448  16.378  0.00  0.00    +0.000 A 
ATOM     23  C   UNL     1       7.083   4.706  17.737  0.00  0.00    +0.000 A 
ATOM     24  C   UNL     1       6.016   5.203  18.493  0.00  0.00    +0.000 A 
BRANCH  24  25
ATOM     25  O   UNL     1       6.203   5.467  19.822  0.00  0.00    +0.000 OA
ATOM     26  H   UNL     1       5.402   5.881  20.183  0.00  0.00    +0.000 HD
ENDBRANCH  24  25
ENDBRANCH  17  18
BRANCH  17  27
ATOM     27  C   UNL     1       2.630   4.817  19.170  0.00  0.00    +0.000 A 
ATOM     28  C   UNL     1       2.491   4.388  20.500  0.00  0.00    +0.000 A 
ATOM     29  C   UNL     1       1.714   3.269  20.808  0.00  0.00    +0.000 A 
ATOM     30  C   UNL     1       1.056   2.573  19.797  0.00  0.00    +0.000 A 
ATOM     31  C   UNL     1       1.157   3.007  18.477  0.00  0.00    +0.000 A 
ATOM     32  C   UNL     1       1.935   4.123  18.166  0.00  0.00    +0.000 A 
ENDBRANCH  17  27
ENDBRANCH   1  17
TORSDOF 9
ENDMDL
MODEL 3
REMARK VINA RESULT:      -8.5      3.975      8.627
REMARK  Name = 
REMARK  11 active torsions:
REMARK  status: ('A' for Active; 'I' for Inactive)
REMARK    1  A    between atoms: C_1  and  C_2
REMARK    2  A    between atoms: C_2  and  C_3
REMARK    3  A    between atoms: C_2  and  O_4
REMARK    4  A    between atoms: O_4  and  C_5
REMARK    5  A    between atoms: C_8  and  C_9
REMARK    6  A    between atoms: C_9  and  N_10
REMARK    7  A    between atoms: C_11  and  C_13
REMARK    8  A    between atoms: C_13  and  C_14
REMARK    9  A    between atoms: C_14  and  C_15
REMARK   10  A    between atoms: C_14  and  C_21
REMARK   11  A    between atoms: C_27  and  O_28
REMARK                            x       y       z     vdW  Elec       q    Type
REMARK                         _______ _______ _______ _____ _____    ______ ____
ROOT
ATOM      1  C   UNL     1       4.393   5.860  19.700  0.00  0.00    +0.000 C 
ENDROOT
BRANCH   1   3
ATOM      2  N   UNL     1       6.181   5.648  18.088  0.00  0.00    +0.000 N 
ATOM      3  C   UNL     1       5.518   5.016  19.122  0.00  0.00    +0.000 C 
ATOM      4  O   UNL     1       5.745   3.862  19.473  0.00  0.00    +0.000 OA
ATOM      5  H   UNL     1       6.070   6.645  17.973  0.00  0.00    +0.000 HD
BRANCH   2   6
ATOM      6  C   UNL     1       7.269   5.025  17.370  0.00  0.00    +0.000 C 
BRANCH   6  10
ATOM      7  C   UNL     1       6.296   4.155  13.244  0.00  0.00    +0.000 A 
ATOM      8  C   UNL     1       7.431   4.892  13.575  0.00  0.00    +0.000 A 
ATOM      9  C   UNL     1       7.730   5.168  14.908  0.00  0.00    +0.000 A 
ATOM     10  C   UNL     1       6.901   4.721  15.945  0.00  0.00    +0.000 A 
ATOM     11  C   UNL     1       5.740   4.012  15.609  0.00  0.00    +0.000 A 
ATOM     12  C   UNL     1       5.444   3.732  14.270  0.00  0.00    +0.000 A 
BRANCH   7  13
ATOM     13  O   UNL     1       5.915   3.801  11.978  0.00  0.00    +0.000 OA
BRANCH  13  15
ATOM     14  C   UNL     1       3.877   3.103  10.945  0.00  0.00    +0.000 C 
ATOM     15  C   UNL     1       5.049   2.669  11.821  0.00  0.00    +0.000 C 
ATOM     16  C   UNL     1       5.805   1.521  11.156  0.00  0.00    +0.000 C 
ENDBRANCH  13  15
ENDBRANCH   7  13
ENDBRANCH   6  10
ENDBRANCH   2   6
ENDBRANCH   1   3
BRANCH   1  17
ATOM     17  C   UNL     1       3.174   6.001  18.762  0.00  0.00    +0.000 C 
BRANCH  17  18
ATOM     18  C   UNL     1       2.465   7.358  18.887  0.00  0.00    +0.000 A 
ATOM     19  C   UNL     1       1.791   7.739  20.065  0.00  0.00    +0.000 A 
ATOM     20  C   UNL     1       1.112   8.958  20.145  0.00  0.00    +0.000 A 
ATOM     21 CL   UNL     1       0.295   9.379  21.600  0.00  0.00    +0.000 Cl
ATOM     22  C   UNL     1       1.085   9.827  19.062  0.00  0.00    +0.000 A 
ATOM     23  C   UNL     1       1.753   9.478  17.889  0.00  0.00    +0.000 A 
ATOM     24  C   UNL     1       2.434   8.258  17.810  0.00  0.00    +0.000 A 
BRANCH  24  25
ATOM     25  O   UNL     1       3.099   7.937  16.659  0.00  0.00    +0.000 OA
ATOM     26  H   UNL     1       3.767   7.259  16.853  0.00  0.00    +0.000 HD
ENDBRANCH  24  25
ENDBRANCH  17  18
BRANCH  17  27
ATOM     27  C   UNL     1       2.219   4.825  18.976  0.00  0.00    +0.000 A 
ATOM     28  C   UNL     1       1.671   4.534  20.236  0.00  0.00    +0.000 A 
ATOM     29  C   UNL     1       0.908   3.380  20.430  0.00  0.00    +0.000 A 
ATOM     30  C   UNL     1       0.671   2.511  19.369  0.00  0.00    +0.000 A 
ATOM     31  C   UNL     1       1.178   2.804  18.105  0.00  0.00    +0.000 A 
ATOM     32  C   UNL     1       1.944   3.955  17.909  0.00  0.00    +0.000 A 
ENDBRANCH  17  27
ENDBRANCH   1  17
TORSDOF 9
ENDMDL
MODEL 4
REMARK VINA RESULT:      -8.5      0.650      1.253
REMARK  Name = 
REMARK  11 active torsions:
REMARK  status: ('A' for Active; 'I' for Inactive)
REMARK    1  A    between atoms: C_1  and  C_2
REMARK    2  A    between atoms: C_2  and  C_3
REMARK    3  A    between atoms: C_2  and  O_4
REMARK    4  A    between atoms: O_4  and  C_5
REMARK    5  A    between atoms: C_8  and  C_9
REMARK    6  A    between atoms: C_9  and  N_10
REMARK    7  A    between atoms: C_11  and  C_13
REMARK    8  A    between atoms: C_13  and  C_14
REMARK    9  A    between atoms: C_14  and  C_15
REMARK   10  A    between atoms: C_14  and  C_21
REMARK   11  A    between atoms: C_27  and  O_28
REMARK                            x       y       z     vdW  Elec       q    Type
REMARK                         _______ _______ _______ _____ _____    ______ ____
ROOT
ATOM      1  C   UNL     1       2.519   6.821  17.911  0.00  0.00    +0.000 C 
ENDROOT
BRANCH   1   3
ATOM      2  N   UNL     1       2.089   9.198  17.856  0.00  0.00    +0.000 N 
ATOM      3  C   UNL     1       2.184   8.090  18.677  0.00  0.00    +0.000 C 
ATOM      4  O   UNL     1       2.102   8.140  19.900  0.00  0.00    +0.000 OA
ATOM      5  H   UNL     1       1.986   9.061  16.861  0.00  0.00    +0.000 HD
BRANCH   2   6
ATOM      6  C   UNL     1       1.804  10.519  18.367  0.00  0.00    +0.000 C 
BRANCH   6  10
ATOM      7  C   UNL     1      -2.464  11.193  18.598  0.00  0.00    +0.000 A 
ATOM      8  C   UNL     1      -1.946  10.102  17.903  0.00  0.00    +0.000 A 
ATOM      9  C   UNL     1      -0.568   9.900  17.834  0.00  0.00    +0.000 A 
ATOM     10  C   UNL     1       0.327  10.783  18.451  0.00  0.00    +0.000 A 
ATOM     11  C   UNL     1      -0.194  11.900  19.117  0.00  0.00    +0.000 A 
ATOM     12  C   UNL     1      -1.578  12.099  19.189  0.00  0.00    +0.000 A 
BRANCH   7  13
ATOM     13  O   UNL     1      -3.793  11.479  18.755  0.00  0.00    +0.000 OA
BRANCH  13  15
ATOM     14  C   UNL     1      -6.022  10.638  18.577  0.00  0.00    +0.000 C 
ATOM     15  C   UNL     1      -4.725  10.914  17.823  0.00  0.00    +0.000 C 
ATOM     16  C   UNL     1      -4.980  11.895  16.681  0.00  0.00    +0.000 C 
ENDBRANCH  13  15
ENDBRANCH   7  13
ENDBRANCH   6  10
ENDBRANCH   2   6
ENDBRANCH   1   3
BRANCH   1  17
ATOM     17  C   UNL     1       3.450   5.857  18.680  0.00  0.00    +0.000 C 
BRANCH  17  18
ATOM     18  C   UNL     1       4.656   5.388  17.851  0.00  0.00    +0.000 A 
ATOM     19  C   UNL     1       4.547   5.104  16.474  0.00  0.00    +0.000 A 
ATOM     20  C   UNL     1       5.643   4.634  15.747  0.00  0.00    +0.000 A 
ATOM     21 CL   UNL     1       5.463   4.291  14.069  0.00  0.00    +0.000 Cl
ATOM     22  C   UNL     1       6.871   4.433  16.363  0.00  0.00    +0.000 A 
ATOM     23  C   UNL     1       7.008   4.717  17.722  0.00  0.00    +0.000 A 
ATOM     24  C   UNL     1       5.910   5.190  18.450  0.00  0.00    +0.000 A 
BRANCH  24  25
ATOM     25  O   UNL     1       6.064   5.480  19.778  0.00  0.00    +0.000 OA
ATOM     26  H   UNL     1       5.358   5.044  20.284  0.00  0.00    +0.000 HD
ENDBRANCH  24  25
ENDBRANCH  17  18
BRANCH  17  27
ATOM     27  C   UNL     1       2.637   4.686  19.235  0.00  0.00    +0.000 A 
ATOM     28  C   UNL     1       1.856   3.865  18.405  0.00  0.00    +0.000 A 
ATOM     29  C   UNL     1       1.023   2.887  18.954  0.00  0.00    +0.000 A 
ATOM     30  C   UNL     1       0.968   2.708  20.333  0.00  0.00    +0.000 A 
ATOM     31  C   UNL     1       1.763   3.491  21.168  0.00  0.00    +0.000 A 
ATOM     32  C   UNL     1       2.594   4.471  20.622  0.00  0.00    +0.000 A 
ENDBRANCH  17  27
ENDBRANCH   1  17
TORSDOF 9
ENDMDL
MODEL 5
REMARK VINA RESULT:      -8.1      2.966      4.245
REMARK  Name = 
REMARK  11 active torsions:
REMARK  status: ('A' for Active; 'I' for Inactive)
REMARK    1  A    between atoms: C_1  and  C_2
REMARK    2  A    between atoms: C_2  and  C_3
REMARK    3  A    between atoms: C_2  and  O_4
REMARK    4  A    between atoms: O_4  and  C_5
REMARK    5  A    between atoms: C_8  and  C_9
REMARK    6  A    between atoms: C_9  and  N_10
REMARK    7  A    between atoms: C_11  and  C_13
REMARK    8  A    between atoms: C_13  and  C_14
REMARK    9  A    between atoms: C_14  and  C_15
REMARK   10  A    between atoms: C_14  and  C_21
REMARK   11  A    between atoms: C_27  and  O_28
REMARK                            x       y       z     vdW  Elec       q    Type
REMARK                         _______ _______ _______ _____ _____    ______ ____
ROOT
ATOM      1  C   UNL     1       3.112   7.140  17.881  0.00  0.00    +0.000 C 
ENDROOT
BRANCH   1   3
ATOM      2  N   UNL     1       1.528   8.948  18.122  0.00  0.00    +0.000 N 
ATOM      3  C   UNL     1       2.206   7.949  18.794  0.00  0.00    +0.000 C 
ATOM      4  O   UNL     1       2.158   7.792  20.010  0.00  0.00    +0.000 OA
ATOM      5  H   UNL     1       1.471   8.908  17.115  0.00  0.00    +0.000 HD
BRANCH   2   6
ATOM      6  C   UNL     1       0.630   9.861  18.791  0.00  0.00    +0.000 C 
BRANCH   6  10
ATOM      7  C   UNL     1       2.489  13.713  19.447  0.00  0.00    +0.000 A 
ATOM      8  C   UNL     1       2.742  12.981  18.289  0.00  0.00    +0.000 A 
ATOM      9  C   UNL     1       2.140  11.739  18.093  0.00  0.00    +0.000 A 
ATOM     10  C   UNL     1       1.273  11.195  19.050  0.00  0.00    +0.000 A 
ATOM     11  C   UNL     1       1.048  11.915  20.230  0.00  0.00    +0.000 A 
ATOM     12  C   UNL     1       1.651  13.164  20.423  0.00  0.00    +0.000 A 
BRANCH   7  13
ATOM     13  O   UNL     1       3.000  14.949  19.737  0.00  0.00    +0.000 OA
BRANCH  13  15
ATOM     14  C   UNL     1       2.067  17.113  19.341  0.00  0.00    +0.000 C 
ATOM     15  C   UNL     1       2.894  15.978  18.743  0.00  0.00    +0.000 C 
ATOM     16  C   UNL     1       4.285  16.484  18.366  0.00  0.00    +0.000 C 
ENDBRANCH  13  15
ENDBRANCH   7  13
ENDBRANCH   6  10
ENDBRANCH   2   6
ENDBRANCH   1   3
BRANCH   1  17
ATOM     17  C   UNL     1       3.866   6.000  18.601  0.00  0.00    +0.000 C 
BRANCH  17  18
ATOM     18  C   UNL     1       5.071   5.472  17.807  0.00  0.00    +0.000 A 
ATOM     19  C   UNL     1       5.004   5.245  16.417  0.00  0.00    +0.000 A 
ATOM     20  C   UNL     1       6.094   4.720  15.719  0.00  0.00    +0.000 A 
ATOM     21 CL   UNL     1       5.965   4.451  14.024  0.00  0.00    +0.000 Cl
ATOM     22  C   UNL     1       7.275   4.408  16.379  0.00  0.00    +0.000 A 
ATOM     23  C   UNL     1       7.371   4.633  17.752  0.00  0.00    +0.000 A 
ATOM     24  C   UNL     1       6.279   5.160  18.450  0.00  0.00    +0.000 A 
BRANCH  24  25
ATOM     25  O   UNL     1       6.394   5.391  19.793  0.00  0.00    +0.000 OA
ATOM     26  H   UNL     1       7.266   5.091  20.097  0.00  0.00    +0.000 HD
ENDBRANCH  24  25
ENDBRANCH  17  18
BRANCH  17  27
ATOM     27  C   UNL     1       2.885   4.887  18.975  0.00  0.00    +0.000 A 
ATOM     28  C   UNL     1       2.005   4.327  18.036  0.00  0.00    +0.000 A 
ATOM     29  C   UNL     1       1.031   3.407  18.433  0.00  0.00    +0.000 A 
ATOM     30  C   UNL     1       0.934   3.025  19.769  0.00  0.00    +0.000 A 
ATOM     31  C   UNL     1       1.823   3.545  20.707  0.00  0.00    +0.000 A 
ATOM     32  C   UNL     1       2.794   4.467  20.312  0.00  0.00    +0.000 A 
ENDBRANCH  17  27
ENDBRANCH   1  17
TORSDOF 9
ENDMDL
MODEL 6
REMARK VINA RESULT:      -8.1      0.729      1.132
REMARK  Name = 
REMARK  11 active torsions:
REMARK  status: ('A' for Active; 'I' for Inactive)
REMARK    1  A    between atoms: C_1  and  C_2
REMARK    2  A    between atoms: C_2  and  C_3
REMARK    3  A    between atoms: C_2  and  O_4
REMARK    4  A    between atoms: O_4  and  C_5
REMARK    5  A    between atoms: C_8  and  C_9
REMARK    6  A    between atoms: C_9  and  N_10
REMARK    7  A    between atoms: C_11  and  C_13
REMARK    8  A    between atoms: C_13  and  C_14
REMARK    9  A    between atoms: C_14  and  C_15
REMARK   10  A    between atoms: C_14  and  C_21
REMARK   11  A    between atoms: C_27  and  O_28
REMARK                            x       y       z     vdW  Elec       q    Type
REMARK                         _______ _______ _______ _____ _____    ______ ____
ROOT
ATOM      1  C   UNL     1       2.302   6.900  17.546  0.00  0.00    +0.000 C 
ENDROOT
BRANCH   1   3
ATOM      2  N   UNL     1       0.850   8.757  18.074  0.00  0.00    +0.000 N 
ATOM      3  C   UNL     1       2.168   8.361  17.943  0.00  0.00    +0.000 C 
ATOM      4  O   UNL     1       3.122   9.125  18.041  0.00  0.00    +0.000 OA
ATOM      5  H   UNL     1       0.134   8.051  18.160  0.00  0.00    +0.000 HD
BRANCH   2   6
ATOM      6  C   UNL     1       0.479  10.110  18.420  0.00  0.00    +0.000 C 
BRANCH   6  10
ATOM      7  C   UNL     1      -3.676  10.997  17.597  0.00  0.00    +0.000 A 
ATOM      8  C   UNL     1      -3.006  11.610  18.654  0.00  0.00    +0.000 A 
ATOM      9  C   UNL     1      -1.669  11.311  18.910  0.00  0.00    +0.000 A 
ATOM     10  C   UNL     1      -0.967  10.390  18.121  0.00  0.00    +0.000 A 
ATOM     11  C   UNL     1      -1.652   9.747  17.082  0.00  0.00    +0.000 A 
ATOM     12  C   UNL     1      -2.995  10.052  16.824  0.00  0.00    +0.000 A 
BRANCH   7  13
ATOM     13  O   UNL     1      -4.975  11.229  17.234  0.00  0.00    +0.000 OA
BRANCH  13  15
ATOM     14  C   UNL     1      -6.464  13.082  16.998  0.00  0.00    +0.000 C 
ATOM     15  C   UNL     1      -5.731  12.185  17.991  0.00  0.00    +0.000 C 
ATOM     16  C   UNL     1      -6.734  11.465  18.889  0.00  0.00    +0.000 C 
ENDBRANCH  13  15
ENDBRANCH   7  13
ENDBRANCH   6  10
ENDBRANCH   2   6
ENDBRANCH   1   3
BRANCH   1  17
ATOM     17  C   UNL     1       3.225   6.083  18.477  0.00  0.00    +0.000 C 
BRANCH  17  18
ATOM     18  C   UNL     1       4.463   5.519  17.763  0.00  0.00    +0.000 A 
ATOM     19  C   UNL     1       4.454   5.216  16.386  0.00  0.00    +0.000 A 
ATOM     20  C   UNL     1       5.574   4.661  15.763  0.00  0.00    +0.000 A 
ATOM     21 CL   UNL     1       5.517   4.299  14.081  0.00  0.00    +0.000 Cl
ATOM     22  C   UNL     1       6.728   4.391  16.487  0.00  0.00    +0.000 A 
ATOM     23  C   UNL     1       6.766   4.691  17.849  0.00  0.00    +0.000 A 
ATOM     24  C   UNL     1       5.645   5.249  18.472  0.00  0.00    +0.000 A 
BRANCH  24  25
ATOM     25  O   UNL     1       5.702   5.553  19.804  0.00  0.00    +0.000 OA
ATOM     26  H   UNL     1       4.833   5.392  20.207  0.00  0.00    +0.000 HD
ENDBRANCH  24  25
ENDBRANCH  17  18
BRANCH  17  27
ATOM     27  C   UNL     1       2.414   4.993  19.181  0.00  0.00    +0.000 A 
ATOM     28  C   UNL     1       2.408   4.857  20.579  0.00  0.00    +0.000 A 
ATOM     29  C   UNL     1       1.766   3.776  21.186  0.00  0.00    +0.000 A 
ATOM     30  C   UNL     1       1.110   2.825  20.408  0.00  0.00    +0.000 A 
ATOM     31  C   UNL     1       1.077   2.964  19.022  0.00  0.00    +0.000 A 
ATOM     32  C   UNL     1       1.721   4.043  18.413  0.00  0.00    +0.000 A 
ENDBRANCH  17  27
ENDBRANCH   1  17
TORSDOF 9
ENDMDL
MODEL 7
REMARK VINA RESULT:      -8.0      2.582      3.059
REMARK  Name = 
REMARK  11 active torsions:
REMARK  status: ('A' for Active; 'I' for Inactive)
REMARK    1  A    between atoms: C_1  and  C_2
REMARK    2  A    between atoms: C_2  and  C_3
REMARK    3  A    between atoms: C_2  and  O_4
REMARK    4  A    between atoms: O_4  and  C_5
REMARK    5  A    between atoms: C_8  and  C_9
REMARK    6  A    between atoms: C_9  and  N_10
REMARK    7  A    between atoms: C_11  and  C_13
REMARK    8  A    between atoms: C_13  and  C_14
REMARK    9  A    between atoms: C_14  and  C_15
REMARK   10  A    between atoms: C_14  and  C_21
REMARK   11  A    between atoms: C_27  and  O_28
REMARK                            x       y       z     vdW  Elec       q    Type
REMARK                         _______ _______ _______ _____ _____    ______ ____
ROOT
ATOM      1  C   UNL     1       2.480   6.377  17.834  0.00  0.00    +0.000 C 
ENDROOT
BRANCH   1   3
ATOM      2  N   UNL     1       1.348   8.498  18.076  0.00  0.00    +0.000 N 
ATOM      3  C   UNL     1       2.575   7.893  17.881  0.00  0.00    +0.000 C 
ATOM      4  O   UNL     1       3.614   8.511  17.672  0.00  0.00    +0.000 OA
ATOM      5  H   UNL     1       0.578   7.942  18.417  0.00  0.00    +0.000 HD
BRANCH   2   6
ATOM      6  C   UNL     1       1.192   9.933  18.128  0.00  0.00    +0.000 C 
BRANCH   6  10
ATOM      7  C   UNL     1      -0.723  11.269  21.772  0.00  0.00    +0.000 A 
ATOM      8  C   UNL     1      -0.843  11.995  20.589  0.00  0.00    +0.000 A 
ATOM      9  C   UNL     1      -0.217  11.555  19.423  0.00  0.00    +0.000 A 
ATOM     10  C   UNL     1       0.548  10.382  19.410  0.00  0.00    +0.000 A 
ATOM     11  C   UNL     1       0.699   9.673  20.609  0.00  0.00    +0.000 A 
ATOM     12  C   UNL     1       0.066  10.115  21.777  0.00  0.00    +0.000 A 
BRANCH   7  13
ATOM     13  O   UNL     1      -1.310  11.588  22.967  0.00  0.00    +0.000 OA
BRANCH  13  15
ATOM     14  C   UNL     1      -3.408  12.351  23.817  0.00  0.00    +0.000 C 
ATOM     15  C   UNL     1      -2.168  12.736  23.017  0.00  0.00    +0.000 C 
ATOM     16  C   UNL     1      -1.445  13.898  23.695  0.00  0.00    +0.000 C 
ENDBRANCH  13  15
ENDBRANCH   7  13
ENDBRANCH   6  10
ENDBRANCH   2   6
ENDBRANCH   1   3
BRANCH   1  17
ATOM     17  C   UNL     1       3.557   5.657  18.675  0.00  0.00    +0.000 C 
BRANCH  17  18
ATOM     18  C   UNL     1       4.788   5.241  17.856  0.00  0.00    +0.000 A 
ATOM     19  C   UNL     1       4.701   4.939  16.482  0.00  0.00    +0.000 A 
ATOM     20  C   UNL     1       5.822   4.517  15.764  0.00  0.00    +0.000 A 
ATOM     21 CL   UNL     1       5.668   4.151  14.089  0.00  0.00    +0.000 Cl
ATOM     22  C   UNL     1       7.055   4.382  16.388  0.00  0.00    +0.000 A 
ATOM     23  C   UNL     1       7.171   4.684  17.745  0.00  0.00    +0.000 A 
ATOM     24  C   UNL     1       6.048   5.109  18.463  0.00  0.00    +0.000 A 
BRANCH  24  25
ATOM     25  O   UNL     1       6.180   5.417  19.789  0.00  0.00    +0.000 OA
ATOM     26  H   UNL     1       5.430   5.044  20.281  0.00  0.00    +0.000 HD
ENDBRANCH  24  25
ENDBRANCH  17  18
BRANCH  17  27
ATOM     27  C   UNL     1       2.929   4.478  19.420  0.00  0.00    +0.000 A 
ATOM     28  C   UNL     1       2.516   3.313  18.752  0.00  0.00    +0.000 A 
ATOM     29  C   UNL     1       1.827   2.308  19.435  0.00  0.00    +0.000 A 
ATOM     30  C   UNL     1       1.555   2.445  20.794  0.00  0.00    +0.000 A 
ATOM     31  C   UNL     1       1.989   3.579  21.478  0.00  0.00    +0.000 A 
ATOM     32  C   UNL     1       2.674   4.586  20.796  0.00  0.00    +0.000 A 
ENDBRANCH  17  27
ENDBRANCH   1  17
TORSDOF 9
ENDMDL
MODEL 8
REMARK VINA RESULT:      -7.9      2.907      3.357
REMARK  Name = 
REMARK  11 active torsions:
REMARK  status: ('A' for Active; 'I' for Inactive)
REMARK    1  A    between atoms: C_1  and  C_2
REMARK    2  A    between atoms: C_2  and  C_3
REMARK    3  A    between atoms: C_2  and  O_4
REMARK    4  A    between atoms: O_4  and  C_5
REMARK    5  A    between atoms: C_8  and  C_9
REMARK    6  A    between atoms: C_9  and  N_10
REMARK    7  A    between atoms: C_11  and  C_13
REMARK    8  A    between atoms: C_13  and  C_14
REMARK    9  A    between atoms: C_14  and  C_15
REMARK   10  A    between atoms: C_14  and  C_21
REMARK   11  A    between atoms: C_27  and  O_28
REMARK                            x       y       z     vdW  Elec       q    Type
REMARK                         _______ _______ _______ _____ _____    ______ ____
ROOT
ATOM      1  C   UNL     1       2.477   6.525  17.721  0.00  0.00    +0.000 C 
ENDROOT
BRANCH   1   3
ATOM      2  N   UNL     1       1.612   8.763  18.001  0.00  0.00    +0.000 N 
ATOM      3  C   UNL     1       2.763   8.011  17.861  0.00  0.00    +0.000 C 
ATOM      4  O   UNL     1       3.885   8.496  17.762  0.00  0.00    +0.000 OA
ATOM      5  H   UNL     1       0.752   8.299  18.254  0.00  0.00    +0.000 HD
BRANCH   2   6
ATOM      6  C   UNL     1       1.637  10.203  18.123  0.00  0.00    +0.000 C 
BRANCH   6  10
ATOM      7  C   UNL     1      -0.145  11.462  21.860  0.00  0.00    +0.000 A 
ATOM      8  C   UNL     1      -0.160  10.124  21.473  0.00  0.00    +0.000 A 
ATOM      9  C   UNL     1       0.415   9.733  20.264  0.00  0.00    +0.000 A 
ATOM     10  C   UNL     1       1.013  10.668  19.409  0.00  0.00    +0.000 A 
ATOM     11  C   UNL     1       0.994  12.018  19.783  0.00  0.00    +0.000 A 
ATOM     12  C   UNL     1       0.421  12.408  21.000  0.00  0.00    +0.000 A 
BRANCH   7  13
ATOM     13  O   UNL     1      -0.652  11.959  23.031  0.00  0.00    +0.000 OA
BRANCH  13  15
ATOM     14  C   UNL     1      -2.987  12.267  23.431  0.00  0.00    +0.000 C 
ATOM     15  C   UNL     1      -1.700  12.935  22.956  0.00  0.00    +0.000 C 
ATOM     16  C   UNL     1      -1.367  14.128  23.851  0.00  0.00    +0.000 C 
ENDBRANCH  13  15
ENDBRANCH   7  13
ENDBRANCH   6  10
ENDBRANCH   2   6
ENDBRANCH   1   3
BRANCH   1  17
ATOM     17  C   UNL     1       3.431   5.627  18.539  0.00  0.00    +0.000 C 
BRANCH  17  18
ATOM     18  C   UNL     1       4.698   5.225  17.767  0.00  0.00    +0.000 A 
ATOM     19  C   UNL     1       4.662   4.902  16.395  0.00  0.00    +0.000 A 
ATOM     20  C   UNL     1       5.815   4.493  15.720  0.00  0.00    +0.000 A 
ATOM     21 CL   UNL     1       5.723   4.099  14.047  0.00  0.00    +0.000 Cl
ATOM     22  C   UNL     1       7.029   4.394  16.387  0.00  0.00    +0.000 A 
ATOM     23  C   UNL     1       7.094   4.719  17.741  0.00  0.00    +0.000 A 
ATOM     24  C   UNL     1       5.939   5.130  18.416  0.00  0.00    +0.000 A 
BRANCH  24  25
ATOM     25  O   UNL     1       6.021   5.461  19.741  0.00  0.00    +0.000 OA
ATOM     26  H   UNL     1       6.953   5.451  20.016  0.00  0.00    +0.000 HD
ENDBRANCH  24  25
ENDBRANCH  17  18
BRANCH  17  27
ATOM     27  C   UNL     1       2.668   4.414  19.073  0.00  0.00    +0.000 A 
ATOM     28  C   UNL     1       2.935   3.867  20.339  0.00  0.00    +0.000 A 
ATOM     29  C   UNL     1       2.316   2.683  20.747  0.00  0.00    +0.000 A 
ATOM     30  C   UNL     1       1.414   2.039  19.905  0.00  0.00    +0.000 A 
ATOM     31  C   UNL     1       1.111   2.588  18.661  0.00  0.00    +0.000 A 
ATOM     32  C   UNL     1       1.731   3.769  18.250  0.00  0.00    +0.000 A 
ENDBRANCH  17  27
ENDBRANCH   1  17
TORSDOF 9
ENDMDL
MODEL 9
REMARK VINA RESULT:      -7.9      2.401      2.908
REMARK  Name = 
REMARK  11 active torsions:
REMARK  status: ('A' for Active; 'I' for Inactive)
REMARK    1  A    between atoms: C_1  and  C_2
REMARK    2  A    between atoms: C_2  and  C_3
REMARK    3  A    between atoms: C_2  and  O_4
REMARK    4  A    between atoms: O_4  and  C_5
REMARK    5  A    between atoms: C_8  and  C_9
REMARK    6  A    between atoms: C_9  and  N_10
REMARK    7  A    between atoms: C_11  and  C_13
REMARK    8  A    between atoms: C_13  and  C_14
REMARK    9  A    between atoms: C_14  and  C_15
REMARK   10  A    between atoms: C_14  and  C_21
REMARK   11  A    between atoms: C_27  and  O_28
REMARK                            x       y       z     vdW  Elec       q    Type
REMARK                         _______ _______ _______ _____ _____    ______ ____
ROOT
ATOM      1  C   UNL     1       2.680   6.289  18.115  0.00  0.00    +0.000 C 
ENDROOT
BRANCH   1   3
ATOM      2  N   UNL     1       1.811   8.527  18.389  0.00  0.00    +0.000 N 
ATOM      3  C   UNL     1       2.797   7.769  17.788  0.00  0.00    +0.000 C 
ATOM      4  O   UNL     1       3.619   8.223  16.998  0.00  0.00    +0.000 OA
ATOM      5  H   UNL     1       1.288   8.129  19.156  0.00  0.00    +0.000 HD
BRANCH   2   6
ATOM      6  C   UNL     1       1.707   9.955  18.200  0.00  0.00    +0.000 C 
BRANCH   6  10
ATOM      7  C   UNL     1      -1.266  11.681  20.828  0.00  0.00    +0.000 A 
ATOM      8  C   UNL     1      -0.541  10.553  21.206  0.00  0.00    +0.000 A 
ATOM      9  C   UNL     1       0.411  10.005  20.347  0.00  0.00    +0.000 A 
ATOM     10  C   UNL     1       0.660  10.566  19.088  0.00  0.00    +0.000 A 
ATOM     11  C   UNL     1      -0.096  11.678  18.694  0.00  0.00    +0.000 A 
ATOM     12  C   UNL     1      -1.049  12.229  19.560  0.00  0.00    +0.000 A 
BRANCH   7  13
ATOM     13  O   UNL     1      -2.204  12.320  21.594  0.00  0.00    +0.000 OA
BRANCH  13  15
ATOM     14  C   UNL     1      -1.265  13.615  23.369  0.00  0.00    +0.000 C 
ATOM     15  C   UNL     1      -2.021  12.337  23.016  0.00  0.00    +0.000 C 
ATOM     16  C   UNL     1      -3.378  12.320  23.717  0.00  0.00    +0.000 C 
ENDBRANCH  13  15
ENDBRANCH   7  13
ENDBRANCH   6  10
ENDBRANCH   2   6
ENDBRANCH   1   3
BRANCH   1  17
ATOM     17  C   UNL     1       3.900   5.720  18.874  0.00  0.00    +0.000 C 
BRANCH  17  18
ATOM     18  C   UNL     1       5.044   5.286  17.945  0.00  0.00    +0.000 A 
ATOM     19  C   UNL     1       4.822   4.970  16.589  0.00  0.00    +0.000 A 
ATOM     20  C   UNL     1       5.866   4.532  15.771  0.00  0.00    +0.000 A 
ATOM     21 CL   UNL     1       5.549   4.149  14.123  0.00  0.00    +0.000 Cl
ATOM     22  C   UNL     1       7.153   4.395  16.275  0.00  0.00    +0.000 A 
ATOM     23  C   UNL     1       7.401   4.711  17.611  0.00  0.00    +0.000 A 
ATOM     24  C   UNL     1       6.355   5.152  18.429  0.00  0.00    +0.000 A 
BRANCH  24  25
ATOM     25  O   UNL     1       6.617   5.473  19.732  0.00  0.00    +0.000 OA
ATOM     26  H   UNL     1       7.575   5.583  19.849  0.00  0.00    +0.000 HD
ENDBRANCH  24  25
ENDBRANCH  17  18
BRANCH  17  27
ATOM     27  C   UNL     1       3.449   4.593  19.806  0.00  0.00    +0.000 A 
ATOM     28  C   UNL     1       3.968   3.292  19.703  0.00  0.00    +0.000 A 
ATOM     29  C   UNL     1       3.444   2.254  20.477  0.00  0.00    +0.000 A 
ATOM     30  C   UNL     1       2.408   2.504  21.373  0.00  0.00    +0.000 A 
ATOM     31  C   UNL     1       1.906   3.796  21.513  0.00  0.00    +0.000 A 
ATOM     32  C   UNL     1       2.426   4.834  20.737  0.00  0.00    +0.000 A 
ENDBRANCH  17  27
ENDBRANCH   1  17
TORSDOF 9
ENDMDL
