MODEL 1
REMARK VINA RESULT:      -9.5      0.000      0.000
REMARK  Name = 
REMARK  5 active torsions:
REMARK  status: ('A' for Active; 'I' for Inactive)
REMARK    1  A    between atoms: C_2  and  C_26
REMARK    2  A    between atoms: N_3  and  C_4
REMARK    3  A    between atoms: C_8  and  N_9
REMARK    4  A    between atoms: N_9  and  C_10
REMARK    5  A    between atoms: C_15  and  C_16
REMARK                            x       y       z     vdW  Elec       q    Type
REMARK                         _______ _______ _______ _____ _____    ______ ____
ROOT
ATOM      1  C   UNL     1       2.769   4.469  19.479  0.00  0.00    +0.000 A 
ATOM      2  N   UNL     1       1.540   3.914  19.661  0.00  0.00    +0.000 NA
ATOM      3  C   UNL     1       1.276   2.726  19.092  0.00  0.00    +0.000 A 
ATOM      4  C   UNL     1       2.175   2.056  18.294  0.00  0.00    +0.000 A 
ATOM      5  C   UNL     1       3.434   2.622  18.111  0.00  0.00    +0.000 A 
ATOM      6  C   UNL     1       3.786   3.839  18.729  0.00  0.00    +0.000 A 
ENDROOT
BRANCH   6   7
ATOM      7  C   UNL     1       5.124   4.412  18.506  0.00  0.00    +0.000 A 
ATOM      8  N   UNL     1       5.771   4.990  19.568  0.00  0.00    +0.000 NA
ATOM      9  C   UNL     1       7.020   5.474  19.381  0.00  0.00    +0.000 A 
ATOM     10  N   UNL     1       7.747   5.484  18.247  0.00  0.00    +0.000 NA
ATOM     11  C   UNL     1       7.059   4.938  17.235  0.00  0.00    +0.000 A 
ATOM     12  N   UNL     1       7.494   4.767  15.952  0.00  0.00    +0.000 N 
ATOM     13  C   UNL     1       6.480   4.184  15.246  0.00  0.00    +0.000 A 
ATOM     14  N   UNL     1       5.423   3.965  15.998  0.00  0.00    +0.000 NA
ATOM     15  C   UNL     1       5.778   4.409  17.260  0.00  0.00    +0.000 A 
ATOM     16  H   UNL     1       8.409   5.017  15.610  0.00  0.00    +0.000 HD
ENDBRANCH   6   7
BRANCH   1  17
ATOM     17  N   UNL     1       2.973   5.749  20.021  0.00  0.00    +0.000 N 
ATOM     18  H   UNL     1       3.154   5.707  21.024  0.00  0.00    +0.000 HD
BRANCH  17  23
ATOM     19  C   UNL     1       1.125   8.975  19.752  0.00  0.00    +0.000 A 
ATOM     20  C   UNL     1       1.480   9.349  18.457  0.00  0.00    +0.000 A 
ATOM     21  C   UNL     1       2.341   8.555  17.698  0.00  0.00    +0.000 A 
ATOM     22  C   UNL     1       2.845   7.369  18.227  0.00  0.00    +0.000 A 
ATOM     23  C   UNL     1       2.527   6.987  19.533  0.00  0.00    +0.000 A 
ATOM     24  C   UNL     1       1.682   7.812  20.292  0.00  0.00    +0.000 A 
BRANCH  19  27
ATOM     25  O   UNL     1       1.431   9.925  22.511  0.00  0.00    +0.000 OA
ATOM     26  C   UNL     1       0.417  10.103  21.852  0.00  0.00    +0.000 C 
ATOM     27  N   UNL     1       0.207   9.693  20.550  0.00  0.00    +0.000 N 
ATOM     28  H   UNL     1      -0.610  10.052  20.076  0.00  0.00    +0.000 HD
BRANCH  26  29
ATOM     29  C   UNL     1      -0.678  10.890  22.491  0.00  0.00    +0.000 C 
ATOM     30  C   UNL     1      -0.638  12.400  22.490  0.00  0.00    +0.000 C 
ATOM     31  C   UNL     1      -1.741  11.677  21.771  0.00  0.00    +0.000 C 
ENDBRANCH  26  29
ENDBRANCH  19  27
ENDBRANCH  17  23
ENDBRANCH   1  17
TORSDOF 5
ENDMDL
MODEL 2
REMARK VINA RESULT:      -9.4      0.928      1.917
REMARK  Name = 
REMARK  5 active torsions:
REMARK  status: ('A' for Active; 'I' for Inactive)
REMARK    1  A    between atoms: C_2  and  C_26
REMARK    2  A    between atoms: N_3  and  C_4
REMARK    3  A    between atoms: C_8  and  N_9
REMARK    4  A    between atoms: N_9  and  C_10
REMARK    5  A    between atoms: C_15  and  C_16
REMARK                            x       y       z     vdW  Elec       q    Type
REMARK                         _______ _______ _______ _____ _____    ______ ____
ROOT
ATOM      1  C   UNL     1       2.704   4.860  19.943  0.00  0.00    +0.000 A 
ATOM      2  N   UNL     1       1.684   4.559  20.792  0.00  0.00    +0.000 NA
ATOM      3  C   UNL     1       1.157   3.324  20.757  0.00  0.00    +0.000 A 
ATOM      4  C   UNL     1       1.567   2.354  19.871  0.00  0.00    +0.000 A 
ATOM      5  C   UNL     1       2.613   2.660  19.005  0.00  0.00    +0.000 A 
ATOM      6  C   UNL     1       3.243   3.922  19.037  0.00  0.00    +0.000 A 
ENDROOT
BRANCH   6   7
ATOM      7  C   UNL     1       4.341   4.214  18.100  0.00  0.00    +0.000 A 
ATOM      8  N   UNL     1       4.148   3.948  16.768  0.00  0.00    +0.000 NA
ATOM      9  C   UNL     1       5.134   4.259  15.895  0.00  0.00    +0.000 A 
ATOM     10  N   UNL     1       6.337   4.803  16.160  0.00  0.00    +0.000 NA
ATOM     11  C   UNL     1       6.487   5.012  17.474  0.00  0.00    +0.000 A 
ATOM     12  N   UNL     1       7.571   5.565  18.094  0.00  0.00    +0.000 N 
ATOM     13  C   UNL     1       7.315   5.586  19.436  0.00  0.00    +0.000 A 
ATOM     14  N   UNL     1       6.131   5.085  19.716  0.00  0.00    +0.000 NA
ATOM     15  C   UNL     1       5.584   4.743  18.492  0.00  0.00    +0.000 A 
ATOM     16  H   UNL     1       8.397   5.907  17.626  0.00  0.00    +0.000 HD
ENDBRANCH   6   7
BRANCH   1  17
ATOM     17  N   UNL     1       3.168   6.186  19.957  0.00  0.00    +0.000 N 
ATOM     18  H   UNL     1       3.811   6.351  20.732  0.00  0.00    +0.000 HD
BRANCH  17  23
ATOM     19  C   UNL     1       0.936   9.143  19.552  0.00  0.00    +0.000 A 
ATOM     20  C   UNL     1       1.218   9.479  18.228  0.00  0.00    +0.000 A 
ATOM     21  C   UNL     1       2.154   8.750  17.493  0.00  0.00    +0.000 A 
ATOM     22  C   UNL     1       2.810   7.668  18.076  0.00  0.00    +0.000 A 
ATOM     23  C   UNL     1       2.566   7.329  19.410  0.00  0.00    +0.000 A 
ATOM     24  C   UNL     1       1.641   8.091  20.142  0.00  0.00    +0.000 A 
BRANCH  19  27
ATOM     25  O   UNL     1       1.178  11.583  21.164  0.00  0.00    +0.000 OA
ATOM     26  C   UNL     1       0.141  10.940  21.075  0.00  0.00    +0.000 C 
ATOM     27  N   UNL     1      -0.047   9.793  20.331  0.00  0.00    +0.000 N 
ATOM     28  H   UNL     1      -0.995   9.463  20.217  0.00  0.00    +0.000 HD
BRANCH  26  29
ATOM     29  C   UNL     1      -1.053  11.479  21.789  0.00  0.00    +0.000 C 
ATOM     30  C   UNL     1      -1.365  11.042  23.201  0.00  0.00    +0.000 C 
ATOM     31  C   UNL     1      -1.035  12.480  22.914  0.00  0.00    +0.000 C 
ENDBRANCH  26  29
ENDBRANCH  19  27
ENDBRANCH  17  23
ENDBRANCH   1  17
TORSDOF 5
ENDMDL
MODEL 3
REMARK VINA RESULT:      -9.1      1.193      1.928
REMARK  Name = 
REMARK  5 active torsions:
REMARK  status: ('A' for Active; 'I' for Inactive)
REMARK    1  A    between atoms: C_2  and  C_26
REMARK    2  A    between atoms: N_3  and  C_4
REMARK    3  A    between atoms: C_8  and  N_9
REMARK    4  A    between atoms: N_9  and  C_10
REMARK    5  A    between atoms: C_15  and  C_16
REMARK                            x       y       z     vdW  Elec       q    Type
REMARK                         _______ _______ _______ _____ _____    ______ ____
ROOT
ATOM      1  C   UNL     1       2.678   5.108  19.574  0.00  0.00    +0.000 A 
ATOM      2  N   UNL     1       1.647   4.447  20.167  0.00  0.00    +0.000 NA
ATOM      3  C   UNL     1       1.336   3.214  19.734  0.00  0.00    +0.000 A 
ATOM      4  C   UNL     1       1.980   2.598  18.686  0.00  0.00    +0.000 A 
ATOM      5  C   UNL     1       3.038   3.272  18.081  0.00  0.00    +0.000 A 
ATOM      6  C   UNL     1       3.446   4.545  18.532  0.00  0.00    +0.000 A 
ENDROOT
BRANCH   6   7
ATOM      7  C   UNL     1       4.562   5.233  17.863  0.00  0.00    +0.000 A 
ATOM      8  N   UNL     1       4.373   5.691  16.584  0.00  0.00    +0.000 NA
ATOM      9  C   UNL     1       5.378   6.367  15.981  0.00  0.00    +0.000 A 
ATOM     10  N   UNL     1       6.598   6.655  16.473  0.00  0.00    +0.000 NA
ATOM     11  C   UNL     1       6.743   6.159  17.709  0.00  0.00    +0.000 A 
ATOM     12  N   UNL     1       7.841   6.277  18.512  0.00  0.00    +0.000 N 
ATOM     13  C   UNL     1       7.573   5.620  19.680  0.00  0.00    +0.000 A 
ATOM     14  N   UNL     1       6.369   5.091  19.678  0.00  0.00    +0.000 NA
ATOM     15  C   UNL     1       5.820   5.442  18.456  0.00  0.00    +0.000 A 
ATOM     16  H   UNL     1       8.684   6.779  18.275  0.00  0.00    +0.000 HD
ENDBRANCH   6   7
BRANCH   1  17
ATOM     17  N   UNL     1       2.915   6.425  20.002  0.00  0.00    +0.000 N 
ATOM     18  H   UNL     1       3.408   6.447  20.895  0.00  0.00    +0.000 HD
BRANCH  17  23
ATOM     19  C   UNL     1       0.613   9.349  20.226  0.00  0.00    +0.000 A 
ATOM     20  C   UNL     1       0.666   9.799  18.907  0.00  0.00    +0.000 A 
ATOM     21  C   UNL     1       1.474   9.157  17.968  0.00  0.00    +0.000 A 
ATOM     22  C   UNL     1       2.230   8.047  18.340  0.00  0.00    +0.000 A 
ATOM     23  C   UNL     1       2.217   7.594  19.662  0.00  0.00    +0.000 A 
ATOM     24  C   UNL     1       1.419   8.270  20.600  0.00  0.00    +0.000 A 
BRANCH  19  27
ATOM     25  O   UNL     1       0.860  11.915  21.628  0.00  0.00    +0.000 OA
ATOM     26  C   UNL     1      -0.049  11.123  21.836  0.00  0.00    +0.000 C 
ATOM     27  N   UNL     1      -0.233   9.907  21.210  0.00  0.00    +0.000 N 
ATOM     28  H   UNL     1      -1.114   9.436  21.359  0.00  0.00    +0.000 HD
BRANCH  26  29
ATOM     29  C   UNL     1      -1.095  11.537  22.816  0.00  0.00    +0.000 C 
ATOM     30  C   UNL     1      -1.341  12.999  23.104  0.00  0.00    +0.000 C 
ATOM     31  C   UNL     1      -2.424  12.163  22.483  0.00  0.00    +0.000 C 
ENDBRANCH  26  29
ENDBRANCH  19  27
ENDBRANCH  17  23
ENDBRANCH   1  17
TORSDOF 5
ENDMDL
MODEL 4
REMARK VINA RESULT:      -8.9      2.783      7.578
REMARK  Name = 
REMARK  5 active torsions:
REMARK  status: ('A' for Active; 'I' for Inactive)
REMARK    1  A    between atoms: C_2  and  C_26
REMARK    2  A    between atoms: N_3  and  C_4
REMARK    3  A    between atoms: C_8  and  N_9
REMARK    4  A    between atoms: N_9  and  C_10
REMARK    5  A    between atoms: C_15  and  C_16
REMARK                            x       y       z     vdW  Elec       q    Type
REMARK                         _______ _______ _______ _____ _____    ______ ____
ROOT
ATOM      1  C   UNL     1       3.208   4.690  19.988  0.00  0.00    +0.000 A 
ATOM      2  N   UNL     1       3.444   3.350  19.991  0.00  0.00    +0.000 NA
ATOM      3  C   UNL     1       2.430   2.516  20.277  0.00  0.00    +0.000 A 
ATOM      4  C   UNL     1       1.169   2.950  20.614  0.00  0.00    +0.000 A 
ATOM      5  C   UNL     1       0.926   4.322  20.608  0.00  0.00    +0.000 A 
ATOM      6  C   UNL     1       1.937   5.241  20.259  0.00  0.00    +0.000 A 
ENDROOT
BRANCH   6   7
ATOM      7  C   UNL     1       1.647   6.685  20.272  0.00  0.00    +0.000 A 
ATOM      8  N   UNL     1       1.048   7.219  21.385  0.00  0.00    +0.000 NA
ATOM      9  C   UNL     1       0.823   8.552  21.424  0.00  0.00    +0.000 A 
ATOM     10  N   UNL     1       1.102   9.470  20.479  0.00  0.00    +0.000 NA
ATOM     11  C   UNL     1       1.655   8.894  19.404  0.00  0.00    +0.000 A 
ATOM     12  N   UNL     1       2.080   9.524  18.269  0.00  0.00    +0.000 N 
ATOM     13  C   UNL     1       2.570   8.568  17.423  0.00  0.00    +0.000 A 
ATOM     14  N   UNL     1       2.490   7.364  17.947  0.00  0.00    +0.000 NA
ATOM     15  C   UNL     1       1.942   7.551  19.205  0.00  0.00    +0.000 A 
ATOM     16  H   UNL     1       2.046  10.519  18.108  0.00  0.00    +0.000 HD
ENDBRANCH   6   7
BRANCH   1  17
ATOM     17  N   UNL     1       4.315   5.527  19.766  0.00  0.00    +0.000 N 
ATOM     18  H   UNL     1       4.090   6.505  19.956  0.00  0.00    +0.000 HD
BRANCH  17  23
ATOM     19  C   UNL     1       6.406   4.375  16.903  0.00  0.00    +0.000 A 
ATOM     20  C   UNL     1       7.675   4.680  17.394  0.00  0.00    +0.000 A 
ATOM     21  C   UNL     1       7.829   5.283  18.643  0.00  0.00    +0.000 A 
ATOM     22  C   UNL     1       6.710   5.576  19.419  0.00  0.00    +0.000 A 
ATOM     23  C   UNL     1       5.426   5.307  18.938  0.00  0.00    +0.000 A 
ATOM     24  C   UNL     1       5.289   4.725  17.667  0.00  0.00    +0.000 A 
BRANCH  19  27
ATOM     25  O   UNL     1       6.992   5.274  14.172  0.00  0.00    +0.000 OA
ATOM     26  C   UNL     1       6.475   4.195  14.425  0.00  0.00    +0.000 C 
ATOM     27  N   UNL     1       6.180   3.704  15.681  0.00  0.00    +0.000 N 
ATOM     28  H   UNL     1       5.911   2.733  15.749  0.00  0.00    +0.000 HD
BRANCH  26  29
ATOM     29  C   UNL     1       6.192   3.293  13.270  0.00  0.00    +0.000 C 
ATOM     30  C   UNL     1       5.102   3.633  12.281  0.00  0.00    +0.000 C 
ATOM     31  C   UNL     1       6.533   3.566  11.829  0.00  0.00    +0.000 C 
ENDBRANCH  26  29
ENDBRANCH  19  27
ENDBRANCH  17  23
ENDBRANCH   1  17
TORSDOF 5
ENDMDL
MODEL 5
REMARK VINA RESULT:      -8.9      2.638      3.173
REMARK  Name = 
REMARK  5 active torsions:
REMARK  status: ('A' for Active; 'I' for Inactive)
REMARK    1  A    between atoms: C_2  and  C_26
REMARK    2  A    between atoms: N_3  and  C_4
REMARK    3  A    between atoms: C_8  and  N_9
REMARK    4  A    between atoms: N_9  and  C_10
REMARK    5  A    between atoms: C_15  and  C_16
REMARK                            x       y       z     vdW  Elec       q    Type
REMARK                         _______ _______ _______ _____ _____    ______ ____
ROOT
ATOM      1  C   UNL     1       2.791   5.504  18.119  0.00  0.00    +0.000 A 
ATOM      2  N   UNL     1       1.606   4.943  18.483  0.00  0.00    +0.000 NA
ATOM      3  C   UNL     1       1.426   3.627  18.282  0.00  0.00    +0.000 A 
ATOM      4  C   UNL     1       2.365   2.820  17.683  0.00  0.00    +0.000 A 
ATOM      5  C   UNL     1       3.579   3.393  17.313  0.00  0.00    +0.000 A 
ATOM      6  C   UNL     1       3.846   4.757  17.553  0.00  0.00    +0.000 A 
ENDROOT
BRANCH   6   7
ATOM      7  C   UNL     1       5.138   5.331  17.141  0.00  0.00    +0.000 A 
ATOM      8  N   UNL     1       5.754   6.221  17.984  0.00  0.00    +0.000 NA
ATOM      9  C   UNL     1       6.964   6.715  17.635  0.00  0.00    +0.000 A 
ATOM     10  N   UNL     1       7.676   6.458  16.521  0.00  0.00    +0.000 NA
ATOM     11  C   UNL     1       7.018   5.612  15.718  0.00  0.00    +0.000 A 
ATOM     12  N   UNL     1       7.450   5.122  14.519  0.00  0.00    +0.000 N 
ATOM     13  C   UNL     1       6.472   4.302  14.030  0.00  0.00    +0.000 A 
ATOM     14  N   UNL     1       5.441   4.231  14.844  0.00  0.00    +0.000 NA
ATOM     15  C   UNL     1       5.777   5.028  15.925  0.00  0.00    +0.000 A 
ATOM     16  H   UNL     1       8.341   5.327  14.094  0.00  0.00    +0.000 HD
ENDBRANCH   6   7
BRANCH   1  17
ATOM     17  N   UNL     1       2.905   6.896  18.271  0.00  0.00    +0.000 N 
ATOM     18  H   UNL     1       3.881   7.191  18.311  0.00  0.00    +0.000 HD
BRANCH  17  23
ATOM     19  C   UNL     1       0.281   9.533  18.512  0.00  0.00    +0.000 A 
ATOM     20  C   UNL     1       0.275   9.742  19.890  0.00  0.00    +0.000 A 
ATOM     21  C   UNL     1       1.110   8.999  20.726  0.00  0.00    +0.000 A 
ATOM     22  C   UNL     1       1.970   8.046  20.185  0.00  0.00    +0.000 A 
ATOM     23  C   UNL     1       1.974   7.797  18.810  0.00  0.00    +0.000 A 
ATOM     24  C   UNL     1       1.107   8.534  17.988  0.00  0.00    +0.000 A 
BRANCH  19  27
ATOM     25  O   UNL     1      -2.611   9.453  18.023  0.00  0.00    +0.000 OA
ATOM     26  C   UNL     1      -1.851  10.196  17.418  0.00  0.00    +0.000 C 
ATOM     27  N   UNL     1      -0.486  10.294  17.602  0.00  0.00    +0.000 N 
ATOM     28  H   UNL     1      -0.011  11.064  17.154  0.00  0.00    +0.000 HD
BRANCH  26  29
ATOM     29  C   UNL     1      -2.462  11.133  16.430  0.00  0.00    +0.000 C 
ATOM     30  C   UNL     1      -3.004  10.617  15.118  0.00  0.00    +0.000 C 
ATOM     31  C   UNL     1      -3.930  11.253  16.115  0.00  0.00    +0.000 C 
ENDBRANCH  26  29
ENDBRANCH  19  27
ENDBRANCH  17  23
ENDBRANCH   1  17
TORSDOF 5
ENDMDL
MODEL 6
REMARK VINA RESULT:      -8.8      2.717      3.724
REMARK  Name = 
REMARK  5 active torsions:
REMARK  status: ('A' for Active; 'I' for Inactive)
REMARK    1  A    between atoms: C_2  and  C_26
REMARK    2  A    between atoms: N_3  and  C_4
REMARK    3  A    between atoms: C_8  and  N_9
REMARK    4  A    between atoms: N_9  and  C_10
REMARK    5  A    between atoms: C_15  and  C_16
REMARK                            x       y       z     vdW  Elec       q    Type
REMARK                         _______ _______ _______ _____ _____    ______ ____
ROOT
ATOM      1  C   UNL     1       2.601   5.983  19.739  0.00  0.00    +0.000 A 
ATOM      2  N   UNL     1       1.636   5.546  20.593  0.00  0.00    +0.000 NA
ATOM      3  C   UNL     1       1.548   4.230  20.851  0.00  0.00    +0.000 A 
ATOM      4  C   UNL     1       2.359   3.290  20.258  0.00  0.00    +0.000 A 
ATOM      5  C   UNL     1       3.349   3.737  19.387  0.00  0.00    +0.000 A 
ATOM      6  C   UNL     1       3.525   5.111  19.123  0.00  0.00    +0.000 A 
ENDROOT
BRANCH   6   7
ATOM      7  C   UNL     1       4.577   5.546  18.190  0.00  0.00    +0.000 A 
ATOM      8  N   UNL     1       4.218   5.860  16.903  0.00  0.00    +0.000 NA
ATOM      9  C   UNL     1       5.170   6.307  16.054  0.00  0.00    +0.000 A 
ATOM     10  N   UNL     1       6.484   6.483  16.296  0.00  0.00    +0.000 NA
ATOM     11  C   UNL     1       6.788   6.133  17.553  0.00  0.00    +0.000 A 
ATOM     12  N   UNL     1       8.017   6.199  18.143  0.00  0.00    +0.000 N 
ATOM     13  C   UNL     1       7.887   5.739  19.424  0.00  0.00    +0.000 A 
ATOM     14  N   UNL     1       6.649   5.387  19.694  0.00  0.00    +0.000 NA
ATOM     15  C   UNL     1       5.936   5.652  18.536  0.00  0.00    +0.000 A 
ATOM     16  H   UNL     1       8.856   6.544  17.703  0.00  0.00    +0.000 HD
ENDBRANCH   6   7
BRANCH   1  17
ATOM     17  N   UNL     1       2.604   7.354  19.435  0.00  0.00    +0.000 N 
ATOM     18  H   UNL     1       3.553   7.725  19.382  0.00  0.00    +0.000 HD
BRANCH  17  23
ATOM     19  C   UNL     1      -0.079   9.859  18.783  0.00  0.00    +0.000 A 
ATOM     20  C   UNL     1      -0.277  10.342  20.076  0.00  0.00    +0.000 A 
ATOM     21  C   UNL     1       0.450   9.823  21.148  0.00  0.00    +0.000 A 
ATOM     22  C   UNL     1       1.394   8.821  20.932  0.00  0.00    +0.000 A 
ATOM     23  C   UNL     1       1.591   8.300  19.651  0.00  0.00    +0.000 A 
ATOM     24  C   UNL     1       0.830   8.815  18.588  0.00  0.00    +0.000 A 
BRANCH  19  27
ATOM     25  O   UNL     1      -2.887   9.590  17.977  0.00  0.00    +0.000 OA
ATOM     26  C   UNL     1      -2.060  10.208  17.322  0.00  0.00    +0.000 C 
ATOM     27  N   UNL     1      -0.729  10.383  17.644  0.00  0.00    +0.000 N 
ATOM     28  H   UNL     1      -0.204  11.054  17.101  0.00  0.00    +0.000 HD
BRANCH  26  29
ATOM     29  C   UNL     1      -2.546  10.892  16.088  0.00  0.00    +0.000 C 
ATOM     30  C   UNL     1      -2.828  10.101  14.833  0.00  0.00    +0.000 C 
ATOM     31  C   UNL     1      -3.943  10.826  15.531  0.00  0.00    +0.000 C 
ENDBRANCH  26  29
ENDBRANCH  19  27
ENDBRANCH  17  23
ENDBRANCH   1  17
TORSDOF 5
ENDMDL
MODEL 7
REMARK VINA RESULT:      -8.7      2.763      8.062
REMARK  Name = 
REMARK  5 active torsions:
REMARK  status: ('A' for Active; 'I' for Inactive)
REMARK    1  A    between atoms: C_2  and  C_26
REMARK    2  A    between atoms: N_3  and  C_4
REMARK    3  A    between atoms: C_8  and  N_9
REMARK    4  A    between atoms: N_9  and  C_10
REMARK    5  A    between atoms: C_15  and  C_16
REMARK                            x       y       z     vdW  Elec       q    Type
REMARK                         _______ _______ _______ _____ _____    ______ ____
ROOT
ATOM      1  C   UNL     1       3.369   5.270  19.750  0.00  0.00    +0.000 A 
ATOM      2  N   UNL     1       3.574   3.964  20.073  0.00  0.00    +0.000 NA
ATOM      3  C   UNL     1       2.548   3.252  20.569  0.00  0.00    +0.000 A 
ATOM      4  C   UNL     1       1.305   3.789  20.810  0.00  0.00    +0.000 A 
ATOM      5  C   UNL     1       1.093   5.124  20.476  0.00  0.00    +0.000 A 
ATOM      6  C   UNL     1       2.117   5.904  19.899  0.00  0.00    +0.000 A 
ENDROOT
BRANCH   6   7
ATOM      7  C   UNL     1       1.860   7.315  19.566  0.00  0.00    +0.000 A 
ATOM      8  N   UNL     1       2.083   7.732  18.279  0.00  0.00    +0.000 NA
ATOM      9  C   UNL     1       1.802   9.015  17.954  0.00  0.00    +0.000 A 
ATOM     10  N   UNL     1       1.328   9.990  18.753  0.00  0.00    +0.000 NA
ATOM     11  C   UNL     1       1.158   9.541  20.004  0.00  0.00    +0.000 A 
ATOM     12  N   UNL     1       0.677  10.250  21.067  0.00  0.00    +0.000 N 
ATOM     13  C   UNL     1       0.676   9.419  22.152  0.00  0.00    +0.000 A 
ATOM     14  N   UNL     1       1.121   8.219  21.850  0.00  0.00    +0.000 NA
ATOM     15  C   UNL     1       1.405   8.268  20.496  0.00  0.00    +0.000 A 
ATOM     16  H   UNL     1       0.368  11.209  21.034  0.00  0.00    +0.000 HD
ENDBRANCH   6   7
BRANCH   1  17
ATOM     17  N   UNL     1       4.488   5.997  19.313  0.00  0.00    +0.000 N 
ATOM     18  H   UNL     1       4.284   6.995  19.243  0.00  0.00    +0.000 HD
BRANCH  17  23
ATOM     19  C   UNL     1       6.503   4.387  16.622  0.00  0.00    +0.000 A 
ATOM     20  C   UNL     1       7.773   4.461  17.194  0.00  0.00    +0.000 A 
ATOM     21  C   UNL     1       7.957   5.061  18.440  0.00  0.00    +0.000 A 
ATOM     22  C   UNL     1       6.866   5.583  19.133  0.00  0.00    +0.000 A 
ATOM     23  C   UNL     1       5.589   5.546  18.568  0.00  0.00    +0.000 A 
ATOM     24  C   UNL     1       5.426   4.964  17.300  0.00  0.00    +0.000 A 
BRANCH  19  27
ATOM     25  O   UNL     1       7.166   5.242  13.894  0.00  0.00    +0.000 OA
ATOM     26  C   UNL     1       6.569   4.203  14.143  0.00  0.00    +0.000 C 
ATOM     27  N   UNL     1       6.233   3.736  15.398  0.00  0.00    +0.000 N 
ATOM     28  H   UNL     1       5.892   2.787  15.464  0.00  0.00    +0.000 HD
BRANCH  26  29
ATOM     29  C   UNL     1       6.224   3.326  12.986  0.00  0.00    +0.000 C 
ATOM     30  C   UNL     1       4.940   3.536  12.220  0.00  0.00    +0.000 C 
ATOM     31  C   UNL     1       6.264   3.720  11.534  0.00  0.00    +0.000 C 
ENDBRANCH  26  29
ENDBRANCH  19  27
ENDBRANCH  17  23
ENDBRANCH   1  17
TORSDOF 5
ENDMDL
MODEL 8
REMARK VINA RESULT:      -8.6      1.893      2.210
REMARK  Name = 
REMARK  5 active torsions:
REMARK  status: ('A' for Active; 'I' for Inactive)
REMARK    1  A    between atoms: C_2  and  C_26
REMARK    2  A    between atoms: N_3  and  C_4
REMARK    3  A    between atoms: C_8  and  N_9
REMARK    4  A    between atoms: N_9  and  C_10
REMARK    5  A    between atoms: C_15  and  C_16
REMARK                            x       y       z     vdW  Elec       q    Type
REMARK                         _______ _______ _______ _____ _____    ______ ____
ROOT
ATOM      1  C   UNL     1       2.666   5.024  18.133  0.00  0.00    +0.000 A 
ATOM      2  N   UNL     1       1.434   4.469  18.288  0.00  0.00    +0.000 NA
ATOM      3  C   UNL     1       1.311   3.134  18.207  0.00  0.00    +0.000 A 
ATOM      4  C   UNL     1       2.366   2.296  17.929  0.00  0.00    +0.000 A 
ATOM      5  C   UNL     1       3.628   2.863  17.773  0.00  0.00    +0.000 A 
ATOM      6  C   UNL     1       3.826   4.253  17.904  0.00  0.00    +0.000 A 
ENDROOT
BRANCH   6   7
ATOM      7  C   UNL     1       5.173   4.818  17.724  0.00  0.00    +0.000 A 
ATOM      8  N   UNL     1       5.820   5.325  18.823  0.00  0.00    +0.000 NA
ATOM      9  C   UNL     1       7.077   5.802  18.675  0.00  0.00    +0.000 A 
ATOM     10  N   UNL     1       7.813   5.867  17.549  0.00  0.00    +0.000 NA
ATOM     11  C   UNL     1       7.127   5.390  16.502  0.00  0.00    +0.000 A 
ATOM     12  N   UNL     1       7.569   5.287  15.214  0.00  0.00    +0.000 N 
ATOM     13  C   UNL     1       6.554   4.760  14.468  0.00  0.00    +0.000 A 
ATOM     14  N   UNL     1       5.487   4.513  15.197  0.00  0.00    +0.000 NA
ATOM     15  C   UNL     1       5.838   4.878  16.486  0.00  0.00    +0.000 A 
ATOM     16  H   UNL     1       8.491   5.544  14.894  0.00  0.00    +0.000 HD
ENDBRANCH   6   7
BRANCH   1  17
ATOM     17  N   UNL     1       2.735   6.427  18.143  0.00  0.00    +0.000 N 
ATOM     18  H   UNL     1       3.592   6.765  17.704  0.00  0.00    +0.000 HD
BRANCH  17  23
ATOM     19  C   UNL     1       1.198   9.551  19.476  0.00  0.00    +0.000 A 
ATOM     20  C   UNL     1       1.028   9.185  20.811  0.00  0.00    +0.000 A 
ATOM     21  C   UNL     1       1.393   7.912  21.252  0.00  0.00    +0.000 A 
ATOM     22  C   UNL     1       1.945   6.996  20.359  0.00  0.00    +0.000 A 
ATOM     23  C   UNL     1       2.099   7.328  19.011  0.00  0.00    +0.000 A 
ATOM     24  C   UNL     1       1.700   8.604  18.579  0.00  0.00    +0.000 A 
BRANCH  19  27
ATOM     25  O   UNL     1      -1.395  10.900  19.223  0.00  0.00    +0.000 OA
ATOM     26  C   UNL     1      -0.338  11.411  18.879  0.00  0.00    +0.000 C 
ATOM     27  N   UNL     1       0.915  10.841  18.977  0.00  0.00    +0.000 N 
ATOM     28  H   UNL     1       1.712  11.439  18.811  0.00  0.00    +0.000 HD
BRANCH  26  29
ATOM     29  C   UNL     1      -0.400  12.809  18.359  0.00  0.00    +0.000 C 
ATOM     30  C   UNL     1      -0.673  13.963  19.294  0.00  0.00    +0.000 C 
ATOM     31  C   UNL     1       0.640  13.878  18.568  0.00  0.00    +0.000 C 
ENDBRANCH  26  29
ENDBRANCH  19  27
ENDBRANCH  17  23
ENDBRANCH   1  17
TORSDOF 5
ENDMDL
MODEL 9
REMARK VINA RESULT:      -8.5      2.074      2.407
REMARK  Name = 
REMARK  5 active torsions:
REMARK  status: ('A' for Active; 'I' for Inactive)
REMARK    1  A    between atoms: C_2  and  C_26
REMARK    2  A    between atoms: N_3  and  C_4
REMARK    3  A    between atoms: C_8  and  N_9
REMARK    4  A    between atoms: N_9  and  C_10
REMARK    5  A    between atoms: C_15  and  C_16
REMARK                            x       y       z     vdW  Elec       q    Type
REMARK                         _______ _______ _______ _____ _____    ______ ____
ROOT
ATOM      1  C   UNL     1       2.748   5.362  18.051  0.00  0.00    +0.000 A 
ATOM      2  N   UNL     1       1.565   4.784  18.392  0.00  0.00    +0.000 NA
ATOM      3  C   UNL     1       1.437   3.452  18.272  0.00  0.00    +0.000 A 
ATOM      4  C   UNL     1       2.431   2.641  17.777  0.00  0.00    +0.000 A 
ATOM      5  C   UNL     1       3.644   3.231  17.430  0.00  0.00    +0.000 A 
ATOM      6  C   UNL     1       3.854   4.617  17.589  0.00  0.00    +0.000 A 
ENDROOT
BRANCH   6   7
ATOM      7  C   UNL     1       5.147   5.208  17.204  0.00  0.00    +0.000 A 
ATOM      8  N   UNL     1       5.769   6.050  18.090  0.00  0.00    +0.000 NA
ATOM      9  C   UNL     1       6.979   6.558  17.764  0.00  0.00    +0.000 A 
ATOM     10  N   UNL     1       7.687   6.358  16.635  0.00  0.00    +0.000 NA
ATOM     11  C   UNL     1       7.023   5.556  15.792  0.00  0.00    +0.000 A 
ATOM     12  N   UNL     1       7.450   5.129  14.567  0.00  0.00    +0.000 N 
ATOM     13  C   UNL     1       6.468   4.338  14.039  0.00  0.00    +0.000 A 
ATOM     14  N   UNL     1       5.439   4.228  14.852  0.00  0.00    +0.000 NA
ATOM     15  C   UNL     1       5.781   4.966  15.972  0.00  0.00    +0.000 A 
ATOM     16  H   UNL     1       8.341   5.353  14.151  0.00  0.00    +0.000 HD
ENDBRANCH   6   7
BRANCH   1  17
ATOM     17  N   UNL     1       2.809   6.764  18.113  0.00  0.00    +0.000 N 
ATOM     18  H   UNL     1       3.701   7.117  17.764  0.00  0.00    +0.000 HD
BRANCH  17  23
ATOM     19  C   UNL     1       1.028   9.796  19.350  0.00  0.00    +0.000 A 
ATOM     20  C   UNL     1       0.861   9.447  20.690  0.00  0.00    +0.000 A 
ATOM     21  C   UNL     1       1.309   8.214  21.165  0.00  0.00    +0.000 A 
ATOM     22  C   UNL     1       1.941   7.321  20.303  0.00  0.00    +0.000 A 
ATOM     23  C   UNL     1       2.095   7.635  18.949  0.00  0.00    +0.000 A 
ATOM     24  C   UNL     1       1.613   8.868  18.483  0.00  0.00    +0.000 A 
BRANCH  19  27
ATOM     25  O   UNL     1       1.965  12.468  20.117  0.00  0.00    +0.000 OA
ATOM     26  C   UNL     1       1.140  12.276  19.235  0.00  0.00    +0.000 C 
ATOM     27  N   UNL     1       0.661  11.051  18.816  0.00  0.00    +0.000 N 
ATOM     28  H   UNL     1       0.112  11.032  17.969  0.00  0.00    +0.000 HD
BRANCH  26  29
ATOM     29  C   UNL     1       0.647  13.476  18.497  0.00  0.00    +0.000 C 
ATOM     30  C   UNL     1      -0.442  14.343  19.083  0.00  0.00    +0.000 C 
ATOM     31  C   UNL     1       0.929  14.912  18.852  0.00  0.00    +0.000 C 
ENDBRANCH  26  29
ENDBRANCH  19  27
ENDBRANCH  17  23
ENDBRANCH   1  17
TORSDOF 5
ENDMDL
