MODEL 1
REMARK VINA RESULT:      -6.9      0.000      0.000
REMARK  Name = 
REMARK  7 active torsions:
REMARK  status: ('A' for Active; 'I' for Inactive)
REMARK    1  A    between atoms: C_1  and  C_2
REMARK    2  A    between atoms: C_2  and  C_3
REMARK    3  A    between atoms: C_3  and  C_9
REMARK    4  A    between atoms: N_4  and  N_5
REMARK    5  A    between atoms: N_5  and  C_6
REMARK    6  A    between atoms: C_6  and  N_7
REMARK    7  A    between atoms: C_13  and  C_14
REMARK                            x       y       z     vdW  Elec       q    Type
REMARK                         _______ _______ _______ _____ _____    ______ ____
ROOT
ATOM      1  C   UNL     1       6.031   4.817  16.922  0.00  0.00    +0.000 C 
ATOM      2  N   UNL     1       6.128   5.092  15.655  0.00  0.00    +0.000 NA
ENDROOT
BRANCH   1   3
ATOM      3  C   UNL     1       4.632   4.752  17.497  0.00  0.00    +0.000 A 
ATOM      4  C   UNL     1       3.875   5.940  17.622  0.00  0.00    +0.000 A 
ATOM      5  C   UNL     1       2.592   5.928  18.176  0.00  0.00    +0.000 A 
ATOM      6  C   UNL     1       2.032   4.733  18.624  0.00  0.00    +0.000 A 
ATOM      7  C   UNL     1       2.746   3.533  18.514  0.00  0.00    +0.000 A 
ATOM      8  C   UNL     1       4.033   3.550  17.948  0.00  0.00    +0.000 A 
BRANCH   7   9
ATOM      9  C   UNL     1       2.173   2.222  18.996  0.00  0.00    +0.000 C 
ATOM     10  F   UNL     1       0.914   1.984  18.471  0.00  0.00    +0.000 F 
ATOM     11  F   UNL     1       3.011   1.187  18.622  0.00  0.00    +0.000 F 
ATOM     12  F   UNL     1       2.076   2.245  20.376  0.00  0.00    +0.000 F 
ENDBRANCH   7   9
ENDBRANCH   1   3
BRANCH   1  14
ATOM     13  C   UNL     1       7.471   5.782  18.831  0.00  0.00    +0.000 C 
ATOM     14  C   UNL     1       7.278   4.658  17.806  0.00  0.00    +0.000 C 
ENDBRANCH   1  14
BRANCH   2  15
ATOM     15  N   UNL     1       7.304   5.288  14.960  0.00  0.00    +0.000 N 
ATOM     16  H   UNL     1       8.134   5.684  15.416  0.00  0.00    +0.000 HD
BRANCH  15  17
ATOM     17  C   UNL     1       7.372   5.023  13.563  0.00  0.00    +0.000 C 
ATOM     18 SE   UNL     1       6.373   3.762  12.879  0.00  0.00    +0.000 Se
BRANCH  17  19
ATOM     19  N   UNL     1       8.252   5.747  12.716  0.00  0.00    +0.000 N 
ATOM     20  H   UNL     1       8.932   5.264  12.113  0.00  0.00    +0.000 HD
ATOM     21  H   UNL     1       8.211   6.777  12.682  0.00  0.00    +0.000 HD
ENDBRANCH  17  19
ENDBRANCH  15  17
ENDBRANCH   2  15
TORSDOF 6
ENDMDL
MODEL 2
REMARK VINA RESULT:      -6.8      2.225      3.173
REMARK  Name = 
REMARK  7 active torsions:
REMARK  status: ('A' for Active; 'I' for Inactive)
REMARK    1  A    between atoms: C_1  and  C_2
REMARK    2  A    between atoms: C_2  and  C_3
REMARK    3  A    between atoms: C_3  and  C_9
REMARK    4  A    between atoms: N_4  and  N_5
REMARK    5  A    between atoms: N_5  and  C_6
REMARK    6  A    between atoms: C_6  and  N_7
REMARK    7  A    between atoms: C_13  and  C_14
REMARK                            x       y       z     vdW  Elec       q    Type
REMARK                         _______ _______ _______ _____ _____    ______ ____
ROOT
ATOM      1  C   UNL     1       3.808   5.347  17.491  0.00  0.00    +0.000 C 
ATOM      2  N   UNL     1       4.541   4.775  16.583  0.00  0.00    +0.000 NA
ENDROOT
BRANCH   1   3
ATOM      3  C   UNL     1       2.825   4.460  18.227  0.00  0.00    +0.000 A 
ATOM      4  C   UNL     1       1.705   3.940  17.537  0.00  0.00    +0.000 A 
ATOM      5  C   UNL     1       0.759   3.144  18.187  0.00  0.00    +0.000 A 
ATOM      6  C   UNL     1       0.900   2.849  19.541  0.00  0.00    +0.000 A 
ATOM      7  C   UNL     1       1.997   3.339  20.260  0.00  0.00    +0.000 A 
ATOM      8  C   UNL     1       2.951   4.133  19.600  0.00  0.00    +0.000 A 
BRANCH   7   9
ATOM      9  C   UNL     1       2.178   3.046  21.731  0.00  0.00    +0.000 C 
ATOM     10  F   UNL     1       2.479   4.188  22.452  0.00  0.00    +0.000 F 
ATOM     11  F   UNL     1       1.016   2.495  22.238  0.00  0.00    +0.000 F 
ATOM     12  F   UNL     1       3.212   2.141  21.893  0.00  0.00    +0.000 F 
ENDBRANCH   7   9
ENDBRANCH   1   3
BRANCH   1  14
ATOM     13  C   UNL     1       2.527   7.500  18.100  0.00  0.00    +0.000 C 
ATOM     14  C   UNL     1       3.873   6.861  17.739  0.00  0.00    +0.000 C 
ENDBRANCH   1  14
BRANCH   2  15
ATOM     15  N   UNL     1       5.426   5.416  15.740  0.00  0.00    +0.000 N 
ATOM     16  H   UNL     1       5.095   6.015  14.975  0.00  0.00    +0.000 HD
BRANCH  15  17
ATOM     17  C   UNL     1       6.827   5.195  15.858  0.00  0.00    +0.000 C 
ATOM     18 SE   UNL     1       7.490   4.685  17.393  0.00  0.00    +0.000 Se
BRANCH  17  19
ATOM     19  N   UNL     1       7.702   5.402  14.760  0.00  0.00    +0.000 N 
ATOM     20  H   UNL     1       8.099   6.331  14.560  0.00  0.00    +0.000 HD
ATOM     21  H   UNL     1       7.967   4.614  14.149  0.00  0.00    +0.000 HD
ENDBRANCH  17  19
ENDBRANCH  15  17
ENDBRANCH   2  15
TORSDOF 6
ENDMDL
MODEL 3
REMARK VINA RESULT:      -6.8      0.780      1.278
REMARK  Name = 
REMARK  7 active torsions:
REMARK  status: ('A' for Active; 'I' for Inactive)
REMARK    1  A    between atoms: C_1  and  C_2
REMARK    2  A    between atoms: C_2  and  C_3
REMARK    3  A    between atoms: C_3  and  C_9
REMARK    4  A    between atoms: N_4  and  N_5
REMARK    5  A    between atoms: N_5  and  C_6
REMARK    6  A    between atoms: C_6  and  N_7
REMARK    7  A    between atoms: C_13  and  C_14
REMARK                            x       y       z     vdW  Elec       q    Type
REMARK                         _______ _______ _______ _____ _____    ______ ____
ROOT
ATOM      1  C   UNL     1       5.953   5.665  16.845  0.00  0.00    +0.000 C 
ATOM      2  N   UNL     1       6.194   5.109  15.695  0.00  0.00    +0.000 NA
ENDROOT
BRANCH   1   3
ATOM      3  C   UNL     1       4.558   5.485  17.407  0.00  0.00    +0.000 A 
ATOM      4  C   UNL     1       3.820   6.621  17.816  0.00  0.00    +0.000 A 
ATOM      5  C   UNL     1       2.543   6.495  18.368  0.00  0.00    +0.000 A 
ATOM      6  C   UNL     1       1.969   5.236  18.532  0.00  0.00    +0.000 A 
ATOM      7  C   UNL     1       2.663   4.086  18.136  0.00  0.00    +0.000 A 
ATOM      8  C   UNL     1       3.945   4.218  17.573  0.00  0.00    +0.000 A 
BRANCH   7   9
ATOM      9  C   UNL     1       2.075   2.706  18.306  0.00  0.00    +0.000 C 
ATOM     10  F   UNL     1       2.469   2.120  19.496  0.00  0.00    +0.000 F 
ATOM     11  F   UNL     1       0.695   2.786  18.287  0.00  0.00    +0.000 F 
ATOM     12  F   UNL     1       2.492   1.899  17.261  0.00  0.00    +0.000 F 
ENDBRANCH   7   9
ENDBRANCH   1   3
BRANCH   1  14
ATOM     13  C   UNL     1       7.629   5.888  18.792  0.00  0.00    +0.000 C 
ATOM     14  C   UNL     1       7.003   6.536  17.551  0.00  0.00    +0.000 C 
ENDBRANCH   1  14
BRANCH   2  15
ATOM     15  N   UNL     1       7.361   5.229  14.970  0.00  0.00    +0.000 N 
ATOM     16  H   UNL     1       8.232   5.551  15.409  0.00  0.00    +0.000 HD
BRANCH  15  17
ATOM     17  C   UNL     1       7.370   4.989  13.567  0.00  0.00    +0.000 C 
ATOM     18 SE   UNL     1       6.352   3.731  12.905  0.00  0.00    +0.000 Se
BRANCH  17  19
ATOM     19  N   UNL     1       8.206   5.735  12.695  0.00  0.00    +0.000 N 
ATOM     20  H   UNL     1       8.034   6.734  12.515  0.00  0.00    +0.000 HD
ATOM     21  H   UNL     1       9.014   5.286  12.238  0.00  0.00    +0.000 HD
ENDBRANCH  17  19
ENDBRANCH  15  17
ENDBRANCH   2  15
TORSDOF 6
ENDMDL
MODEL 4
REMARK VINA RESULT:      -6.8      1.770      2.359
REMARK  Name = 
REMARK  7 active torsions:
REMARK  status: ('A' for Active; 'I' for Inactive)
REMARK    1  A    between atoms: C_1  and  C_2
REMARK    2  A    between atoms: C_2  and  C_3
REMARK    3  A    between atoms: C_3  and  C_9
REMARK    4  A    between atoms: N_4  and  N_5
REMARK    5  A    between atoms: N_5  and  C_6
REMARK    6  A    between atoms: C_6  and  N_7
REMARK    7  A    between atoms: C_13  and  C_14
REMARK                            x       y       z     vdW  Elec       q    Type
REMARK                         _______ _______ _______ _____ _____    ______ ____
ROOT
ATOM      1  C   UNL     1       5.306   4.719  17.543  0.00  0.00    +0.000 C 
ATOM      2  N   UNL     1       6.125   4.169  16.696  0.00  0.00    +0.000 NA
ENDROOT
BRANCH   1   3
ATOM      3  C   UNL     1       4.190   3.844  18.075  0.00  0.00    +0.000 A 
ATOM      4  C   UNL     1       3.547   2.932  17.206  0.00  0.00    +0.000 A 
ATOM      5  C   UNL     1       2.493   2.129  17.649  0.00  0.00    +0.000 A 
ATOM      6  C   UNL     1       2.049   2.217  18.967  0.00  0.00    +0.000 A 
ATOM      7  C   UNL     1       2.663   3.102  19.862  0.00  0.00    +0.000 A 
ATOM      8  C   UNL     1       3.729   3.902  19.413  0.00  0.00    +0.000 A 
BRANCH   7   9
ATOM      9  C   UNL     1       2.204   3.229  21.295  0.00  0.00    +0.000 C 
ATOM     10  F   UNL     1       0.862   2.920  21.436  0.00  0.00    +0.000 F 
ATOM     11  F   UNL     1       2.941   2.374  22.093  0.00  0.00    +0.000 F 
ATOM     12  F   UNL     1       2.402   4.529  21.726  0.00  0.00    +0.000 F 
ENDBRANCH   7   9
ENDBRANCH   1   3
BRANCH   1  14
ATOM     13  C   UNL     1       4.391   7.106  17.208  0.00  0.00    +0.000 C 
ATOM     14  C   UNL     1       5.413   6.207  17.912  0.00  0.00    +0.000 C 
ENDBRANCH   1  14
BRANCH   2  15
ATOM     15  N   UNL     1       7.145   4.813  16.027  0.00  0.00    +0.000 N 
ATOM     16  H   UNL     1       7.861   5.349  16.531  0.00  0.00    +0.000 HD
BRANCH  15  17
ATOM     17  C   UNL     1       7.185   4.820  14.604  0.00  0.00    +0.000 C 
ATOM     18 SE   UNL     1       6.043   3.846  13.708  0.00  0.00    +0.000 Se
BRANCH  17  19
ATOM     19  N   UNL     1       8.150   5.584  13.896  0.00  0.00    +0.000 N 
ATOM     20  H   UNL     1       9.080   5.772  14.295  0.00  0.00    +0.000 HD
ATOM     21  H   UNL     1       7.935   5.952  12.957  0.00  0.00    +0.000 HD
ENDBRANCH  17  19
ENDBRANCH  15  17
ENDBRANCH   2  15
TORSDOF 6
ENDMDL
MODEL 5
REMARK VINA RESULT:      -6.8      1.740      2.342
REMARK  Name = 
REMARK  7 active torsions:
REMARK  status: ('A' for Active; 'I' for Inactive)
REMARK    1  A    between atoms: C_1  and  C_2
REMARK    2  A    between atoms: C_2  and  C_3
REMARK    3  A    between atoms: C_3  and  C_9
REMARK    4  A    between atoms: N_4  and  N_5
REMARK    5  A    between atoms: N_5  and  C_6
REMARK    6  A    between atoms: C_6  and  N_7
REMARK    7  A    between atoms: C_13  and  C_14
REMARK                            x       y       z     vdW  Elec       q    Type
REMARK                         _______ _______ _______ _____ _____    ______ ____
ROOT
ATOM      1  C   UNL     1       5.706   4.696  17.416  0.00  0.00    +0.000 C 
ATOM      2  N   UNL     1       6.221   4.145  16.356  0.00  0.00    +0.000 NA
ENDROOT
BRANCH   1   3
ATOM      3  C   UNL     1       4.437   4.071  17.957  0.00  0.00    +0.000 A 
ATOM      4  C   UNL     1       3.879   2.949  17.301  0.00  0.00    +0.000 A 
ATOM      5  C   UNL     1       2.693   2.363  17.751  0.00  0.00    +0.000 A 
ATOM      6  C   UNL     1       2.029   2.881  18.861  0.00  0.00    +0.000 A 
ATOM      7  C   UNL     1       2.552   3.988  19.543  0.00  0.00    +0.000 A 
ATOM      8  C   UNL     1       3.750   4.569  19.092  0.00  0.00    +0.000 A 
BRANCH   7   9
ATOM      9  C   UNL     1       1.856   4.580  20.745  0.00  0.00    +0.000 C 
ATOM     10  F   UNL     1       2.273   3.989  21.926  0.00  0.00    +0.000 F 
ATOM     11  F   UNL     1       2.121   5.935  20.811  0.00  0.00    +0.000 F 
ATOM     12  F   UNL     1       0.490   4.395  20.621  0.00  0.00    +0.000 F 
ENDBRANCH   7   9
ENDBRANCH   1   3
BRANCH   1  14
ATOM     13  C   UNL     1       7.495   5.719  18.965  0.00  0.00    +0.000 C 
ATOM     14  C   UNL     1       6.307   5.970  18.029  0.00  0.00    +0.000 C 
ENDBRANCH   1  14
BRANCH   2  15
ATOM     15  N   UNL     1       7.313   4.611  15.655  0.00  0.00    +0.000 N 
ATOM     16  H   UNL     1       8.167   4.915  16.137  0.00  0.00    +0.000 HD
BRANCH  15  17
ATOM     17  C   UNL     1       7.254   4.762  14.241  0.00  0.00    +0.000 C 
ATOM     18 SE   UNL     1       6.089   3.835  13.326  0.00  0.00    +0.000 Se
BRANCH  17  19
ATOM     19  N   UNL     1       8.139   5.634  13.554  0.00  0.00    +0.000 N 
ATOM     20  H   UNL     1       8.868   6.160  14.055  0.00  0.00    +0.000 HD
ATOM     21  H   UNL     1       8.073   5.743  12.530  0.00  0.00    +0.000 HD
ENDBRANCH  17  19
ENDBRANCH  15  17
ENDBRANCH   2  15
TORSDOF 6
ENDMDL
MODEL 6
REMARK VINA RESULT:      -6.7      1.372      1.625
REMARK  Name = 
REMARK  7 active torsions:
REMARK  status: ('A' for Active; 'I' for Inactive)
REMARK    1  A    between atoms: C_1  and  C_2
REMARK    2  A    between atoms: C_2  and  C_3
REMARK    3  A    between atoms: C_3  and  C_9
REMARK    4  A    between atoms: N_4  and  N_5
REMARK    5  A    between atoms: N_5  and  C_6
REMARK    6  A    between atoms: C_6  and  N_7
REMARK    7  A    between atoms: C_13  and  C_14
REMARK                            x       y       z     vdW  Elec       q    Type
REMARK                         _______ _______ _______ _____ _____    ______ ____
ROOT
ATOM      1  C   UNL     1       5.675   4.525  17.467  0.00  0.00    +0.000 C 
ATOM      2  N   UNL     1       5.479   3.909  16.339  0.00  0.00    +0.000 NA
ENDROOT
BRANCH   1   3
ATOM      3  C   UNL     1       4.439   4.958  18.228  0.00  0.00    +0.000 A 
ATOM      4  C   UNL     1       3.938   6.270  18.053  0.00  0.00    +0.000 A 
ATOM      5  C   UNL     1       2.819   6.718  18.759  0.00  0.00    +0.000 A 
ATOM      6  C   UNL     1       2.172   5.875  19.660  0.00  0.00    +0.000 A 
ATOM      7  C   UNL     1       2.632   4.566  19.858  0.00  0.00    +0.000 A 
ATOM      8  C   UNL     1       3.754   4.117  19.139  0.00  0.00    +0.000 A 
BRANCH   7   9
ATOM      9  C   UNL     1       1.960   3.627  20.831  0.00  0.00    +0.000 C 
ATOM     10  F   UNL     1       0.583   3.767  20.817  0.00  0.00    +0.000 F 
ATOM     11  F   UNL     1       2.276   2.321  20.505  0.00  0.00    +0.000 F 
ATOM     12  F   UNL     1       2.414   3.893  22.111  0.00  0.00    +0.000 F 
ENDBRANCH   7   9
ENDBRANCH   1   3
BRANCH   1  14
ATOM     13  C   UNL     1       7.449   6.361  17.828  0.00  0.00    +0.000 C 
ATOM     14  C   UNL     1       7.089   4.876  17.955  0.00  0.00    +0.000 C 
ENDBRANCH   1  14
BRANCH   2  15
ATOM     15  N   UNL     1       6.462   3.517  15.454  0.00  0.00    +0.000 N 
ATOM     16  H   UNL     1       7.089   2.731  15.664  0.00  0.00    +0.000 HD
BRANCH  15  17
ATOM     17  C   UNL     1       6.688   4.248  14.254  0.00  0.00    +0.000 C 
ATOM     18 SE   UNL     1       6.031   3.652  12.747  0.00  0.00    +0.000 Se
BRANCH  17  19
ATOM     19  N   UNL     1       7.455   5.443  14.250  0.00  0.00    +0.000 N 
ATOM     20  H   UNL     1       7.940   5.764  13.401  0.00  0.00    +0.000 HD
ATOM     21  H   UNL     1       7.527   6.018  15.103  0.00  0.00    +0.000 HD
ENDBRANCH  17  19
ENDBRANCH  15  17
ENDBRANCH   2  15
TORSDOF 6
ENDMDL
MODEL 7
REMARK VINA RESULT:      -6.7      3.020      3.789
REMARK  Name = 
REMARK  7 active torsions:
REMARK  status: ('A' for Active; 'I' for Inactive)
REMARK    1  A    between atoms: C_1  and  C_2
REMARK    2  A    between atoms: C_2  and  C_3
REMARK    3  A    between atoms: C_3  and  C_9
REMARK    4  A    between atoms: N_4  and  N_5
REMARK    5  A    between atoms: N_5  and  C_6
REMARK    6  A    between atoms: C_6  and  N_7
REMARK    7  A    between atoms: C_13  and  C_14
REMARK                            x       y       z     vdW  Elec       q    Type
REMARK                         _______ _______ _______ _____ _____    ______ ____
ROOT
ATOM      1  C   UNL     1       5.127   5.717  16.730  0.00  0.00    +0.000 C 
ATOM      2  N   UNL     1       5.716   6.630  17.444  0.00  0.00    +0.000 NA
ENDROOT
BRANCH   1   3
ATOM      3  C   UNL     1       4.040   4.915  17.416  0.00  0.00    +0.000 A 
ATOM      4  C   UNL     1       3.589   3.709  16.830  0.00  0.00    +0.000 A 
ATOM      5  C   UNL     1       2.568   2.956  17.414  0.00  0.00    +0.000 A 
ATOM      6  C   UNL     1       1.965   3.387  18.594  0.00  0.00    +0.000 A 
ATOM      7  C   UNL     1       2.386   4.572  19.211  0.00  0.00    +0.000 A 
ATOM      8  C   UNL     1       3.420   5.322  18.623  0.00  0.00    +0.000 A 
BRANCH   7   9
ATOM      9  C   UNL     1       1.750   5.072  20.486  0.00  0.00    +0.000 C 
ATOM     10  F   UNL     1       1.694   6.454  20.528  0.00  0.00    +0.000 F 
ATOM     11  F   UNL     1       0.465   4.574  20.588  0.00  0.00    +0.000 F 
ATOM     12  F   UNL     1       2.490   4.631  21.569  0.00  0.00    +0.000 F 
ENDBRANCH   7   9
ENDBRANCH   1   3
BRANCH   1  14
ATOM     13  C   UNL     1       6.745   4.422  15.197  0.00  0.00    +0.000 C 
ATOM     14  C   UNL     1       5.575   5.408  15.294  0.00  0.00    +0.000 C 
ENDBRANCH   1  14
BRANCH   2  15
ATOM     15  N   UNL     1       6.786   7.402  17.041  0.00  0.00    +0.000 N 
ATOM     16  H   UNL     1       6.924   7.652  16.055  0.00  0.00    +0.000 HD
BRANCH  15  17
ATOM     17  C   UNL     1       7.780   7.804  17.978  0.00  0.00    +0.000 C 
ATOM     18 SE   UNL     1       8.332   9.463  17.985  0.00  0.00    +0.000 Se
BRANCH  17  19
ATOM     19  N   UNL     1       8.350   6.880  18.893  0.00  0.00    +0.000 N 
ATOM     20  H   UNL     1       7.779   6.148  19.338  0.00  0.00    +0.000 HD
ATOM     21  H   UNL     1       9.355   6.922  19.116  0.00  0.00    +0.000 HD
ENDBRANCH  17  19
ENDBRANCH  15  17
ENDBRANCH   2  15
TORSDOF 6
ENDMDL
MODEL 8
REMARK VINA RESULT:      -6.7      1.831      2.612
REMARK  Name = 
REMARK  7 active torsions:
REMARK  status: ('A' for Active; 'I' for Inactive)
REMARK    1  A    between atoms: C_1  and  C_2
REMARK    2  A    between atoms: C_2  and  C_3
REMARK    3  A    between atoms: C_3  and  C_9
REMARK    4  A    between atoms: N_4  and  N_5
REMARK    5  A    between atoms: N_5  and  C_6
REMARK    6  A    between atoms: C_6  and  N_7
REMARK    7  A    between atoms: C_13  and  C_14
REMARK                            x       y       z     vdW  Elec       q    Type
REMARK                         _______ _______ _______ _____ _____    ______ ____
ROOT
ATOM      1  C   UNL     1       4.865   4.941  17.506  0.00  0.00    +0.000 C 
ATOM      2  N   UNL     1       5.864   4.341  16.931  0.00  0.00    +0.000 NA
ENDROOT
BRANCH   1   3
ATOM      3  C   UNL     1       3.778   4.054  18.077  0.00  0.00    +0.000 A 
ATOM      4  C   UNL     1       2.964   3.299  17.200  0.00  0.00    +0.000 A 
ATOM      5  C   UNL     1       1.931   2.492  17.685  0.00  0.00    +0.000 A 
ATOM      6  C   UNL     1       1.678   2.421  19.053  0.00  0.00    +0.000 A 
ATOM      7  C   UNL     1       2.464   3.148  19.955  0.00  0.00    +0.000 A 
ATOM      8  C   UNL     1       3.508   3.952  19.464  0.00  0.00    +0.000 A 
BRANCH   7   9
ATOM      9  C   UNL     1       2.214   3.100  21.444  0.00  0.00    +0.000 C 
ATOM     10  F   UNL     1       3.063   2.212  22.082  0.00  0.00    +0.000 F 
ATOM     11  F   UNL     1       2.403   4.359  21.985  0.00  0.00    +0.000 F 
ATOM     12  F   UNL     1       0.909   2.702  21.676  0.00  0.00    +0.000 F 
ENDBRANCH   7   9
ENDBRANCH   1   3
BRANCH   1  14
ATOM     13  C   UNL     1       3.345   6.997  17.838  0.00  0.00    +0.000 C 
ATOM     14  C   UNL     1       4.750   6.473  17.522  0.00  0.00    +0.000 C 
ENDBRANCH   1  14
BRANCH   2  15
ATOM     15  N   UNL     1       6.905   4.961  16.270  0.00  0.00    +0.000 N 
ATOM     16  H   UNL     1       7.588   5.538  16.772  0.00  0.00    +0.000 HD
BRANCH  15  17
ATOM     17  C   UNL     1       7.010   4.882  14.852  0.00  0.00    +0.000 C 
ATOM     18 SE   UNL     1       5.849   3.930  13.956  0.00  0.00    +0.000 Se
BRANCH  17  19
ATOM     19  N   UNL     1       8.052   5.544  14.151  0.00  0.00    +0.000 N 
ATOM     20  H   UNL     1       8.961   5.731  14.597  0.00  0.00    +0.000 HD
ATOM     21  H   UNL     1       7.917   5.836  13.172  0.00  0.00    +0.000 HD
ENDBRANCH  17  19
ENDBRANCH  15  17
ENDBRANCH   2  15
TORSDOF 6
ENDMDL
MODEL 9
REMARK VINA RESULT:      -6.7      1.591      1.662
REMARK  Name = 
REMARK  7 active torsions:
REMARK  status: ('A' for Active; 'I' for Inactive)
REMARK    1  A    between atoms: C_1  and  C_2
REMARK    2  A    between atoms: C_2  and  C_3
REMARK    3  A    between atoms: C_3  and  C_9
REMARK    4  A    between atoms: N_4  and  N_5
REMARK    5  A    between atoms: N_5  and  C_6
REMARK    6  A    between atoms: C_6  and  N_7
REMARK    7  A    between atoms: C_13  and  C_14
REMARK                            x       y       z     vdW  Elec       q    Type
REMARK                         _______ _______ _______ _____ _____    ______ ____
ROOT
ATOM      1  C   UNL     1       5.767   4.449  15.625  0.00  0.00    +0.000 C 
ATOM      2  N   UNL     1       5.428   4.121  14.414  0.00  0.00    +0.000 NA
ENDROOT
BRANCH   1   3
ATOM      3  C   UNL     1       4.638   4.638  16.618  0.00  0.00    +0.000 A 
ATOM      4  C   UNL     1       4.284   5.944  17.028  0.00  0.00    +0.000 A 
ATOM      5  C   UNL     1       3.270   6.160  17.965  0.00  0.00    +0.000 A 
ATOM      6  C   UNL     1       2.587   5.081  18.522  0.00  0.00    +0.000 A 
ATOM      7  C   UNL     1       2.902   3.772  18.138  0.00  0.00    +0.000 A 
ATOM      8  C   UNL     1       3.917   3.560  17.189  0.00  0.00    +0.000 A 
BRANCH   7   9
ATOM      9  C   UNL     1       2.187   2.578  18.725  0.00  0.00    +0.000 C 
ATOM     10  F   UNL     1       0.892   2.466  18.248  0.00  0.00    +0.000 F 
ATOM     11  F   UNL     1       2.877   1.423  18.407  0.00  0.00    +0.000 F 
ATOM     12  F   UNL     1       2.136   2.707  20.102  0.00  0.00    +0.000 F 
ENDBRANCH   7   9
ENDBRANCH   1   3
BRANCH   1  14
ATOM     13  C   UNL     1       7.541   4.533  17.494  0.00  0.00    +0.000 C 
ATOM     14  C   UNL     1       7.231   4.718  16.004  0.00  0.00    +0.000 C 
ENDBRANCH   1  14
BRANCH   2  15
ATOM     15  N   UNL     1       6.288   3.994  13.343  0.00  0.00    +0.000 N 
ATOM     16  H   UNL     1       7.151   4.546  13.282  0.00  0.00    +0.000 HD
BRANCH  15  17
ATOM     17  C   UNL     1       5.958   3.147  12.247  0.00  0.00    +0.000 C 
ATOM     18 SE   UNL     1       4.386   3.289  11.495  0.00  0.00    +0.000 Se
BRANCH  17  19
ATOM     19  N   UNL     1       6.872   2.174  11.764  0.00  0.00    +0.000 N 
ATOM     20  H   UNL     1       7.889   2.312  11.838  0.00  0.00    +0.000 HD
ATOM     21  H   UNL     1       6.526   1.299  11.343  0.00  0.00    +0.000 HD
ENDBRANCH  17  19
ENDBRANCH  15  17
ENDBRANCH   2  15
TORSDOF 6
ENDMDL
