MODEL 1
REMARK VINA RESULT:      -9.5      0.000      0.000
REMARK  Name = 
REMARK  4 active torsions:
REMARK  status: ('A' for Active; 'I' for Inactive)
REMARK    1  A    between atoms: C_1  and  C_2
REMARK    2  A    between atoms: C_6  and  C_7
REMARK    3  A    between atoms: C_20  and  C_22
REMARK    4  A    between atoms: C_27  and  O_28
REMARK                            x       y       z     vdW  Elec       q    Type
REMARK                         _______ _______ _______ _____ _____    ______ ____
ROOT
ATOM      1  C   UNL     1       3.157   5.985  19.645  0.00  0.00    +0.000 C 
ATOM      2  C   UNL     1       3.971   5.720  18.396  0.00  0.00    +0.000 A 
ATOM      3  N   UNL     1       4.683   4.574  18.139  0.00  0.00    +0.000 N 
ATOM      4  C   UNL     1       5.299   4.670  16.906  0.00  0.00    +0.000 A 
ATOM      5  C   UNL     1       6.105   3.755  16.221  0.00  0.00    +0.000 A 
ATOM      6  C   UNL     1       6.604   4.144  14.972  0.00  0.00    +0.000 A 
ATOM      7  C   UNL     1       6.308   5.393  14.424  0.00  0.00    +0.000 A 
ATOM      8  C   UNL     1       5.497   6.291  15.122  0.00  0.00    +0.000 A 
ATOM      9  C   UNL     1       4.988   5.924  16.381  0.00  0.00    +0.000 A 
ATOM     10  C   UNL     1       4.163   6.567  17.330  0.00  0.00    +0.000 A 
ATOM     11  C   UNL     1       3.527   7.887  17.316  0.00  0.00    +0.000 C 
ATOM     12  C   UNL     1       2.206   7.801  18.085  0.00  0.00    +0.000 C 
ATOM     13  N   UNL     1       2.261   7.184  19.435  0.00  0.00    +0.000 N 
ATOM     14  C   UNL     1       1.668   7.728  20.597  0.00  0.00    +0.000 C 
ATOM     15  O   UNL     1       1.680   7.105  21.658  0.00  0.00    +0.000 OA
ATOM     16  H   UNL     1       4.727   3.774  18.761  0.00  0.00    +0.000 HD
ENDROOT
BRANCH  14  17
ATOM     17  C   UNL     1       1.039   9.088  20.608  0.00  0.00    +0.000 A 
ATOM     18  C   UNL     1       0.352   9.648  19.527  0.00  0.00    +0.000 A 
ATOM     19  C   UNL     1      -0.049  10.998  19.540  0.00  0.00    +0.000 A 
ATOM     20  C   UNL     1       0.076  11.701  20.726  0.00  0.00    +0.000 A 
ATOM     21  N   UNL     1       0.631  11.149  21.834  0.00  0.00    +0.000 NA
ATOM     22  C   UNL     1       1.112   9.889  21.737  0.00  0.00    +0.000 A 
ATOM     23  C   UNL     1      -0.382  13.119  20.875  0.00  0.00    +0.000 C 
ATOM     24  C   UNL     1      -1.095  13.750  19.685  0.00  0.00    +0.000 C 
ATOM     25  C   UNL     1      -0.899  13.109  18.318  0.00  0.00    +0.000 C 
ATOM     26  C   UNL     1      -0.528  11.630  18.270  0.00  0.00    +0.000 C 
BRANCH  22  27
ATOM     27  O   UNL     1       1.711   9.510  22.891  0.00  0.00    +0.000 OA
ATOM     28  H   UNL     1       1.681  10.348  23.386  0.00  0.00    +0.000 HD
ENDBRANCH  22  27
ENDBRANCH  14  17
BRANCH   1  34
ATOM     29  C   UNL     1       0.417   2.108  18.574  0.00  0.00    +0.000 C 
ATOM     30  C   UNL     1       1.157   2.859  19.648  0.00  0.00    +0.000 A 
ATOM     31  C   UNL     1       1.155   2.427  20.957  0.00  0.00    +0.000 A 
ATOM     32  C   UNL     1       1.870   3.170  21.901  0.00  0.00    +0.000 A 
ATOM     33  C   UNL     1       2.574   4.307  21.506  0.00  0.00    +0.000 A 
ATOM     34  C   UNL     1       2.543   4.681  20.169  0.00  0.00    +0.000 A 
ATOM     35  N   UNL     1       1.807   3.976  19.251  0.00  0.00    +0.000 NA
ENDBRANCH   1  34
TORSDOF 3
ENDMDL
MODEL 2
REMARK VINA RESULT:      -9.2      0.646      1.222
REMARK  Name = 
REMARK  4 active torsions:
REMARK  status: ('A' for Active; 'I' for Inactive)
REMARK    1  A    between atoms: C_1  and  C_2
REMARK    2  A    between atoms: C_6  and  C_7
REMARK    3  A    between atoms: C_20  and  C_22
REMARK    4  A    between atoms: C_27  and  O_28
REMARK                            x       y       z     vdW  Elec       q    Type
REMARK                         _______ _______ _______ _____ _____    ______ ____
ROOT
ATOM      1  C   UNL     1       2.859   5.832  19.223  0.00  0.00    +0.000 C 
ATOM      2  C   UNL     1       3.816   5.620  18.068  0.00  0.00    +0.000 A 
ATOM      3  N   UNL     1       4.397   4.424  17.728  0.00  0.00    +0.000 N 
ATOM      4  C   UNL     1       5.206   4.593  16.620  0.00  0.00    +0.000 A 
ATOM      5  C   UNL     1       5.978   3.667  15.910  0.00  0.00    +0.000 A 
ATOM      6  C   UNL     1       6.714   4.144  14.819  0.00  0.00    +0.000 A 
ATOM      7  C   UNL     1       6.680   5.488  14.446  0.00  0.00    +0.000 A 
ATOM      8  C   UNL     1       5.899   6.396  15.165  0.00  0.00    +0.000 A 
ATOM      9  C   UNL     1       5.154   5.941  16.268  0.00  0.00    +0.000 A 
ATOM     10  C   UNL     1       4.285   6.567  17.190  0.00  0.00    +0.000 A 
ATOM     11  C   UNL     1       3.845   7.960  17.305  0.00  0.00    +0.000 C 
ATOM     12  C   UNL     1       2.420   7.977  17.866  0.00  0.00    +0.000 C 
ATOM     13  N   UNL     1       2.178   7.175  19.092  0.00  0.00    +0.000 N 
ATOM     14  C   UNL     1       1.490   7.638  20.237  0.00  0.00    +0.000 C 
ATOM     15  O   UNL     1       1.251   6.878  21.175  0.00  0.00    +0.000 OA
ATOM     16  H   UNL     1       4.234   3.547  18.212  0.00  0.00    +0.000 HD
ENDROOT
BRANCH  14  17
ATOM     17  C   UNL     1       1.057   9.064  20.383  0.00  0.00    +0.000 A 
ATOM     18  C   UNL     1       0.385   9.790  19.396  0.00  0.00    +0.000 A 
ATOM     19  C   UNL     1       0.176  11.177  19.527  0.00  0.00    +0.000 A 
ATOM     20  C   UNL     1       0.475  11.766  20.743  0.00  0.00    +0.000 A 
ATOM     21  N   UNL     1       1.020  11.064  21.767  0.00  0.00    +0.000 NA
ATOM     22  C   UNL     1       1.315   9.762  21.554  0.00  0.00    +0.000 A 
ATOM     23  C   UNL     1       0.229  13.218  21.018  0.00  0.00    +0.000 C 
ATOM     24  C   UNL     1      -0.467  14.026  19.928  0.00  0.00    +0.000 C 
ATOM     25  C   UNL     1      -0.452  13.468  18.512  0.00  0.00    +0.000 C 
ATOM     26  C   UNL     1      -0.293  11.960  18.340  0.00  0.00    +0.000 C 
BRANCH  22  27
ATOM     27  O   UNL     1       1.930   9.222  22.632  0.00  0.00    +0.000 OA
ATOM     28  H   UNL     1       1.322   9.504  23.338  0.00  0.00    +0.000 HD
ENDBRANCH  22  27
ENDBRANCH  14  17
BRANCH   1  34
ATOM     29  C   UNL     1       1.601   2.304  22.329  0.00  0.00    +0.000 C 
ATOM     30  C   UNL     1       1.467   2.847  20.932  0.00  0.00    +0.000 A 
ATOM     31  C   UNL     1       0.726   2.189  19.974  0.00  0.00    +0.000 A 
ATOM     32  C   UNL     1       0.640   2.755  18.699  0.00  0.00    +0.000 A 
ATOM     33  C   UNL     1       1.279   3.965  18.427  0.00  0.00    +0.000 A 
ATOM     34  C   UNL     1       2.000   4.581  19.442  0.00  0.00    +0.000 A 
ATOM     35  N   UNL     1       2.120   4.004  20.680  0.00  0.00    +0.000 NA
ENDBRANCH   1  34
TORSDOF 3
ENDMDL
MODEL 3
REMARK VINA RESULT:      -9.1      3.127      9.792
REMARK  Name = 
REMARK  4 active torsions:
REMARK  status: ('A' for Active; 'I' for Inactive)
REMARK    1  A    between atoms: C_1  and  C_2
REMARK    2  A    between atoms: C_6  and  C_7
REMARK    3  A    between atoms: C_20  and  C_22
REMARK    4  A    between atoms: C_27  and  O_28
REMARK                            x       y       z     vdW  Elec       q    Type
REMARK                         _______ _______ _______ _____ _____    ______ ____
ROOT
ATOM      1  C   UNL     1      -1.452  11.993  20.200  0.00  0.00    +0.000 C 
ATOM      2  C   UNL     1      -2.854  12.138  19.645  0.00  0.00    +0.000 A 
ATOM      3  N   UNL     1      -3.770  13.081  20.040  0.00  0.00    +0.000 N 
ATOM      4  C   UNL     1      -4.941  12.928  19.322  0.00  0.00    +0.000 A 
ATOM      5  C   UNL     1      -6.134  13.658  19.363  0.00  0.00    +0.000 A 
ATOM      6  C   UNL     1      -7.167  13.254  18.509  0.00  0.00    +0.000 A 
ATOM      7  C   UNL     1      -7.017  12.169  17.645  0.00  0.00    +0.000 A 
ATOM      8  C   UNL     1      -5.817  11.455  17.614  0.00  0.00    +0.000 A 
ATOM      9  C   UNL     1      -4.766  11.840  18.467  0.00  0.00    +0.000 A 
ATOM     10  C   UNL     1      -3.458  11.357  18.689  0.00  0.00    +0.000 A 
ATOM     11  C   UNL     1      -2.724  10.247  18.075  0.00  0.00    +0.000 C 
ATOM     12  C   UNL     1      -1.235  10.607  18.039  0.00  0.00    +0.000 C 
ATOM     13  N   UNL     1      -0.636  11.082  19.312  0.00  0.00    +0.000 N 
ATOM     14  C   UNL     1       0.586  10.618  19.852  0.00  0.00    +0.000 C 
ATOM     15  O   UNL     1       1.059  11.132  20.865  0.00  0.00    +0.000 OA
ATOM     16  H   UNL     1      -3.598  13.792  20.743  0.00  0.00    +0.000 HD
ENDROOT
BRANCH  14  17
ATOM     17  C   UNL     1       1.335   9.467  19.254  0.00  0.00    +0.000 A 
ATOM     18  C   UNL     1       1.367   8.180  19.795  0.00  0.00    +0.000 A 
ATOM     19  C   UNL     1       2.240   7.197  19.288  0.00  0.00    +0.000 A 
ATOM     20  C   UNL     1       2.920   7.477  18.116  0.00  0.00    +0.000 A 
ATOM     21  N   UNL     1       2.820   8.679  17.496  0.00  0.00    +0.000 NA
ATOM     22  C   UNL     1       2.065   9.633  18.086  0.00  0.00    +0.000 A 
ATOM     23  C   UNL     1       3.820   6.483  17.449  0.00  0.00    +0.000 C 
ATOM     24  C   UNL     1       3.891   5.088  18.059  0.00  0.00    +0.000 C 
ATOM     25  C   UNL     1       3.441   4.921  19.503  0.00  0.00    +0.000 C 
ATOM     26  C   UNL     1       2.444   5.932  20.062  0.00  0.00    +0.000 C 
BRANCH  22  27
ATOM     27  O   UNL     1       2.132  10.798  17.400  0.00  0.00    +0.000 OA
ATOM     28  H   UNL     1       2.130  10.462  16.486  0.00  0.00    +0.000 HD
ENDBRANCH  22  27
ENDBRANCH  14  17
BRANCH   1  34
ATOM     29  C   UNL     1      -0.024  16.352  18.577  0.00  0.00    +0.000 C 
ATOM     30  C   UNL     1      -0.131  15.433  19.763  0.00  0.00    +0.000 A 
ATOM     31  C   UNL     1       0.345  15.802  21.003  0.00  0.00    +0.000 A 
ATOM     32  C   UNL     1       0.205  14.900  22.062  0.00  0.00    +0.000 A 
ATOM     33  C   UNL     1      -0.417  13.670  21.854  0.00  0.00    +0.000 A 
ATOM     34  C   UNL     1      -0.884  13.365  20.581  0.00  0.00    +0.000 A 
ATOM     35  N   UNL     1      -0.709  14.232  19.533  0.00  0.00    +0.000 NA
ENDBRANCH   1  34
TORSDOF 3
ENDMDL
MODEL 4
REMARK VINA RESULT:      -9.1      3.105      9.827
REMARK  Name = 
REMARK  4 active torsions:
REMARK  status: ('A' for Active; 'I' for Inactive)
REMARK    1  A    between atoms: C_1  and  C_2
REMARK    2  A    between atoms: C_6  and  C_7
REMARK    3  A    between atoms: C_20  and  C_22
REMARK    4  A    between atoms: C_27  and  O_28
REMARK                            x       y       z     vdW  Elec       q    Type
REMARK                         _______ _______ _______ _____ _____    ______ ____
ROOT
ATOM      1  C   UNL     1      -1.450  11.967  20.185  0.00  0.00    +0.000 C 
ATOM      2  C   UNL     1      -2.845  12.122  19.617  0.00  0.00    +0.000 A 
ATOM      3  N   UNL     1      -3.757  13.075  20.000  0.00  0.00    +0.000 N 
ATOM      4  C   UNL     1      -4.922  12.929  19.271  0.00  0.00    +0.000 A 
ATOM      5  C   UNL     1      -6.109  13.670  19.298  0.00  0.00    +0.000 A 
ATOM      6  C   UNL     1      -7.138  13.272  18.436  0.00  0.00    +0.000 A 
ATOM      7  C   UNL     1      -6.990  12.182  17.578  0.00  0.00    +0.000 A 
ATOM      8  C   UNL     1      -5.796  11.457  17.561  0.00  0.00    +0.000 A 
ATOM      9  C   UNL     1      -4.749  11.837  18.422  0.00  0.00    +0.000 A 
ATOM     10  C   UNL     1      -3.447  11.342  18.659  0.00  0.00    +0.000 A 
ATOM     11  C   UNL     1      -2.717  10.224  18.056  0.00  0.00    +0.000 C 
ATOM     12  C   UNL     1      -1.226  10.570  18.033  0.00  0.00    +0.000 C 
ATOM     13  N   UNL     1      -0.634  11.045  19.309  0.00  0.00    +0.000 N 
ATOM     14  C   UNL     1       0.578  10.572  19.863  0.00  0.00    +0.000 C 
ATOM     15  O   UNL     1       1.047  11.086  20.878  0.00  0.00    +0.000 OA
ATOM     16  H   UNL     1      -3.584  13.787  20.701  0.00  0.00    +0.000 HD
ENDROOT
BRANCH  14  17
ATOM     17  C   UNL     1       1.323   9.412  19.276  0.00  0.00    +0.000 A 
ATOM     18  C   UNL     1       1.365   8.135  19.841  0.00  0.00    +0.000 A 
ATOM     19  C   UNL     1       2.234   7.145  19.341  0.00  0.00    +0.000 A 
ATOM     20  C   UNL     1       2.898   7.405  18.154  0.00  0.00    +0.000 A 
ATOM     21  N   UNL     1       2.787   8.595  17.514  0.00  0.00    +0.000 NA
ATOM     22  C   UNL     1       2.037   9.558  18.096  0.00  0.00    +0.000 A 
ATOM     23  C   UNL     1       3.792   6.401  17.494  0.00  0.00    +0.000 C 
ATOM     24  C   UNL     1       3.875   5.017  18.129  0.00  0.00    +0.000 C 
ATOM     25  C   UNL     1       3.445   4.876  19.582  0.00  0.00    +0.000 C 
ATOM     26  C   UNL     1       2.452   5.895  20.135  0.00  0.00    +0.000 C 
BRANCH  22  27
ATOM     27  O   UNL     1       2.092  10.710  17.387  0.00  0.00    +0.000 OA
ATOM     28  H   UNL     1       2.790  10.486  16.747  0.00  0.00    +0.000 HD
ENDBRANCH  22  27
ENDBRANCH  14  17
BRANCH   1  34
ATOM     29  C   UNL     1      -0.920  15.271  23.718  0.00  0.00    +0.000 C 
ATOM     30  C   UNL     1      -0.697  14.946  22.266  0.00  0.00    +0.000 A 
ATOM     31  C   UNL     1      -0.128  15.859  21.405  0.00  0.00    +0.000 A 
ATOM     32  C   UNL     1       0.056  15.486  20.070  0.00  0.00    +0.000 A 
ATOM     33  C   UNL     1      -0.316  14.211  19.644  0.00  0.00    +0.000 A 
ATOM     34  C   UNL     1      -0.873  13.335  20.566  0.00  0.00    +0.000 A 
ATOM     35  N   UNL     1      -1.093  13.716  21.866  0.00  0.00    +0.000 NA
ENDBRANCH   1  34
TORSDOF 3
ENDMDL
MODEL 5
REMARK VINA RESULT:      -8.6      2.857      9.058
REMARK  Name = 
REMARK  4 active torsions:
REMARK  status: ('A' for Active; 'I' for Inactive)
REMARK    1  A    between atoms: C_1  and  C_2
REMARK    2  A    between atoms: C_6  and  C_7
REMARK    3  A    between atoms: C_20  and  C_22
REMARK    4  A    between atoms: C_27  and  O_28
REMARK                            x       y       z     vdW  Elec       q    Type
REMARK                         _______ _______ _______ _____ _____    ______ ____
ROOT
ATOM      1  C   UNL     1      -0.798  12.397  19.261  0.00  0.00    +0.000 C 
ATOM      2  C   UNL     1      -0.239  13.786  19.033  0.00  0.00    +0.000 A 
ATOM      3  N   UNL     1      -0.978  14.942  18.985  0.00  0.00    +0.000 N 
ATOM      4  C   UNL     1      -0.145  16.023  18.769  0.00  0.00    +0.000 A 
ATOM      5  C   UNL     1      -0.437  17.387  18.665  0.00  0.00    +0.000 A 
ATOM      6  C   UNL     1       0.633  18.259  18.430  0.00  0.00    +0.000 A 
ATOM      7  C   UNL     1       1.942  17.793  18.308  0.00  0.00    +0.000 A 
ATOM      8  C   UNL     1       2.214  16.428  18.420  0.00  0.00    +0.000 A 
ATOM      9  C   UNL     1       1.155  15.531  18.652  0.00  0.00    +0.000 A 
ATOM     10  C   UNL     1       1.074  14.130  18.813  0.00  0.00    +0.000 A 
ATOM     11  C   UNL     1       2.113  13.098  18.799  0.00  0.00    +0.000 C 
ATOM     12  C   UNL     1       1.695  11.971  19.748  0.00  0.00    +0.000 C 
ATOM     13  N   UNL     1       0.322  11.433  19.578  0.00  0.00    +0.000 N 
ATOM     14  C   UNL     1      -0.006  10.059  19.521  0.00  0.00    +0.000 C 
ATOM     15  O   UNL     1      -1.181   9.695  19.472  0.00  0.00    +0.000 OA
ATOM     16  H   UNL     1      -1.983  14.987  19.110  0.00  0.00    +0.000 HD
ENDROOT
BRANCH  14  17
ATOM     17  C   UNL     1       1.044   8.991  19.477  0.00  0.00    +0.000 A 
ATOM     18  C   UNL     1       1.948   8.816  18.426  0.00  0.00    +0.000 A 
ATOM     19  C   UNL     1       2.781   7.682  18.362  0.00  0.00    +0.000 A 
ATOM     20  C   UNL     1       2.823   6.846  19.465  0.00  0.00    +0.000 A 
ATOM     21  N   UNL     1       2.044   7.053  20.555  0.00  0.00    +0.000 NA
ATOM     22  C   UNL     1       1.172   8.086  20.520  0.00  0.00    +0.000 A 
ATOM     23  C   UNL     1       3.723   5.651  19.536  0.00  0.00    +0.000 C 
ATOM     24  C   UNL     1       4.684   5.431  18.373  0.00  0.00    +0.000 C 
ATOM     25  C   UNL     1       4.372   6.124  17.054  0.00  0.00    +0.000 C 
ATOM     26  C   UNL     1       3.526   7.393  17.097  0.00  0.00    +0.000 C 
BRANCH  22  27
ATOM     27  O   UNL     1       0.407   8.111  21.637  0.00  0.00    +0.000 OA
ATOM     28  H   UNL     1      -0.388   7.652  21.313  0.00  0.00    +0.000 HD
ENDBRANCH  22  27
ENDBRANCH  14  17
BRANCH   1  34
ATOM     29  C   UNL     1      -5.628  12.914  19.550  0.00  0.00    +0.000 C 
ATOM     30  C   UNL     1      -4.336  12.784  20.311  0.00  0.00    +0.000 A 
ATOM     31  C   UNL     1      -4.306  12.828  21.688  0.00  0.00    +0.000 A 
ATOM     32  C   UNL     1      -3.071  12.693  22.329  0.00  0.00    +0.000 A 
ATOM     33  C   UNL     1      -1.912  12.503  21.577  0.00  0.00    +0.000 A 
ATOM     34  C   UNL     1      -2.014  12.457  20.193  0.00  0.00    +0.000 A 
ATOM     35  N   UNL     1      -3.220  12.632  19.563  0.00  0.00    +0.000 NA
ENDBRANCH   1  34
TORSDOF 3
ENDMDL
MODEL 6
REMARK VINA RESULT:      -8.5      2.869      9.165
REMARK  Name = 
REMARK  4 active torsions:
REMARK  status: ('A' for Active; 'I' for Inactive)
REMARK    1  A    between atoms: C_1  and  C_2
REMARK    2  A    between atoms: C_6  and  C_7
REMARK    3  A    between atoms: C_20  and  C_22
REMARK    4  A    between atoms: C_27  and  O_28
REMARK                            x       y       z     vdW  Elec       q    Type
REMARK                         _______ _______ _______ _____ _____    ______ ____
ROOT
ATOM      1  C   UNL     1      -0.886  12.648  19.157  0.00  0.00    +0.000 C 
ATOM      2  C   UNL     1      -0.260  14.010  18.945  0.00  0.00    +0.000 A 
ATOM      3  N   UNL     1      -0.948  15.193  18.841  0.00  0.00    +0.000 N 
ATOM      4  C   UNL     1      -0.062  16.238  18.659  0.00  0.00    +0.000 A 
ATOM      5  C   UNL     1      -0.293  17.611  18.522  0.00  0.00    +0.000 A 
ATOM      6  C   UNL     1       0.822  18.437  18.336  0.00  0.00    +0.000 A 
ATOM      7  C   UNL     1       2.116  17.917  18.293  0.00  0.00    +0.000 A 
ATOM      8  C   UNL     1       2.327  16.544  18.437  0.00  0.00    +0.000 A 
ATOM      9  C   UNL     1       1.221  15.694  18.620  0.00  0.00    +0.000 A 
ATOM     10  C   UNL     1       1.075  14.300  18.794  0.00  0.00    +0.000 A 
ATOM     11  C   UNL     1       2.072  13.227  18.850  0.00  0.00    +0.000 C 
ATOM     12  C   UNL     1       1.558  12.131  19.788  0.00  0.00    +0.000 C 
ATOM     13  N   UNL     1       0.175  11.645  19.547  0.00  0.00    +0.000 N 
ATOM     14  C   UNL     1      -0.204  10.284  19.489  0.00  0.00    +0.000 C 
ATOM     15  O   UNL     1      -1.387   9.966  19.379  0.00  0.00    +0.000 OA
ATOM     16  H   UNL     1      -1.956  15.279  18.909  0.00  0.00    +0.000 HD
ENDROOT
BRANCH  14  17
ATOM     17  C   UNL     1       0.803   9.175  19.517  0.00  0.00    +0.000 A 
ATOM     18  C   UNL     1       1.756   8.950  18.520  0.00  0.00    +0.000 A 
ATOM     19  C   UNL     1       2.545   7.783  18.516  0.00  0.00    +0.000 A 
ATOM     20  C   UNL     1       2.494   6.962  19.630  0.00  0.00    +0.000 A 
ATOM     21  N   UNL     1       1.665   7.215  20.672  0.00  0.00    +0.000 NA
ATOM     22  C   UNL     1       0.838   8.281  20.577  0.00  0.00    +0.000 A 
ATOM     23  C   UNL     1       3.340   5.734  19.765  0.00  0.00    +0.000 C 
ATOM     24  C   UNL     1       4.353   5.459  18.659  0.00  0.00    +0.000 C 
ATOM     25  C   UNL     1       4.142   6.144  17.317  0.00  0.00    +0.000 C 
ATOM     26  C   UNL     1       3.346   7.447  17.297  0.00  0.00    +0.000 C 
BRANCH  22  27
ATOM     27  O   UNL     1       0.015   8.353  21.649  0.00  0.00    +0.000 OA
ATOM     28  H   UNL     1      -0.412   7.480  21.599  0.00  0.00    +0.000 HD
ENDBRANCH  22  27
ENDBRANCH  14  17
BRANCH   1  34
ATOM     29  C   UNL     1      -2.654  13.498  23.610  0.00  0.00    +0.000 C 
ATOM     30  C   UNL     1      -2.971  13.108  22.192  0.00  0.00    +0.000 A 
ATOM     31  C   UNL     1      -4.258  12.802  21.801  0.00  0.00    +0.000 A 
ATOM     32  C   UNL     1      -4.480  12.454  20.466  0.00  0.00    +0.000 A 
ATOM     33  C   UNL     1      -3.418  12.439  19.562  0.00  0.00    +0.000 A 
ATOM     34  C   UNL     1      -2.148  12.768  20.019  0.00  0.00    +0.000 A 
ATOM     35  N   UNL     1      -1.923  13.068  21.338  0.00  0.00    +0.000 NA
ENDBRANCH   1  34
TORSDOF 3
ENDMDL
MODEL 7
REMARK VINA RESULT:      -8.4      2.860      9.162
REMARK  Name = 
REMARK  4 active torsions:
REMARK  status: ('A' for Active; 'I' for Inactive)
REMARK    1  A    between atoms: C_1  and  C_2
REMARK    2  A    between atoms: C_6  and  C_7
REMARK    3  A    between atoms: C_20  and  C_22
REMARK    4  A    between atoms: C_27  and  O_28
REMARK                            x       y       z     vdW  Elec       q    Type
REMARK                         _______ _______ _______ _____ _____    ______ ____
ROOT
ATOM      1  C   UNL     1      -0.461  12.423  18.350  0.00  0.00    +0.000 C 
ATOM      2  C   UNL     1       0.042  13.809  18.696  0.00  0.00    +0.000 A 
ATOM      3  N   UNL     1      -0.668  14.974  18.537  0.00  0.00    +0.000 N 
ATOM      4  C   UNL     1       0.092  16.048  18.960  0.00  0.00    +0.000 A 
ATOM      5  C   UNL     1      -0.211  17.413  19.005  0.00  0.00    +0.000 A 
ATOM      6  C   UNL     1       0.781  18.278  19.481  0.00  0.00    +0.000 A 
ATOM      7  C   UNL     1       2.025  17.803  19.900  0.00  0.00    +0.000 A 
ATOM      8  C   UNL     1       2.307  16.436  19.851  0.00  0.00    +0.000 A 
ATOM      9  C   UNL     1       1.327  15.548  19.373  0.00  0.00    +0.000 A 
ATOM     10  C   UNL     1       1.277  14.148  19.193  0.00  0.00    +0.000 A 
ATOM     11  C   UNL     1       2.272  13.106  19.463  0.00  0.00    +0.000 C 
ATOM     12  C   UNL     1       1.539  11.821  19.857  0.00  0.00    +0.000 C 
ATOM     13  N   UNL     1       0.445  11.377  18.957  0.00  0.00    +0.000 N 
ATOM     14  C   UNL     1       0.278  10.057  18.479  0.00  0.00    +0.000 C 
ATOM     15  O   UNL     1      -0.710   9.751  17.811  0.00  0.00    +0.000 OA
ATOM     16  H   UNL     1      -1.616  15.025  18.180  0.00  0.00    +0.000 HD
ENDROOT
BRANCH  14  17
ATOM     17  C   UNL     1       1.298   8.986  18.722  0.00  0.00    +0.000 A 
ATOM     18  C   UNL     1       2.294   8.625  17.811  0.00  0.00    +0.000 A 
ATOM     19  C   UNL     1       3.099   7.488  18.024  0.00  0.00    +0.000 A 
ATOM     20  C   UNL     1       3.012   6.854  19.251  0.00  0.00    +0.000 A 
ATOM     21  N   UNL     1       2.137   7.253  20.207  0.00  0.00    +0.000 NA
ATOM     22  C   UNL     1       1.301   8.273  19.911  0.00  0.00    +0.000 A 
ATOM     23  C   UNL     1       3.869   5.680  19.613  0.00  0.00    +0.000 C 
ATOM     24  C   UNL     1       4.931   5.254  18.605  0.00  0.00    +0.000 C 
ATOM     25  C   UNL     1       4.766   5.713  17.164  0.00  0.00    +0.000 C 
ATOM     26  C   UNL     1       3.954   6.979  16.906  0.00  0.00    +0.000 C 
BRANCH  22  27
ATOM     27  O   UNL     1       0.433   8.497  20.925  0.00  0.00    +0.000 OA
ATOM     28  H   UNL     1       0.824   7.934  21.616  0.00  0.00    +0.000 HD
ENDBRANCH  22  27
ENDBRANCH  14  17
BRANCH   1  34
ATOM     29  C   UNL     1      -4.078  13.060  21.542  0.00  0.00    +0.000 C 
ATOM     30  C   UNL     1      -3.690  12.572  20.173  0.00  0.00    +0.000 A 
ATOM     31  C   UNL     1      -4.618  12.014  19.319  0.00  0.00    +0.000 A 
ATOM     32  C   UNL     1      -4.188  11.588  18.059  0.00  0.00    +0.000 A 
ATOM     33  C   UNL     1      -2.853  11.747  17.686  0.00  0.00    +0.000 A 
ATOM     34  C   UNL     1      -1.972  12.328  18.591  0.00  0.00    +0.000 A 
ATOM     35  N   UNL     1      -2.385  12.706  19.843  0.00  0.00    +0.000 NA
ENDBRANCH   1  34
TORSDOF 3
ENDMDL
MODEL 8
REMARK VINA RESULT:      -8.4      2.949      9.070
REMARK  Name = 
REMARK  4 active torsions:
REMARK  status: ('A' for Active; 'I' for Inactive)
REMARK    1  A    between atoms: C_1  and  C_2
REMARK    2  A    between atoms: C_6  and  C_7
REMARK    3  A    between atoms: C_20  and  C_22
REMARK    4  A    between atoms: C_27  and  O_28
REMARK                            x       y       z     vdW  Elec       q    Type
REMARK                         _______ _______ _______ _____ _____    ______ ____
ROOT
ATOM      1  C   UNL     1      -0.582  12.372  18.544  0.00  0.00    +0.000 C 
ATOM      2  C   UNL     1      -0.053  13.778  18.738  0.00  0.00    +0.000 A 
ATOM      3  N   UNL     1      -0.791  14.929  18.618  0.00  0.00    +0.000 N 
ATOM      4  C   UNL     1       0.007  16.028  18.870  0.00  0.00    +0.000 A 
ATOM      5  C   UNL     1      -0.303  17.392  18.883  0.00  0.00    +0.000 A 
ATOM      6  C   UNL     1       0.736  18.287  19.166  0.00  0.00    +0.000 A 
ATOM      7  C   UNL     1       2.031  17.842  19.429  0.00  0.00    +0.000 A 
ATOM      8  C   UNL     1       2.321  16.476  19.417  0.00  0.00    +0.000 A 
ATOM      9  C   UNL     1       1.294  15.557  19.131  0.00  0.00    +0.000 A 
ATOM     10  C   UNL     1       1.237  14.149  19.037  0.00  0.00    +0.000 A 
ATOM     11  C   UNL     1       2.272  13.129  19.221  0.00  0.00    +0.000 C 
ATOM     12  C   UNL     1       1.618  11.865  19.784  0.00  0.00    +0.000 C 
ATOM     13  N   UNL     1       0.414  11.366  19.073  0.00  0.00    +0.000 N 
ATOM     14  C   UNL     1       0.197  10.020  18.697  0.00  0.00    +0.000 C 
ATOM     15  O   UNL     1      -0.871   9.674  18.193  0.00  0.00    +0.000 OA
ATOM     16  H   UNL     1      -1.780  14.956  18.396  0.00  0.00    +0.000 HD
ENDROOT
BRANCH  14  17
ATOM     17  C   UNL     1       1.254   8.970  18.851  0.00  0.00    +0.000 A 
ATOM     18  C   UNL     1       2.212   8.666  17.880  0.00  0.00    +0.000 A 
ATOM     19  C   UNL     1       3.054   7.544  18.013  0.00  0.00    +0.000 A 
ATOM     20  C   UNL     1       3.045   6.867  19.220  0.00  0.00    +0.000 A 
ATOM     21  N   UNL     1       2.210   7.210  20.232  0.00  0.00    +0.000 NA
ATOM     22  C   UNL     1       1.335   8.218  20.013  0.00  0.00    +0.000 A 
ATOM     23  C   UNL     1       3.948   5.705  19.498  0.00  0.00    +0.000 C 
ATOM     24  C   UNL     1       4.968   5.341  18.425  0.00  0.00    +0.000 C 
ATOM     25  C   UNL     1       4.719   5.843  17.010  0.00  0.00    +0.000 C 
ATOM     26  C   UNL     1       3.864   7.096  16.837  0.00  0.00    +0.000 C 
BRANCH  22  27
ATOM     27  O   UNL     1       0.514   8.385  21.077  0.00  0.00    +0.000 OA
ATOM     28  H   UNL     1       0.154   7.485  21.161  0.00  0.00    +0.000 HD
ENDBRANCH  22  27
ENDBRANCH  14  17
BRANCH   1  34
ATOM     29  C   UNL     1      -5.163  11.402  17.220  0.00  0.00    +0.000 C 
ATOM     30  C   UNL     1      -4.254  11.884  18.317  0.00  0.00    +0.000 A 
ATOM     31  C   UNL     1      -4.752  12.287  19.538  0.00  0.00    +0.000 A 
ATOM     32  C   UNL     1      -3.848  12.716  20.514  0.00  0.00    +0.000 A 
ATOM     33  C   UNL     1      -2.479  12.713  20.248  0.00  0.00    +0.000 A 
ATOM     34  C   UNL     1      -2.043  12.284  19.000  0.00  0.00    +0.000 A 
ATOM     35  N   UNL     1      -2.933  11.904  18.028  0.00  0.00    +0.000 NA
ENDBRANCH   1  34
TORSDOF 3
ENDMDL
MODEL 9
REMARK VINA RESULT:      -8.3      3.764     10.446
REMARK  Name = 
REMARK  4 active torsions:
REMARK  status: ('A' for Active; 'I' for Inactive)
REMARK    1  A    between atoms: C_1  and  C_2
REMARK    2  A    between atoms: C_6  and  C_7
REMARK    3  A    between atoms: C_20  and  C_22
REMARK    4  A    between atoms: C_27  and  O_28
REMARK                            x       y       z     vdW  Elec       q    Type
REMARK                         _______ _______ _______ _____ _____    ______ ____
ROOT
ATOM      1  C   UNL     1      -2.960  12.786  21.259  0.00  0.00    +0.000 C 
ATOM      2  C   UNL     1      -4.132  13.006  20.325  0.00  0.00    +0.000 A 
ATOM      3  N   UNL     1      -5.134  13.925  20.512  0.00  0.00    +0.000 N 
ATOM      4  C   UNL     1      -6.033  13.859  19.464  0.00  0.00    +0.000 A 
ATOM      5  C   UNL     1      -7.191  14.602  19.213  0.00  0.00    +0.000 A 
ATOM      6  C   UNL     1      -7.916  14.295  18.055  0.00  0.00    +0.000 A 
ATOM      7  C   UNL     1      -7.503  13.290  17.180  0.00  0.00    +0.000 A 
ATOM      8  C   UNL     1      -6.342  12.561  17.446  0.00  0.00    +0.000 A 
ATOM      9  C   UNL     1      -5.599  12.849  18.606  0.00  0.00    +0.000 A 
ATOM     10  C   UNL     1      -4.413  12.325  19.165  0.00  0.00    +0.000 A 
ATOM     11  C   UNL     1      -3.517  11.262  18.700  0.00  0.00    +0.000 C 
ATOM     12  C   UNL     1      -2.090  11.597  19.145  0.00  0.00    +0.000 C 
ATOM     13  N   UNL     1      -1.905  11.945  20.577  0.00  0.00    +0.000 N 
ATOM     14  C   UNL     1      -0.898  11.413  21.414  0.00  0.00    +0.000 C 
ATOM     15  O   UNL     1      -0.755  11.825  22.565  0.00  0.00    +0.000 OA
ATOM     16  H   UNL     1      -5.187  14.567  21.295  0.00  0.00    +0.000 HD
ENDROOT
BRANCH  14  17
ATOM     17  C   UNL     1       0.009  10.308  20.965  0.00  0.00    +0.000 A 
ATOM     18  C   UNL     1       0.792  10.351  19.809  0.00  0.00    +0.000 A 
ATOM     19  C   UNL     1       1.475   9.208  19.347  0.00  0.00    +0.000 A 
ATOM     20  C   UNL     1       1.511   8.097  20.173  0.00  0.00    +0.000 A 
ATOM     21  N   UNL     1       0.857   8.063  21.361  0.00  0.00    +0.000 NA
ATOM     22  C   UNL     1       0.116   9.140  21.705  0.00  0.00    +0.000 A 
ATOM     23  C   UNL     1       2.264   6.853  19.817  0.00  0.00    +0.000 C 
ATOM     24  C   UNL     1       3.088   6.879  18.535  0.00  0.00    +0.000 C 
ATOM     25  C   UNL     1       2.750   7.937  17.495  0.00  0.00    +0.000 C 
ATOM     26  C   UNL     1       2.069   9.217  17.974  0.00  0.00    +0.000 C 
BRANCH  22  27
ATOM     27  O   UNL     1      -0.542   8.923  22.868  0.00  0.00    +0.000 OA
ATOM     28  H   UNL     1      -1.325   9.485  22.732  0.00  0.00    +0.000 HD
ENDBRANCH  22  27
ENDBRANCH  14  17
BRANCH   1  34
ATOM     29  C   UNL     1      -3.746  15.872  24.938  0.00  0.00    +0.000 C 
ATOM     30  C   UNL     1      -2.996  15.617  23.659  0.00  0.00    +0.000 A 
ATOM     31  C   UNL     1      -2.130  16.552  23.135  0.00  0.00    +0.000 A 
ATOM     32  C   UNL     1      -1.462  16.244  21.946  0.00  0.00    +0.000 A 
ATOM     33  C   UNL     1      -1.667  15.010  21.329  0.00  0.00    +0.000 A 
ATOM     34  C   UNL     1      -2.546  14.108  21.916  0.00  0.00    +0.000 A 
ATOM     35  N   UNL     1      -3.233  14.427  23.060  0.00  0.00    +0.000 NA
ENDBRANCH   1  34
TORSDOF 3
ENDMDL
