MODEL 1
REMARK VINA RESULT:      -8.9      0.000      0.000
REMARK  Name = 
REMARK  10 active torsions:
REMARK  status: ('A' for Active; 'I' for Inactive)
REMARK    1  A    between atoms: C_1  and  O_2
REMARK    2  A    between atoms: O_2  and  C_3
REMARK    3  A    between atoms: C_6  and  N_7
REMARK    4  A    between atoms: N_7  and  C_8
REMARK    5  A    between atoms: C_8  and  N_10
REMARK    6  A    between atoms: C_12  and  C_13
REMARK    7  A    between atoms: C_22  and  C_23
REMARK    8  A    between atoms: C_27  and  C_28
REMARK    9  A    between atoms: C_32  and  O_33
REMARK   10  A    between atoms: O_33  and  C_34
REMARK                            x       y       z     vdW  Elec       q    Type
REMARK                         _______ _______ _______ _____ _____    ______ ____
ROOT
ATOM      1  N   UNL     1       2.047   8.062  18.770  0.00  0.00    +0.000 N 
ATOM      2  C   UNL     1       2.895   7.702  17.753  0.00  0.00    +0.000 A 
ATOM      3  C   UNL     1       3.314   6.418  18.036  0.00  0.00    +0.000 A 
ATOM      4  C   UNL     1       2.497   5.976  19.125  0.00  0.00    +0.000 A 
ATOM      5  N   UNL     1       1.654   6.969  19.490  0.00  0.00    +0.000 NA
ENDROOT
BRANCH   3   6
ATOM      6  C   UNL     1       4.514   5.908  17.444  0.00  0.00    +0.000 A 
ATOM      7  C   UNL     1       5.700   6.816  17.472  0.00  0.00    +0.000 A 
ATOM      8  C   UNL     1       6.889   6.334  17.028  0.00  0.00    +0.000 A 
ATOM      9  C   UNL     1       6.814   5.514  15.864  0.00  0.00    +0.000 A 
ATOM     10  N   UNL     1       7.605   5.363  14.829  0.00  0.00    +0.000 NA
ATOM     11  C   UNL     1       6.920   4.465  14.067  0.00  0.00    +0.000 A 
ATOM     12  N   UNL     1       5.786   3.994  14.591  0.00  0.00    +0.000 NA
ATOM     13  N   UNL     1       5.658   4.739  15.719  0.00  0.00    +0.000 N 
ATOM     14  C   UNL     1       4.551   4.883  16.564  0.00  0.00    +0.000 A 
ENDBRANCH   3   6
BRANCH   4  15
ATOM     15  C   UNL     1       2.503   4.718  19.894  0.00  0.00    +0.000 A 
ATOM     16  C   UNL     1       1.377   4.385  20.654  0.00  0.00    +0.000 A 
ATOM     17  C   UNL     1       1.359   3.191  21.357  0.00  0.00    +0.000 A 
ATOM     18  C   UNL     1       2.453   2.346  21.273  0.00  0.00    +0.000 A 
ATOM     19  C   UNL     1       3.541   2.726  20.487  0.00  0.00    +0.000 A 
ATOM     20  C   UNL     1       4.738   1.824  20.401  0.00  0.00    +0.000 C 
ATOM     21  N   UNL     1       3.592   3.908  19.812  0.00  0.00    +0.000 NA
ENDBRANCH   4  15
BRANCH   1  22
ATOM     22  C   UNL     1       1.684   9.381  19.191  0.00  0.00    +0.000 C 
ATOM     23  S   UNL     1       1.903  10.767  18.262  0.00  0.00    +0.000 S 
BRANCH  22  24
ATOM     24  N   UNL     1       1.133   9.290  20.469  0.00  0.00    +0.000 N 
ATOM     25  H   UNL     1       1.587   8.587  21.056  0.00  0.00    +0.000 HD
BRANCH  24  29
ATOM     26  C   UNL     1      -1.440  11.804  22.731  0.00  0.00    +0.000 A 
ATOM     27  C   UNL     1      -1.043  10.537  23.188  0.00  0.00    +0.000 A 
ATOM     28  C   UNL     1      -0.214   9.715  22.414  0.00  0.00    +0.000 A 
ATOM     29  C   UNL     1       0.197  10.112  21.140  0.00  0.00    +0.000 A 
ATOM     30  C   UNL     1      -0.263  11.340  20.664  0.00  0.00    +0.000 A 
ATOM     31  C   UNL     1      -1.084  12.189  21.433  0.00  0.00    +0.000 A 
BRANCH  26  33
ATOM     32  C   UNL     1      -3.589  12.540  23.423  0.00  0.00    +0.000 C 
ATOM     33  O   UNL     1      -2.171  12.658  23.512  0.00  0.00    +0.000 OA
ENDBRANCH  26  33
BRANCH  31  34
ATOM     34  O   UNL     1      -1.387  13.336  20.751  0.00  0.00    +0.000 OA
ATOM     35  C   UNL     1      -0.891  13.534  19.439  0.00  0.00    +0.000 C 
ENDBRANCH  31  34
ENDBRANCH  24  29
ENDBRANCH  22  24
ENDBRANCH   1  22
TORSDOF 7
ENDMDL
MODEL 2
REMARK VINA RESULT:      -8.6      2.795      3.377
REMARK  Name = 
REMARK  10 active torsions:
REMARK  status: ('A' for Active; 'I' for Inactive)
REMARK    1  A    between atoms: C_1  and  O_2
REMARK    2  A    between atoms: O_2  and  C_3
REMARK    3  A    between atoms: C_6  and  N_7
REMARK    4  A    between atoms: N_7  and  C_8
REMARK    5  A    between atoms: C_8  and  N_10
REMARK    6  A    between atoms: C_12  and  C_13
REMARK    7  A    between atoms: C_22  and  C_23
REMARK    8  A    between atoms: C_27  and  C_28
REMARK    9  A    between atoms: C_32  and  O_33
REMARK   10  A    between atoms: O_33  and  C_34
REMARK                            x       y       z     vdW  Elec       q    Type
REMARK                         _______ _______ _______ _____ _____    ______ ____
ROOT
ATOM      1  N   UNL     1       1.642   8.315  19.192  0.00  0.00    +0.000 N 
ATOM      2  C   UNL     1       2.719   8.332  18.341  0.00  0.00    +0.000 A 
ATOM      3  C   UNL     1       3.116   7.017  18.197  0.00  0.00    +0.000 A 
ATOM      4  C   UNL     1       2.087   6.233  18.810  0.00  0.00    +0.000 A 
ATOM      5  N   UNL     1       1.139   7.051  19.322  0.00  0.00    +0.000 NA
ENDROOT
BRANCH   3   6
ATOM      6  C   UNL     1       4.442   6.714  17.750  0.00  0.00    +0.000 A 
ATOM      7  C   UNL     1       4.590   6.393  16.298  0.00  0.00    +0.000 A 
ATOM      8  C   UNL     1       5.842   6.213  15.805  0.00  0.00    +0.000 A 
ATOM      9  C   UNL     1       6.730   5.487  16.653  0.00  0.00    +0.000 A 
ATOM     10  N   UNL     1       7.686   4.624  16.410  0.00  0.00    +0.000 NA
ATOM     11  C   UNL     1       8.096   4.283  17.664  0.00  0.00    +0.000 A 
ATOM     12  N   UNL     1       7.505   4.929  18.672  0.00  0.00    +0.000 NA
ATOM     13  N   UNL     1       6.548   5.648  18.031  0.00  0.00    +0.000 N 
ATOM     14  C   UNL     1       5.451   6.334  18.565  0.00  0.00    +0.000 A 
ENDBRANCH   3   6
BRANCH   4  15
ATOM     15  C   UNL     1       1.968   4.778  19.013  0.00  0.00    +0.000 A 
ATOM     16  C   UNL     1       2.047   3.931  17.902  0.00  0.00    +0.000 A 
ATOM     17  C   UNL     1       1.967   2.560  18.083  0.00  0.00    +0.000 A 
ATOM     18  C   UNL     1       1.828   2.060  19.367  0.00  0.00    +0.000 A 
ATOM     19  C   UNL     1       1.769   2.953  20.437  0.00  0.00    +0.000 A 
ATOM     20  C   UNL     1       1.603   2.422  21.832  0.00  0.00    +0.000 C 
ATOM     21  N   UNL     1       1.816   4.305  20.278  0.00  0.00    +0.000 NA
ENDBRANCH   4  15
BRANCH   1  22
ATOM     22  C   UNL     1       1.133   9.387  19.991  0.00  0.00    +0.000 C 
ATOM     23  S   UNL     1       1.201   9.433  21.672  0.00  0.00    +0.000 S 
BRANCH  22  24
ATOM     24  N   UNL     1       0.594  10.347  19.135  0.00  0.00    +0.000 N 
ATOM     25  H   UNL     1       1.305  10.878  18.624  0.00  0.00    +0.000 HD
BRANCH  24  29
ATOM     26  C   UNL     1      -3.308  11.382  17.810  0.00  0.00    +0.000 A 
ATOM     27  C   UNL     1      -2.736  11.949  18.959  0.00  0.00    +0.000 A 
ATOM     28  C   UNL     1      -1.456  11.574  19.392  0.00  0.00    +0.000 A 
ATOM     29  C   UNL     1      -0.737  10.585  18.720  0.00  0.00    +0.000 A 
ATOM     30  C   UNL     1      -1.344   9.973  17.622  0.00  0.00    +0.000 A 
ATOM     31  C   UNL     1      -2.623  10.347  17.161  0.00  0.00    +0.000 A 
BRANCH  26  33
ATOM     32  C   UNL     1      -5.674  11.193  17.884  0.00  0.00    +0.000 C 
ATOM     33  O   UNL     1      -4.515  11.802  17.320  0.00  0.00    +0.000 OA
ENDBRANCH  26  33
BRANCH  31  34
ATOM     34  O   UNL     1      -2.989   9.612  16.068  0.00  0.00    +0.000 OA
ATOM     35  C   UNL     1      -2.985  10.203  14.780  0.00  0.00    +0.000 C 
ENDBRANCH  31  34
ENDBRANCH  24  29
ENDBRANCH  22  24
ENDBRANCH   1  22
TORSDOF 7
ENDMDL
MODEL 3
REMARK VINA RESULT:      -8.5      1.925      2.459
REMARK  Name = 
REMARK  10 active torsions:
REMARK  status: ('A' for Active; 'I' for Inactive)
REMARK    1  A    between atoms: C_1  and  O_2
REMARK    2  A    between atoms: O_2  and  C_3
REMARK    3  A    between atoms: C_6  and  N_7
REMARK    4  A    between atoms: N_7  and  C_8
REMARK    5  A    between atoms: C_8  and  N_10
REMARK    6  A    between atoms: C_12  and  C_13
REMARK    7  A    between atoms: C_22  and  C_23
REMARK    8  A    between atoms: C_27  and  C_28
REMARK    9  A    between atoms: C_32  and  O_33
REMARK   10  A    between atoms: O_33  and  C_34
REMARK                            x       y       z     vdW  Elec       q    Type
REMARK                         _______ _______ _______ _____ _____    ______ ____
ROOT
ATOM      1  N   UNL     1       1.760   7.915  19.201  0.00  0.00    +0.000 N 
ATOM      2  C   UNL     1       2.627   7.672  18.166  0.00  0.00    +0.000 A 
ATOM      3  C   UNL     1       3.123   6.400  18.370  0.00  0.00    +0.000 A 
ATOM      4  C   UNL     1       2.335   5.842  19.427  0.00  0.00    +0.000 A 
ATOM      5  N   UNL     1       1.433   6.758  19.850  0.00  0.00    +0.000 NA
ENDROOT
BRANCH   3   6
ATOM      6  C   UNL     1       4.351   6.001  17.750  0.00  0.00    +0.000 A 
ATOM      7  C   UNL     1       5.395   7.061  17.615  0.00  0.00    +0.000 A 
ATOM      8  C   UNL     1       6.616   6.704  17.141  0.00  0.00    +0.000 A 
ATOM      9  C   UNL     1       6.598   5.766  16.066  0.00  0.00    +0.000 A 
ATOM     10  N   UNL     1       7.348   5.620  15.001  0.00  0.00    +0.000 NA
ATOM     11  C   UNL     1       6.759   4.562  14.374  0.00  0.00    +0.000 A 
ATOM     12  N   UNL     1       5.733   3.996  15.014  0.00  0.00    +0.000 NA
ATOM     13  N   UNL     1       5.559   4.829  16.072  0.00  0.00    +0.000 N 
ATOM     14  C   UNL     1       4.489   4.905  16.971  0.00  0.00    +0.000 A 
ENDBRANCH   3   6
BRANCH   4  15
ATOM     15  C   UNL     1       2.417   4.541  20.115  0.00  0.00    +0.000 A 
ATOM     16  C   UNL     1       1.308   4.086  20.836  0.00  0.00    +0.000 A 
ATOM     17  C   UNL     1       1.362   2.851  21.462  0.00  0.00    +0.000 A 
ATOM     18  C   UNL     1       2.512   2.088  21.342  0.00  0.00    +0.000 A 
ATOM     19  C   UNL     1       3.580   2.589  20.599  0.00  0.00    +0.000 A 
ATOM     20  C   UNL     1       4.837   1.776  20.475  0.00  0.00    +0.000 C 
ATOM     21  N   UNL     1       3.559   3.812  20.000  0.00  0.00    +0.000 NA
ENDBRANCH   4  15
BRANCH   1  22
ATOM     22  C   UNL     1       1.318   9.181  19.703  0.00  0.00    +0.000 C 
ATOM     23  S   UNL     1       1.395   9.639  21.320  0.00  0.00    +0.000 S 
BRANCH  22  24
ATOM     24  N   UNL     1       0.835   9.926  18.628  0.00  0.00    +0.000 N 
ATOM     25  H   UNL     1       1.463   9.926  17.820  0.00  0.00    +0.000 HD
BRANCH  24  29
ATOM     26  C   UNL     1      -3.103  11.397  18.006  0.00  0.00    +0.000 A 
ATOM     27  C   UNL     1      -2.515  10.454  17.148  0.00  0.00    +0.000 A 
ATOM     28  C   UNL     1      -1.205  10.001  17.359  0.00  0.00    +0.000 A 
ATOM     29  C   UNL     1      -0.430  10.518  18.398  0.00  0.00    +0.000 A 
ATOM     30  C   UNL     1      -0.996  11.510  19.200  0.00  0.00    +0.000 A 
ATOM     31  C   UNL     1      -2.317  11.966  19.015  0.00  0.00    +0.000 A 
BRANCH  26  33
ATOM     32  C   UNL     1      -5.385  10.929  18.469  0.00  0.00    +0.000 C 
ATOM     33  O   UNL     1      -4.410  11.780  17.871  0.00  0.00    +0.000 OA
ENDBRANCH  26  33
BRANCH  31  34
ATOM     34  O   UNL     1      -2.641  12.927  19.933  0.00  0.00    +0.000 OA
ATOM     35  C   UNL     1      -2.882  12.569  21.282  0.00  0.00    +0.000 C 
ENDBRANCH  31  34
ENDBRANCH  24  29
ENDBRANCH  22  24
ENDBRANCH   1  22
TORSDOF 7
ENDMDL
MODEL 4
REMARK VINA RESULT:      -8.5      2.563      3.067
REMARK  Name = 
REMARK  10 active torsions:
REMARK  status: ('A' for Active; 'I' for Inactive)
REMARK    1  A    between atoms: C_1  and  O_2
REMARK    2  A    between atoms: O_2  and  C_3
REMARK    3  A    between atoms: C_6  and  N_7
REMARK    4  A    between atoms: N_7  and  C_8
REMARK    5  A    between atoms: C_8  and  N_10
REMARK    6  A    between atoms: C_12  and  C_13
REMARK    7  A    between atoms: C_22  and  C_23
REMARK    8  A    between atoms: C_27  and  C_28
REMARK    9  A    between atoms: C_32  and  O_33
REMARK   10  A    between atoms: O_33  and  C_34
REMARK                            x       y       z     vdW  Elec       q    Type
REMARK                         _______ _______ _______ _____ _____    ______ ____
ROOT
ATOM      1  N   UNL     1       1.821   8.099  19.016  0.00  0.00    +0.000 N 
ATOM      2  C   UNL     1       2.849   7.972  18.115  0.00  0.00    +0.000 A 
ATOM      3  C   UNL     1       3.136   6.623  18.046  0.00  0.00    +0.000 A 
ATOM      4  C   UNL     1       2.085   5.967  18.762  0.00  0.00    +0.000 A 
ATOM      5  N   UNL     1       1.231   6.891  19.260  0.00  0.00    +0.000 NA
ENDROOT
BRANCH   3   6
ATOM      6  C   UNL     1       4.410   6.185  17.559  0.00  0.00    +0.000 A 
ATOM      7  C   UNL     1       5.478   7.227  17.478  0.00  0.00    +0.000 A 
ATOM      8  C   UNL     1       6.731   6.836  17.133  0.00  0.00    +0.000 A 
ATOM      9  C   UNL     1       6.798   5.856  16.099  0.00  0.00    +0.000 A 
ATOM     10  N   UNL     1       7.640   5.658  15.114  0.00  0.00    +0.000 NA
ATOM     11  C   UNL     1       7.094   4.583  14.477  0.00  0.00    +0.000 A 
ATOM     12  N   UNL     1       6.005   4.056  15.042  0.00  0.00    +0.000 NA
ATOM     13  N   UNL     1       5.748   4.932  16.046  0.00  0.00    +0.000 N 
ATOM     14  C   UNL     1       4.601   5.058  16.839  0.00  0.00    +0.000 A 
ENDBRANCH   3   6
BRANCH   4  15
ATOM     15  C   UNL     1       1.866   4.543  19.074  0.00  0.00    +0.000 A 
ATOM     16  C   UNL     1       1.720   3.634  18.020  0.00  0.00    +0.000 A 
ATOM     17  C   UNL     1       1.544   2.289  18.300  0.00  0.00    +0.000 A 
ATOM     18  C   UNL     1       1.536   1.874  19.621  0.00  0.00    +0.000 A 
ATOM     19  C   UNL     1       1.700   2.824  20.628  0.00  0.00    +0.000 A 
ATOM     20  C   UNL     1       1.677   2.387  22.065  0.00  0.00    +0.000 C 
ATOM     21  N   UNL     1       1.845   4.155  20.377  0.00  0.00    +0.000 NA
ENDBRANCH   4  15
BRANCH   1  22
ATOM     22  C   UNL     1       1.440   9.260  19.760  0.00  0.00    +0.000 C 
ATOM     23  S   UNL     1       1.652   9.434  21.421  0.00  0.00    +0.000 S 
BRANCH  22  24
ATOM     24  N   UNL     1       0.883  10.179  18.872  0.00  0.00    +0.000 N 
ATOM     25  H   UNL     1       1.574  10.620  18.260  0.00  0.00    +0.000 HD
BRANCH  24  29
ATOM     26  C   UNL     1      -3.062  11.361  17.826  0.00  0.00    +0.000 A 
ATOM     27  C   UNL     1      -2.393  11.897  18.937  0.00  0.00    +0.000 A 
ATOM     28  C   UNL     1      -1.101  11.474  19.278  0.00  0.00    +0.000 A 
ATOM     29  C   UNL     1      -0.465  10.467  18.551  0.00  0.00    +0.000 A 
ATOM     30  C   UNL     1      -1.167   9.887  17.494  0.00  0.00    +0.000 A 
ATOM     31  C   UNL     1      -2.460  10.310  17.124  0.00  0.00    +0.000 A 
BRANCH  26  33
ATOM     32  C   UNL     1      -5.425  11.161  17.959  0.00  0.00    +0.000 C 
ATOM     33  O   UNL     1      -4.285  11.828  17.423  0.00  0.00    +0.000 OA
ENDBRANCH  26  33
BRANCH  31  34
ATOM     34  O   UNL     1      -2.926   9.598  16.053  0.00  0.00    +0.000 OA
ATOM     35  C   UNL     1      -2.960  10.190  14.767  0.00  0.00    +0.000 C 
ENDBRANCH  31  34
ENDBRANCH  24  29
ENDBRANCH  22  24
ENDBRANCH   1  22
TORSDOF 7
ENDMDL
MODEL 5
REMARK VINA RESULT:      -8.5      1.010      1.102
REMARK  Name = 
REMARK  10 active torsions:
REMARK  status: ('A' for Active; 'I' for Inactive)
REMARK    1  A    between atoms: C_1  and  O_2
REMARK    2  A    between atoms: O_2  and  C_3
REMARK    3  A    between atoms: C_6  and  N_7
REMARK    4  A    between atoms: N_7  and  C_8
REMARK    5  A    between atoms: C_8  and  N_10
REMARK    6  A    between atoms: C_12  and  C_13
REMARK    7  A    between atoms: C_22  and  C_23
REMARK    8  A    between atoms: C_27  and  C_28
REMARK    9  A    between atoms: C_32  and  O_33
REMARK   10  A    between atoms: O_33  and  C_34
REMARK                            x       y       z     vdW  Elec       q    Type
REMARK                         _______ _______ _______ _____ _____    ______ ____
ROOT
ATOM      1  N   UNL     1       1.984   8.376  18.692  0.00  0.00    +0.000 N 
ATOM      2  C   UNL     1       2.907   8.027  17.738  0.00  0.00    +0.000 A 
ATOM      3  C   UNL     1       3.220   6.703  17.971  0.00  0.00    +0.000 A 
ATOM      4  C   UNL     1       2.273   6.247  18.943  0.00  0.00    +0.000 A 
ATOM      5  N   UNL     1       1.457   7.268  19.293  0.00  0.00    +0.000 NA
ENDROOT
BRANCH   3   6
ATOM      6  C   UNL     1       4.441   6.155  17.463  0.00  0.00    +0.000 A 
ATOM      7  C   UNL     1       5.618   7.076  17.440  0.00  0.00    +0.000 A 
ATOM      8  C   UNL     1       6.823   6.569  17.077  0.00  0.00    +0.000 A 
ATOM      9  C   UNL     1       6.790   5.643  15.992  0.00  0.00    +0.000 A 
ATOM     10  N   UNL     1       7.613   5.407  14.999  0.00  0.00    +0.000 NA
ATOM     11  C   UNL     1       6.958   4.434  14.305  0.00  0.00    +0.000 A 
ATOM     12  N   UNL     1       5.814   4.000  14.838  0.00  0.00    +0.000 NA
ATOM     13  N   UNL     1       5.646   4.845  15.888  0.00  0.00    +0.000 N 
ATOM     14  C   UNL     1       4.514   5.053  16.684  0.00  0.00    +0.000 A 
ENDBRANCH   3   6
BRANCH   4  15
ATOM     15  C   UNL     1       2.128   4.946  19.619  0.00  0.00    +0.000 A 
ATOM     16  C   UNL     1       2.250   4.889  21.012  0.00  0.00    +0.000 A 
ATOM     17  C   UNL     1       2.086   3.676  21.661  0.00  0.00    +0.000 A 
ATOM     18  C   UNL     1       1.786   2.550  20.914  0.00  0.00    +0.000 A 
ATOM     19  C   UNL     1       1.664   2.671  19.530  0.00  0.00    +0.000 A 
ATOM     20  C   UNL     1       1.354   1.453  18.708  0.00  0.00    +0.000 C 
ATOM     21  N   UNL     1       1.850   3.847  18.868  0.00  0.00    +0.000 NA
ENDBRANCH   4  15
BRANCH   1  22
ATOM     22  C   UNL     1       1.657   9.686  19.166  0.00  0.00    +0.000 C 
ATOM     23  S   UNL     1       1.993  11.108  18.330  0.00  0.00    +0.000 S 
BRANCH  22  24
ATOM     24  N   UNL     1       1.030   9.554  20.404  0.00  0.00    +0.000 N 
ATOM     25  H   UNL     1       1.486   8.874  21.018  0.00  0.00    +0.000 HD
BRANCH  24  29
ATOM     26  C   UNL     1      -1.799  12.010  22.409  0.00  0.00    +0.000 A 
ATOM     27  C   UNL     1      -1.010  11.071  23.092  0.00  0.00    +0.000 A 
ATOM     28  C   UNL     1      -0.100  10.254  22.406  0.00  0.00    +0.000 A 
ATOM     29  C   UNL     1       0.006  10.314  21.016  0.00  0.00    +0.000 A 
ATOM     30  C   UNL     1      -0.836  11.197  20.338  0.00  0.00    +0.000 A 
ATOM     31  C   UNL     1      -1.745  12.039  21.010  0.00  0.00    +0.000 A 
BRANCH  26  33
ATOM     32  C   UNL     1      -3.705  12.299  23.797  0.00  0.00    +0.000 C 
ATOM     33  O   UNL     1      -2.624  12.879  23.071  0.00  0.00    +0.000 OA
ENDBRANCH  26  33
BRANCH  31  34
ATOM     34  O   UNL     1      -2.443  12.817  20.128  0.00  0.00    +0.000 OA
ATOM     35  C   UNL     1      -3.805  12.536  19.855  0.00  0.00    +0.000 C 
ENDBRANCH  31  34
ENDBRANCH  24  29
ENDBRANCH  22  24
ENDBRANCH   1  22
TORSDOF 7
ENDMDL
MODEL 6
REMARK VINA RESULT:      -8.5      2.878      3.351
REMARK  Name = 
REMARK  10 active torsions:
REMARK  status: ('A' for Active; 'I' for Inactive)
REMARK    1  A    between atoms: C_1  and  O_2
REMARK    2  A    between atoms: O_2  and  C_3
REMARK    3  A    between atoms: C_6  and  N_7
REMARK    4  A    between atoms: N_7  and  C_8
REMARK    5  A    between atoms: C_8  and  N_10
REMARK    6  A    between atoms: C_12  and  C_13
REMARK    7  A    between atoms: C_22  and  C_23
REMARK    8  A    between atoms: C_27  and  C_28
REMARK    9  A    between atoms: C_32  and  O_33
REMARK   10  A    between atoms: O_33  and  C_34
REMARK                            x       y       z     vdW  Elec       q    Type
REMARK                         _______ _______ _______ _____ _____    ______ ____
ROOT
ATOM      1  N   UNL     1       1.561   8.492  18.599  0.00  0.00    +0.000 N 
ATOM      2  C   UNL     1       2.638   8.354  17.759  0.00  0.00    +0.000 A 
ATOM      3  C   UNL     1       3.137   7.086  17.977  0.00  0.00    +0.000 A 
ATOM      4  C   UNL     1       2.170   6.426  18.800  0.00  0.00    +0.000 A 
ATOM      5  N   UNL     1       1.158   7.279  19.082  0.00  0.00    +0.000 NA
ENDROOT
BRANCH   3   6
ATOM      6  C   UNL     1       4.485   6.772  17.609  0.00  0.00    +0.000 A 
ATOM      7  C   UNL     1       4.713   6.431  16.172  0.00  0.00    +0.000 A 
ATOM      8  C   UNL     1       5.989   6.240  15.752  0.00  0.00    +0.000 A 
ATOM      9  C   UNL     1       6.826   5.523  16.659  0.00  0.00    +0.000 A 
ATOM     10  N   UNL     1       7.791   4.654  16.480  0.00  0.00    +0.000 NA
ATOM     11  C   UNL     1       8.129   4.329  17.760  0.00  0.00    +0.000 A 
ATOM     12  N   UNL     1       7.485   4.991  18.725  0.00  0.00    +0.000 NA
ATOM     13  N   UNL     1       6.568   5.703  18.022  0.00  0.00    +0.000 N 
ATOM     14  C   UNL     1       5.445   6.401  18.485  0.00  0.00    +0.000 A 
ENDBRANCH   3   6
BRANCH   4  15
ATOM     15  C   UNL     1       2.163   5.079  19.399  0.00  0.00    +0.000 A 
ATOM     16  C   UNL     1       1.556   4.896  20.647  0.00  0.00    +0.000 A 
ATOM     17  C   UNL     1       1.517   3.630  21.206  0.00  0.00    +0.000 A 
ATOM     18  C   UNL     1       2.066   2.569  20.505  0.00  0.00    +0.000 A 
ATOM     19  C   UNL     1       2.645   2.811  19.259  0.00  0.00    +0.000 A 
ATOM     20  C   UNL     1       3.257   1.670  18.498  0.00  0.00    +0.000 C 
ATOM     21  N   UNL     1       2.720   4.052  18.704  0.00  0.00    +0.000 NA
ENDBRANCH   4  15
BRANCH   1  22
ATOM     22  C   UNL     1       0.967   9.702  19.079  0.00  0.00    +0.000 C 
ATOM     23  S   UNL     1       1.168  10.304  20.638  0.00  0.00    +0.000 S 
BRANCH  22  24
ATOM     24  N   UNL     1       0.222  10.259  18.040  0.00  0.00    +0.000 N 
ATOM     25  H   UNL     1       0.739  10.319  17.159  0.00  0.00    +0.000 HD
BRANCH  24  29
ATOM     26  C   UNL     1      -3.817  11.553  17.775  0.00  0.00    +0.000 A 
ATOM     27  C   UNL     1      -3.052  11.728  18.939  0.00  0.00    +0.000 A 
ATOM     28  C   UNL     1      -1.729  11.271  19.013  0.00  0.00    +0.000 A 
ATOM     29  C   UNL     1      -1.153  10.579  17.947  0.00  0.00    +0.000 A 
ATOM     30  C   UNL     1      -1.945  10.344  16.822  0.00  0.00    +0.000 A 
ATOM     31  C   UNL     1      -3.272  10.809  16.722  0.00  0.00    +0.000 A 
BRANCH  26  33
ATOM     32  C   UNL     1      -6.152  11.240  18.081  0.00  0.00    +0.000 C 
ATOM     33  O   UNL     1      -5.077  12.073  17.652  0.00  0.00    +0.000 OA
ENDBRANCH  26  33
BRANCH  31  34
ATOM     34  O   UNL     1      -3.828  10.463  15.521  0.00  0.00    +0.000 OA
ATOM     35  C   UNL     1      -3.008   9.987  14.468  0.00  0.00    +0.000 C 
ENDBRANCH  31  34
ENDBRANCH  24  29
ENDBRANCH  22  24
ENDBRANCH   1  22
TORSDOF 7
ENDMDL
MODEL 7
REMARK VINA RESULT:      -8.4      2.640      3.088
REMARK  Name = 
REMARK  10 active torsions:
REMARK  status: ('A' for Active; 'I' for Inactive)
REMARK    1  A    between atoms: C_1  and  O_2
REMARK    2  A    between atoms: O_2  and  C_3
REMARK    3  A    between atoms: C_6  and  N_7
REMARK    4  A    between atoms: N_7  and  C_8
REMARK    5  A    between atoms: C_8  and  N_10
REMARK    6  A    between atoms: C_12  and  C_13
REMARK    7  A    between atoms: C_22  and  C_23
REMARK    8  A    between atoms: C_27  and  C_28
REMARK    9  A    between atoms: C_32  and  O_33
REMARK   10  A    between atoms: O_33  and  C_34
REMARK                            x       y       z     vdW  Elec       q    Type
REMARK                         _______ _______ _______ _____ _____    ______ ____
ROOT
ATOM      1  N   UNL     1       1.690   8.374  18.951  0.00  0.00    +0.000 N 
ATOM      2  C   UNL     1       2.662   8.102  18.020  0.00  0.00    +0.000 A 
ATOM      3  C   UNL     1       3.027   6.786  18.218  0.00  0.00    +0.000 A 
ATOM      4  C   UNL     1       2.069   6.253  19.138  0.00  0.00    +0.000 A 
ATOM      5  N   UNL     1       1.194   7.221  19.493  0.00  0.00    +0.000 NA
ENDROOT
BRANCH   3   6
ATOM      6  C   UNL     1       4.290   6.313  17.737  0.00  0.00    +0.000 A 
ATOM      7  C   UNL     1       5.342   7.351  17.517  0.00  0.00    +0.000 A 
ATOM      8  C   UNL     1       6.589   6.939  17.173  0.00  0.00    +0.000 A 
ATOM      9  C   UNL     1       6.636   5.859  16.243  0.00  0.00    +0.000 A 
ATOM     10  N   UNL     1       7.449   5.569  15.256  0.00  0.00    +0.000 NA
ATOM     11  C   UNL     1       6.898   4.430  14.750  0.00  0.00    +0.000 A 
ATOM     12  N   UNL     1       5.834   3.952  15.400  0.00  0.00    +0.000 NA
ATOM     13  N   UNL     1       5.597   4.925  16.318  0.00  0.00    +0.000 N 
ATOM     14  C   UNL     1       4.474   5.119  17.130  0.00  0.00    +0.000 A 
ENDBRANCH   3   6
BRANCH   4  15
ATOM     15  C   UNL     1       1.961   4.922  19.762  0.00  0.00    +0.000 A 
ATOM     16  C   UNL     1       2.283   4.782  21.117  0.00  0.00    +0.000 A 
ATOM     17  C   UNL     1       2.156   3.542  21.722  0.00  0.00    +0.000 A 
ATOM     18  C   UNL     1       1.696   2.472  20.972  0.00  0.00    +0.000 A 
ATOM     19  C   UNL     1       1.378   2.677  19.630  0.00  0.00    +0.000 A 
ATOM     20  C   UNL     1       0.892   1.521  18.804  0.00  0.00    +0.000 C 
ATOM     21  N   UNL     1       1.523   3.880  19.007  0.00  0.00    +0.000 NA
ENDBRANCH   4  15
BRANCH   1  22
ATOM     22  C   UNL     1       1.286   9.650  19.458  0.00  0.00    +0.000 C 
ATOM     23  S   UNL     1       1.595  10.189  21.022  0.00  0.00    +0.000 S 
BRANCH  22  24
ATOM     24  N   UNL     1       0.617  10.328  18.440  0.00  0.00    +0.000 N 
ATOM     25  H   UNL     1       1.223  10.576  17.654  0.00  0.00    +0.000 HD
BRANCH  24  29
ATOM     26  C   UNL     1      -3.442  11.365  17.728  0.00  0.00    +0.000 A 
ATOM     27  C   UNL     1      -2.722  11.876  18.819  0.00  0.00    +0.000 A 
ATOM     28  C   UNL     1      -1.391  11.500  19.048  0.00  0.00    +0.000 A 
ATOM     29  C   UNL     1      -0.762  10.564  18.227  0.00  0.00    +0.000 A 
ATOM     30  C   UNL     1      -1.509  10.005  17.189  0.00  0.00    +0.000 A 
ATOM     31  C   UNL     1      -2.843  10.381  16.931  0.00  0.00    +0.000 A 
BRANCH  26  33
ATOM     32  C   UNL     1      -5.624  11.858  18.526  0.00  0.00    +0.000 C 
ATOM     33  O   UNL     1      -4.710  11.790  17.434  0.00  0.00    +0.000 OA
ENDBRANCH  26  33
BRANCH  31  34
ATOM     34  O   UNL     1      -3.349   9.702  15.857  0.00  0.00    +0.000 OA
ATOM     35  C   UNL     1      -3.049  10.130  14.541  0.00  0.00    +0.000 C 
ENDBRANCH  31  34
ENDBRANCH  24  29
ENDBRANCH  22  24
ENDBRANCH   1  22
TORSDOF 7
ENDMDL
MODEL 8
REMARK VINA RESULT:      -8.4      2.225      2.822
REMARK  Name = 
REMARK  10 active torsions:
REMARK  status: ('A' for Active; 'I' for Inactive)
REMARK    1  A    between atoms: C_1  and  O_2
REMARK    2  A    between atoms: O_2  and  C_3
REMARK    3  A    between atoms: C_6  and  N_7
REMARK    4  A    between atoms: N_7  and  C_8
REMARK    5  A    between atoms: C_8  and  N_10
REMARK    6  A    between atoms: C_12  and  C_13
REMARK    7  A    between atoms: C_22  and  C_23
REMARK    8  A    between atoms: C_27  and  C_28
REMARK    9  A    between atoms: C_32  and  O_33
REMARK   10  A    between atoms: O_33  and  C_34
REMARK                            x       y       z     vdW  Elec       q    Type
REMARK                         _______ _______ _______ _____ _____    ______ ____
ROOT
ATOM      1  N   UNL     1       1.576   8.129  19.848  0.00  0.00    +0.000 N 
ATOM      2  C   UNL     1       2.510   8.156  18.843  0.00  0.00    +0.000 A 
ATOM      3  C   UNL     1       2.990   6.867  18.729  0.00  0.00    +0.000 A 
ATOM      4  C   UNL     1       2.133   6.062  19.544  0.00  0.00    +0.000 A 
ATOM      5  N   UNL     1       1.206   6.847  20.140  0.00  0.00    +0.000 NA
ENDROOT
BRANCH   3   6
ATOM      6  C   UNL     1       4.257   6.626  18.105  0.00  0.00    +0.000 A 
ATOM      7  C   UNL     1       4.229   6.389  16.630  0.00  0.00    +0.000 A 
ATOM      8  C   UNL     1       5.413   6.271  15.977  0.00  0.00    +0.000 A 
ATOM      9  C   UNL     1       6.415   5.525  16.666  0.00  0.00    +0.000 A 
ATOM     10  N   UNL     1       7.351   4.704  16.257  0.00  0.00    +0.000 NA
ATOM     11  C   UNL     1       7.922   4.307  17.429  0.00  0.00    +0.000 A 
ATOM     12  N   UNL     1       7.447   4.880  18.538  0.00  0.00    +0.000 NA
ATOM     13  N   UNL     1       6.403   5.606  18.062  0.00  0.00    +0.000 N 
ATOM     14  C   UNL     1       5.367   6.231  18.767  0.00  0.00    +0.000 A 
ENDBRANCH   3   6
BRANCH   4  15
ATOM     15  C   UNL     1       2.167   4.622  19.861  0.00  0.00    +0.000 A 
ATOM     16  C   UNL     1       1.510   4.166  21.009  0.00  0.00    +0.000 A 
ATOM     17  C   UNL     1       1.510   2.812  21.301  0.00  0.00    +0.000 A 
ATOM     18  C   UNL     1       2.146   1.938  20.435  0.00  0.00    +0.000 A 
ATOM     19  C   UNL     1       2.772   2.451  19.299  0.00  0.00    +0.000 A 
ATOM     20  C   UNL     1       3.479   1.514  18.361  0.00  0.00    +0.000 C 
ATOM     21  N   UNL     1       2.810   3.781  19.008  0.00  0.00    +0.000 NA
ENDBRANCH   4  15
BRANCH   1  22
ATOM     22  C   UNL     1       1.103   9.222  20.642  0.00  0.00    +0.000 C 
ATOM     23  S   UNL     1       0.917   9.169  22.314  0.00  0.00    +0.000 S 
BRANCH  22  24
ATOM     24  N   UNL     1       0.841  10.295  19.790  0.00  0.00    +0.000 N 
ATOM     25  H   UNL     1       1.688  10.723  19.407  0.00  0.00    +0.000 HD
BRANCH  24  29
ATOM     26  C   UNL     1      -2.924  11.393  18.155  0.00  0.00    +0.000 A 
ATOM     27  C   UNL     1      -2.072  10.478  17.517  0.00  0.00    +0.000 A 
ATOM     28  C   UNL     1      -0.823  10.149  18.062  0.00  0.00    +0.000 A 
ATOM     29  C   UNL     1      -0.369  10.766  19.229  0.00  0.00    +0.000 A 
ATOM     30  C   UNL     1      -1.190  11.729  19.816  0.00  0.00    +0.000 A 
ATOM     31  C   UNL     1      -2.456  12.062  19.293  0.00  0.00    +0.000 A 
BRANCH  26  33
ATOM     32  C   UNL     1      -5.235  10.850  18.212  0.00  0.00    +0.000 C 
ATOM     33  O   UNL     1      -4.183  11.657  17.688  0.00  0.00    +0.000 OA
ENDBRANCH  26  33
BRANCH  31  34
ATOM     34  O   UNL     1      -3.069  13.021  20.053  0.00  0.00    +0.000 OA
ATOM     35  C   UNL     1      -3.551  12.702  21.346  0.00  0.00    +0.000 C 
ENDBRANCH  31  34
ENDBRANCH  24  29
ENDBRANCH  22  24
ENDBRANCH   1  22
TORSDOF 7
ENDMDL
MODEL 9
REMARK VINA RESULT:      -8.3      2.571      3.210
REMARK  Name = 
REMARK  10 active torsions:
REMARK  status: ('A' for Active; 'I' for Inactive)
REMARK    1  A    between atoms: C_1  and  O_2
REMARK    2  A    between atoms: O_2  and  C_3
REMARK    3  A    between atoms: C_6  and  N_7
REMARK    4  A    between atoms: N_7  and  C_8
REMARK    5  A    between atoms: C_8  and  N_10
REMARK    6  A    between atoms: C_12  and  C_13
REMARK    7  A    between atoms: C_22  and  C_23
REMARK    8  A    between atoms: C_27  and  C_28
REMARK    9  A    between atoms: C_32  and  O_33
REMARK   10  A    between atoms: O_33  and  C_34
REMARK                            x       y       z     vdW  Elec       q    Type
REMARK                         _______ _______ _______ _____ _____    ______ ____
ROOT
ATOM      1  N   UNL     1       1.636   8.331  18.477  0.00  0.00    +0.000 N 
ATOM      2  C   UNL     1       2.789   8.282  17.735  0.00  0.00    +0.000 A 
ATOM      3  C   UNL     1       3.207   6.967  17.758  0.00  0.00    +0.000 A 
ATOM      4  C   UNL     1       2.130   6.230  18.344  0.00  0.00    +0.000 A 
ATOM      5  N   UNL     1       1.131   7.078  18.682  0.00  0.00    +0.000 NA
ENDROOT
BRANCH   3   6
ATOM      6  C   UNL     1       4.572   6.643  17.470  0.00  0.00    +0.000 A 
ATOM      7  C   UNL     1       4.850   6.126  16.096  0.00  0.00    +0.000 A 
ATOM      8  C   UNL     1       6.143   5.916  15.739  0.00  0.00    +0.000 A 
ATOM      9  C   UNL     1       6.967   5.343  16.753  0.00  0.00    +0.000 A 
ATOM     10  N   UNL     1       7.955   4.482  16.714  0.00  0.00    +0.000 NA
ATOM     11  C   UNL     1       8.262   4.333  18.034  0.00  0.00    +0.000 A 
ATOM     12  N   UNL     1       7.575   5.096  18.887  0.00  0.00    +0.000 NA
ATOM     13  N   UNL     1       6.664   5.690  18.073  0.00  0.00    +0.000 N 
ATOM     14  C   UNL     1       5.513   6.412  18.412  0.00  0.00    +0.000 A 
ENDBRANCH   3   6
BRANCH   4  15
ATOM     15  C   UNL     1       2.002   4.799  18.676  0.00  0.00    +0.000 A 
ATOM     16  C   UNL     1       2.159   3.851  17.659  0.00  0.00    +0.000 A 
ATOM     17  C   UNL     1       2.070   2.503  17.964  0.00  0.00    +0.000 A 
ATOM     18  C   UNL     1       1.847   2.125  19.278  0.00  0.00    +0.000 A 
ATOM     19  C   UNL     1       1.712   3.115  20.251  0.00  0.00    +0.000 A 
ATOM     20  C   UNL     1       1.454   2.717  21.676  0.00  0.00    +0.000 C 
ATOM     21  N   UNL     1       1.766   4.447  19.968  0.00  0.00    +0.000 NA
ENDBRANCH   4  15
BRANCH   1  22
ATOM     22  C   UNL     1       1.045   9.467  19.116  0.00  0.00    +0.000 C 
ATOM     23  S   UNL     1       1.158   9.794  20.763  0.00  0.00    +0.000 S 
BRANCH  22  24
ATOM     24  N   UNL     1       0.389  10.218  18.141  0.00  0.00    +0.000 N 
ATOM     25  H   UNL     1       0.960  10.390  17.310  0.00  0.00    +0.000 HD
BRANCH  24  29
ATOM     26  C   UNL     1      -3.761  11.095  17.874  0.00  0.00    +0.000 A 
ATOM     27  C   UNL     1      -3.115  10.252  16.956  0.00  0.00    +0.000 A 
ATOM     28  C   UNL     1      -1.740   9.996  17.049  0.00  0.00    +0.000 A 
ATOM     29  C   UNL     1      -0.964  10.619  18.027  0.00  0.00    +0.000 A 
ATOM     30  C   UNL     1      -1.599  11.513  18.889  0.00  0.00    +0.000 A 
ATOM     31  C   UNL     1      -2.984  11.771  18.822  0.00  0.00    +0.000 A 
BRANCH  26  33
ATOM     32  C   UNL     1      -5.890  10.399  18.663  0.00  0.00    +0.000 C 
ATOM     33  O   UNL     1      -5.117  11.283  17.855  0.00  0.00    +0.000 OA
ENDBRANCH  26  33
BRANCH  31  34
ATOM     34  O   UNL     1      -3.365  12.672  19.778  0.00  0.00    +0.000 OA
ATOM     35  C   UNL     1      -2.717  12.688  21.038  0.00  0.00    +0.000 C 
ENDBRANCH  31  34
ENDBRANCH  24  29
ENDBRANCH  22  24
ENDBRANCH   1  22
TORSDOF 7
ENDMDL
