MODEL 1
REMARK VINA RESULT:      -6.4      0.000      0.000
REMARK  Name = 
REMARK  7 active torsions:
REMARK  status: ('A' for Active; 'I' for Inactive)
REMARK    1  A    between atoms: C_1  and  O_2
REMARK    2  A    between atoms: O_2  and  P_3
REMARK    3  A    between atoms: P_3  and  N_5
REMARK    4  A    between atoms: P_3  and  O_15
REMARK    5  A    between atoms: N_5  and  S_6
REMARK    6  A    between atoms: S_6  and  C_9
REMARK    7  A    between atoms: O_15  and  C_16
REMARK                            x       y       z     vdW  Elec       q    Type
REMARK                         _______ _______ _______ _____ _____    ______ ____
ROOT
ATOM      1  S   UNL     1       4.226   4.291  17.811  0.00  0.00    +0.000 S 
ATOM      2  O   UNL     1       4.241   5.727  17.630  0.00  0.00    +0.000 OA
ATOM      3  O   UNL     1       3.781   3.427  16.745  0.00  0.00    +0.000 OA
ENDROOT
BRANCH   1   4
ATOM      4  C   UNL     1       3.191   3.940  19.237  0.00  0.00    +0.000 A 
ATOM      5  C   UNL     1       1.944   4.566  19.378  0.00  0.00    +0.000 A 
ATOM      6  C   UNL     1       1.081   4.199  20.418  0.00  0.00    +0.000 A 
ATOM      7  C   UNL     1       1.457   3.206  21.325  0.00  0.00    +0.000 A 
ATOM      8  C   UNL     1       2.696   2.577  21.180  0.00  0.00    +0.000 A 
ATOM      9  C   UNL     1       3.561   2.936  20.144  0.00  0.00    +0.000 A 
ENDBRANCH   1   4
BRANCH   1  10
ATOM     10  N   UNL     1       5.772   3.838  18.292  0.00  0.00    +0.000 NA
ATOM     11  H   UNL     1       5.965   4.165  19.234  0.00  0.00    +0.000 HD
BRANCH  10  12
ATOM     12  P   UNL     1       6.891   4.845  17.310  0.00  0.00    +0.000 P 
ATOM     13  O   UNL     1       8.252   4.144  17.413  0.00  0.00    +0.000 OA
BRANCH  12  15
ATOM     14  C   UNL     1       7.922   6.966  18.456  0.00  0.00    +0.000 C 
ATOM     15  O   UNL     1       7.266   5.741  18.740  0.00  0.00    +0.000 OA
ENDBRANCH  12  15
BRANCH  12  16
ATOM     16  O   UNL     1       6.516   3.949  15.877  0.00  0.00    +0.000 OA
ATOM     17  C   UNL     1       6.647   4.696  14.681  0.00  0.00    +0.000 C 
ENDBRANCH  12  16
ENDBRANCH  10  12
ENDBRANCH   1  10
TORSDOF 5
ENDMDL
MODEL 2
REMARK VINA RESULT:      -6.3      1.381      1.719
REMARK  Name = 
REMARK  7 active torsions:
REMARK  status: ('A' for Active; 'I' for Inactive)
REMARK    1  A    between atoms: C_1  and  O_2
REMARK    2  A    between atoms: O_2  and  P_3
REMARK    3  A    between atoms: P_3  and  N_5
REMARK    4  A    between atoms: P_3  and  O_15
REMARK    5  A    between atoms: N_5  and  S_6
REMARK    6  A    between atoms: S_6  and  C_9
REMARK    7  A    between atoms: O_15  and  C_16
REMARK                            x       y       z     vdW  Elec       q    Type
REMARK                         _______ _______ _______ _____ _____    ______ ____
ROOT
ATOM      1  S   UNL     1       4.667   5.151  18.484  0.00  0.00    +0.000 S 
ATOM      2  O   UNL     1       5.192   5.494  19.789  0.00  0.00    +0.000 OA
ATOM      3  O   UNL     1       4.234   6.188  17.580  0.00  0.00    +0.000 OA
ENDROOT
BRANCH   1   4
ATOM      4  C   UNL     1       3.266   4.057  18.739  0.00  0.00    +0.000 A 
ATOM      5  C   UNL     1       2.245   4.411  19.633  0.00  0.00    +0.000 A 
ATOM      6  C   UNL     1       1.091   3.623  19.737  0.00  0.00    +0.000 A 
ATOM      7  C   UNL     1       0.949   2.478  18.952  0.00  0.00    +0.000 A 
ATOM      8  C   UNL     1       1.964   2.129  18.056  0.00  0.00    +0.000 A 
ATOM      9  C   UNL     1       3.116   2.910  17.945  0.00  0.00    +0.000 A 
ENDBRANCH   1   4
BRANCH   1  10
ATOM     10  N   UNL     1       5.819   4.190  17.725  0.00  0.00    +0.000 NA
ATOM     11  H   UNL     1       6.609   4.023  18.341  0.00  0.00    +0.000 HD
BRANCH  10  12
ATOM     12  P   UNL     1       6.548   5.232  16.454  0.00  0.00    +0.000 P 
ATOM     13  O   UNL     1       7.799   4.476  15.989  0.00  0.00    +0.000 OA
BRANCH  12  15
ATOM     14  C   UNL     1       7.577   7.399  17.512  0.00  0.00    +0.000 C 
ATOM     15  O   UNL     1       7.491   5.995  17.687  0.00  0.00    +0.000 OA
ENDBRANCH  12  15
BRANCH  12  16
ATOM     16  O   UNL     1       5.604   4.469  15.220  0.00  0.00    +0.000 OA
ATOM     17  C   UNL     1       6.345   4.116  14.066  0.00  0.00    +0.000 C 
ENDBRANCH  12  16
ENDBRANCH  10  12
ENDBRANCH   1  10
TORSDOF 5
ENDMDL
MODEL 3
REMARK VINA RESULT:      -6.3      1.404      1.921
REMARK  Name = 
REMARK  7 active torsions:
REMARK  status: ('A' for Active; 'I' for Inactive)
REMARK    1  A    between atoms: C_1  and  O_2
REMARK    2  A    between atoms: O_2  and  P_3
REMARK    3  A    between atoms: P_3  and  N_5
REMARK    4  A    between atoms: P_3  and  O_15
REMARK    5  A    between atoms: N_5  and  S_6
REMARK    6  A    between atoms: S_6  and  C_9
REMARK    7  A    between atoms: O_15  and  C_16
REMARK                            x       y       z     vdW  Elec       q    Type
REMARK                         _______ _______ _______ _____ _____    ______ ____
ROOT
ATOM      1  S   UNL     1       4.605   5.235  18.428  0.00  0.00    +0.000 S 
ATOM      2  O   UNL     1       5.036   5.539  19.776  0.00  0.00    +0.000 OA
ATOM      3  O   UNL     1       4.276   6.299  17.512  0.00  0.00    +0.000 OA
ENDROOT
BRANCH   1   4
ATOM      4  C   UNL     1       3.156   4.181  18.552  0.00  0.00    +0.000 A 
ATOM      5  C   UNL     1       3.088   2.981  17.828  0.00  0.00    +0.000 A 
ATOM      6  C   UNL     1       2.019   2.097  18.022  0.00  0.00    +0.000 A 
ATOM      7  C   UNL     1       1.011   2.405  18.937  0.00  0.00    +0.000 A 
ATOM      8  C   UNL     1       1.081   3.597  19.663  0.00  0.00    +0.000 A 
ATOM      9  C   UNL     1       2.145   4.482  19.477  0.00  0.00    +0.000 A 
ENDBRANCH   1   4
BRANCH   1  10
ATOM     10  N   UNL     1       5.784   4.250  17.744  0.00  0.00    +0.000 NA
ATOM     11  H   UNL     1       6.548   4.099  18.395  0.00  0.00    +0.000 HD
BRANCH  10  12
ATOM     12  P   UNL     1       6.565   5.254  16.474  0.00  0.00    +0.000 P 
ATOM     13  O   UNL     1       7.809   4.462  16.050  0.00  0.00    +0.000 OA
BRANCH  12  15
ATOM     14  C   UNL     1       7.602   7.418  17.531  0.00  0.00    +0.000 C 
ATOM     15  O   UNL     1       7.497   6.015  17.715  0.00  0.00    +0.000 OA
ENDBRANCH  12  15
BRANCH  12  16
ATOM     16  O   UNL     1       5.633   4.492  15.230  0.00  0.00    +0.000 OA
ATOM     17  C   UNL     1       6.381   4.154  14.076  0.00  0.00    +0.000 C 
ENDBRANCH  12  16
ENDBRANCH  10  12
ENDBRANCH   1  10
TORSDOF 5
ENDMDL
MODEL 4
REMARK VINA RESULT:      -6.2      1.950      3.111
REMARK  Name = 
REMARK  7 active torsions:
REMARK  status: ('A' for Active; 'I' for Inactive)
REMARK    1  A    between atoms: C_1  and  O_2
REMARK    2  A    between atoms: O_2  and  P_3
REMARK    3  A    between atoms: P_3  and  N_5
REMARK    4  A    between atoms: P_3  and  O_15
REMARK    5  A    between atoms: N_5  and  S_6
REMARK    6  A    between atoms: S_6  and  C_9
REMARK    7  A    between atoms: O_15  and  C_16
REMARK                            x       y       z     vdW  Elec       q    Type
REMARK                         _______ _______ _______ _____ _____    ______ ____
ROOT
ATOM      1  S   UNL     1       4.348   5.839  18.091  0.00  0.00    +0.000 S 
ATOM      2  O   UNL     1       5.452   5.634  19.005  0.00  0.00    +0.000 OA
ATOM      3  O   UNL     1       3.474   6.974  18.249  0.00  0.00    +0.000 OA
ENDROOT
BRANCH   1   4
ATOM      4  C   UNL     1       3.318   4.369  18.155  0.00  0.00    +0.000 A 
ATOM      5  C   UNL     1       3.902   3.099  18.266  0.00  0.00    +0.000 A 
ATOM      6  C   UNL     1       3.100   1.964  18.447  0.00  0.00    +0.000 A 
ATOM      7  C   UNL     1       1.711   2.090  18.516  0.00  0.00    +0.000 A 
ATOM      8  C   UNL     1       1.129   3.356  18.412  0.00  0.00    +0.000 A 
ATOM      9  C   UNL     1       1.923   4.492  18.234  0.00  0.00    +0.000 A 
ENDBRANCH   1   4
BRANCH   1  10
ATOM     10  N   UNL     1       4.989   5.835  16.536  0.00  0.00    +0.000 NA
ATOM     11  H   UNL     1       4.809   4.948  16.076  0.00  0.00    +0.000 HD
BRANCH  10  12
ATOM     12  P   UNL     1       6.772   5.790  16.755  0.00  0.00    +0.000 P 
ATOM     13  O   UNL     1       7.350   5.868  15.336  0.00  0.00    +0.000 OA
BRANCH  12  15
ATOM     14  C   UNL     1       6.187   3.651  15.354  0.00  0.00    +0.000 C 
ATOM     15  O   UNL     1       6.699   4.068  16.610  0.00  0.00    +0.000 OA
ENDBRANCH  12  15
BRANCH  12  16
ATOM     16  O   UNL     1       6.847   7.513  16.901  0.00  0.00    +0.000 OA
ATOM     17  C   UNL     1       7.874   7.972  17.761  0.00  0.00    +0.000 C 
ENDBRANCH  12  16
ENDBRANCH  10  12
ENDBRANCH   1  10
TORSDOF 5
ENDMDL
MODEL 5
REMARK VINA RESULT:      -6.1      0.606      1.331
REMARK  Name = 
REMARK  7 active torsions:
REMARK  status: ('A' for Active; 'I' for Inactive)
REMARK    1  A    between atoms: C_1  and  O_2
REMARK    2  A    between atoms: O_2  and  P_3
REMARK    3  A    between atoms: P_3  and  N_5
REMARK    4  A    between atoms: P_3  and  O_15
REMARK    5  A    between atoms: N_5  and  S_6
REMARK    6  A    between atoms: S_6  and  C_9
REMARK    7  A    between atoms: O_15  and  C_16
REMARK                            x       y       z     vdW  Elec       q    Type
REMARK                         _______ _______ _______ _____ _____    ______ ____
ROOT
ATOM      1  S   UNL     1       3.721   4.131  17.671  0.00  0.00    +0.000 S 
ATOM      2  O   UNL     1       3.720   5.579  17.684  0.00  0.00    +0.000 OA
ATOM      3  O   UNL     1       3.158   3.413  16.555  0.00  0.00    +0.000 OA
ENDROOT
BRANCH   1   4
ATOM      4  C   UNL     1       2.852   3.580  19.143  0.00  0.00    +0.000 A 
ATOM      5  C   UNL     1       3.534   2.875  20.146  0.00  0.00    +0.000 A 
ATOM      6  C   UNL     1       2.892   2.558  21.350  0.00  0.00    +0.000 A 
ATOM      7  C   UNL     1       1.566   2.940  21.560  0.00  0.00    +0.000 A 
ATOM      8  C   UNL     1       0.888   3.648  20.563  0.00  0.00    +0.000 A 
ATOM      9  C   UNL     1       1.523   3.969  19.361  0.00  0.00    +0.000 A 
ENDBRANCH   1   4
BRANCH   1  10
ATOM     10  N   UNL     1       5.311   3.637  17.911  0.00  0.00    +0.000 NA
ATOM     11  H   UNL     1       5.545   3.651  18.899  0.00  0.00    +0.000 HD
BRANCH  10  12
ATOM     12  P   UNL     1       6.327   4.972  17.266  0.00  0.00    +0.000 P 
ATOM     13  O   UNL     1       7.742   4.386  17.174  0.00  0.00    +0.000 OA
BRANCH  12  15
ATOM     14  C   UNL     1       7.913   6.085  19.034  0.00  0.00    +0.000 C 
ATOM     15  O   UNL     1       6.652   5.450  18.896  0.00  0.00    +0.000 OA
ENDBRANCH  12  15
BRANCH  12  16
ATOM     16  O   UNL     1       6.002   4.495  15.634  0.00  0.00    +0.000 OA
ATOM     17  C   UNL     1       7.035   4.826  14.723  0.00  0.00    +0.000 C 
ENDBRANCH  12  16
ENDBRANCH  10  12
ENDBRANCH   1  10
TORSDOF 5
ENDMDL
MODEL 6
REMARK VINA RESULT:      -6.1      1.601      2.966
REMARK  Name = 
REMARK  7 active torsions:
REMARK  status: ('A' for Active; 'I' for Inactive)
REMARK    1  A    between atoms: C_1  and  O_2
REMARK    2  A    between atoms: O_2  and  P_3
REMARK    3  A    between atoms: P_3  and  N_5
REMARK    4  A    between atoms: P_3  and  O_15
REMARK    5  A    between atoms: N_5  and  S_6
REMARK    6  A    between atoms: S_6  and  C_9
REMARK    7  A    between atoms: O_15  and  C_16
REMARK                            x       y       z     vdW  Elec       q    Type
REMARK                         _______ _______ _______ _____ _____    ______ ____
ROOT
ATOM      1  S   UNL     1       4.972   4.829  18.838  0.00  0.00    +0.000 S 
ATOM      2  O   UNL     1       5.975   3.816  19.091  0.00  0.00    +0.000 OA
ATOM      3  O   UNL     1       4.799   5.926  19.758  0.00  0.00    +0.000 OA
ENDROOT
BRANCH   1   4
ATOM      4  C   UNL     1       3.386   3.995  18.711  0.00  0.00    +0.000 A 
ATOM      5  C   UNL     1       3.257   2.835  17.934  0.00  0.00    +0.000 A 
ATOM      6  C   UNL     1       2.057   2.112  17.937  0.00  0.00    +0.000 A 
ATOM      7  C   UNL     1       0.979   2.542  18.713  0.00  0.00    +0.000 A 
ATOM      8  C   UNL     1       1.111   3.694  19.493  0.00  0.00    +0.000 A 
ATOM      9  C   UNL     1       2.305   4.420  19.497  0.00  0.00    +0.000 A 
ENDBRANCH   1   4
BRANCH   1  10
ATOM     10  N   UNL     1       5.256   5.430  17.294  0.00  0.00    +0.000 NA
ATOM     11  H   UNL     1       4.712   4.920  16.605  0.00  0.00    +0.000 HD
BRANCH  10  12
ATOM     12  P   UNL     1       6.935   4.931  16.890  0.00  0.00    +0.000 P 
ATOM     13  O   UNL     1       7.327   5.793  15.682  0.00  0.00    +0.000 OA
BRANCH  12  15
ATOM     14  C   UNL     1       5.588   4.342  14.719  0.00  0.00    +0.000 C 
ATOM     15  O   UNL     1       6.275   3.753  15.810  0.00  0.00    +0.000 OA
ENDBRANCH  12  15
BRANCH  12  16
ATOM     16  O   UNL     1       7.597   6.111  17.970  0.00  0.00    +0.000 OA
ATOM     17  C   UNL     1       7.492   7.443  17.500  0.00  0.00    +0.000 C 
ENDBRANCH  12  16
ENDBRANCH  10  12
ENDBRANCH   1  10
TORSDOF 5
ENDMDL
MODEL 7
REMARK VINA RESULT:      -5.9      1.409      2.752
REMARK  Name = 
REMARK  7 active torsions:
REMARK  status: ('A' for Active; 'I' for Inactive)
REMARK    1  A    between atoms: C_1  and  O_2
REMARK    2  A    between atoms: O_2  and  P_3
REMARK    3  A    between atoms: P_3  and  N_5
REMARK    4  A    between atoms: P_3  and  O_15
REMARK    5  A    between atoms: N_5  and  S_6
REMARK    6  A    between atoms: S_6  and  C_9
REMARK    7  A    between atoms: O_15  and  C_16
REMARK                            x       y       z     vdW  Elec       q    Type
REMARK                         _______ _______ _______ _____ _____    ______ ____
ROOT
ATOM      1  S   UNL     1       4.543   3.869  18.059  0.00  0.00    +0.000 S 
ATOM      2  O   UNL     1       4.338   2.766  17.144  0.00  0.00    +0.000 OA
ATOM      3  O   UNL     1       5.812   4.035  18.723  0.00  0.00    +0.000 OA
ENDROOT
BRANCH   1   4
ATOM      4  C   UNL     1       3.292   3.743  19.341  0.00  0.00    +0.000 A 
ATOM      5  C   UNL     1       2.032   4.333  19.161  0.00  0.00    +0.000 A 
ATOM      6  C   UNL     1       1.013   4.127  20.101  0.00  0.00    +0.000 A 
ATOM      7  C   UNL     1       1.245   3.334  21.225  0.00  0.00    +0.000 A 
ATOM      8  C   UNL     1       2.498   2.741  21.402  0.00  0.00    +0.000 A 
ATOM      9  C   UNL     1       3.518   2.940  20.468  0.00  0.00    +0.000 A 
ENDBRANCH   1   4
BRANCH   1  10
ATOM     10  N   UNL     1       4.155   5.278  17.229  0.00  0.00    +0.000 NA
ATOM     11  H   UNL     1       3.500   5.083  16.477  0.00  0.00    +0.000 HD
BRANCH  10  12
ATOM     12  P   UNL     1       5.643   5.723  16.323  0.00  0.00    +0.000 P 
ATOM     13  O   UNL     1       5.197   6.804  15.331  0.00  0.00    +0.000 OA
BRANCH  12  15
ATOM     14  C   UNL     1       6.331   4.188  14.311  0.00  0.00    +0.000 C 
ATOM     15  O   UNL     1       5.239   4.512  15.157  0.00  0.00    +0.000 OA
ENDBRANCH  12  15
BRANCH  12  16
ATOM     16  O   UNL     1       6.049   6.935  17.491  0.00  0.00    +0.000 OA
ATOM     17  C   UNL     1       7.440   7.170  17.615  0.00  0.00    +0.000 C 
ENDBRANCH  12  16
ENDBRANCH  10  12
ENDBRANCH   1  10
TORSDOF 5
ENDMDL
MODEL 8
REMARK VINA RESULT:      -5.9      1.551      2.841
REMARK  Name = 
REMARK  7 active torsions:
REMARK  status: ('A' for Active; 'I' for Inactive)
REMARK    1  A    between atoms: C_1  and  O_2
REMARK    2  A    between atoms: O_2  and  P_3
REMARK    3  A    between atoms: P_3  and  N_5
REMARK    4  A    between atoms: P_3  and  O_15
REMARK    5  A    between atoms: N_5  and  S_6
REMARK    6  A    between atoms: S_6  and  C_9
REMARK    7  A    between atoms: O_15  and  C_16
REMARK                            x       y       z     vdW  Elec       q    Type
REMARK                         _______ _______ _______ _____ _____    ______ ____
ROOT
ATOM      1  S   UNL     1       4.746   4.127  18.181  0.00  0.00    +0.000 S 
ATOM      2  O   UNL     1       4.035   3.096  17.454  0.00  0.00    +0.000 OA
ATOM      3  O   UNL     1       5.862   3.782  19.026  0.00  0.00    +0.000 OA
ENDROOT
BRANCH   1   4
ATOM      4  C   UNL     1       3.549   4.979  19.214  0.00  0.00    +0.000 A 
ATOM      5  C   UNL     1       3.303   6.348  19.030  0.00  0.00    +0.000 A 
ATOM      6  C   UNL     1       2.280   6.985  19.745  0.00  0.00    +0.000 A 
ATOM      7  C   UNL     1       1.498   6.261  20.647  0.00  0.00    +0.000 A 
ATOM      8  C   UNL     1       1.739   4.896  20.825  0.00  0.00    +0.000 A 
ATOM      9  C   UNL     1       2.756   4.254  20.115  0.00  0.00    +0.000 A 
ENDBRANCH   1   4
BRANCH   1  10
ATOM     10  N   UNL     1       5.228   5.281  17.057  0.00  0.00    +0.000 NA
ATOM     11  H   UNL     1       4.990   4.985  16.115  0.00  0.00    +0.000 HD
BRANCH  10  12
ATOM     12  P   UNL     1       7.024   5.200  17.031  0.00  0.00    +0.000 P 
ATOM     13  O   UNL     1       7.449   6.138  15.894  0.00  0.00    +0.000 OA
BRANCH  12  15
ATOM     14  C   UNL     1       6.329   4.317  14.662  0.00  0.00    +0.000 C 
ATOM     15  O   UNL     1       6.903   3.905  15.891  0.00  0.00    +0.000 OA
ENDBRANCH  12  15
BRANCH  12  16
ATOM     16  O   UNL     1       7.146   6.495  18.173  0.00  0.00    +0.000 OA
ATOM     17  C   UNL     1       7.647   7.700  17.622  0.00  0.00    +0.000 C 
ENDBRANCH  12  16
ENDBRANCH  10  12
ENDBRANCH   1  10
TORSDOF 5
ENDMDL
MODEL 9
REMARK VINA RESULT:      -5.9      2.898      5.588
REMARK  Name = 
REMARK  7 active torsions:
REMARK  status: ('A' for Active; 'I' for Inactive)
REMARK    1  A    between atoms: C_1  and  O_2
REMARK    2  A    between atoms: O_2  and  P_3
REMARK    3  A    between atoms: P_3  and  N_5
REMARK    4  A    between atoms: P_3  and  O_15
REMARK    5  A    between atoms: N_5  and  S_6
REMARK    6  A    between atoms: S_6  and  C_9
REMARK    7  A    between atoms: O_15  and  C_16
REMARK                            x       y       z     vdW  Elec       q    Type
REMARK                         _______ _______ _______ _____ _____    ______ ____
ROOT
ATOM      1  S   UNL     1       4.302   3.537  19.017  0.00  0.00    +0.000 S 
ATOM      2  O   UNL     1       5.191   2.776  19.869  0.00  0.00    +0.000 OA
ATOM      3  O   UNL     1       3.116   2.925  18.471  0.00  0.00    +0.000 OA
ENDROOT
BRANCH   1   4
ATOM      4  C   UNL     1       5.270   4.136  17.628  0.00  0.00    +0.000 A 
ATOM      5  C   UNL     1       6.607   4.520  17.809  0.00  0.00    +0.000 A 
ATOM      6  C   UNL     1       7.401   4.863  16.707  0.00  0.00    +0.000 A 
ATOM      7  C   UNL     1       6.866   4.827  15.418  0.00  0.00    +0.000 A 
ATOM      8  C   UNL     1       5.536   4.439  15.236  0.00  0.00    +0.000 A 
ATOM      9  C   UNL     1       4.739   4.093  16.330  0.00  0.00    +0.000 A 
ENDBRANCH   1   4
BRANCH   1  10
ATOM     10  N   UNL     1       3.877   4.927  19.863  0.00  0.00    +0.000 NA
ATOM     11  H   UNL     1       4.126   4.840  20.844  0.00  0.00    +0.000 HD
BRANCH  10  12
ATOM     12  P   UNL     1       2.081   4.913  19.930  0.00  0.00    +0.000 P 
ATOM     13  O   UNL     1       1.701   6.202  20.671  0.00  0.00    +0.000 OA
BRANCH  12  15
ATOM     14  C   UNL     1       1.436   2.895  21.475  0.00  0.00    +0.000 C 
ATOM     15  O   UNL     1       2.191   4.096  21.450  0.00  0.00    +0.000 OA
ENDBRANCH  12  15
BRANCH  12  16
ATOM     16  O   UNL     1       1.970   5.731  18.409  0.00  0.00    +0.000 OA
ATOM     17  C   UNL     1       2.694   6.948  18.357  0.00  0.00    +0.000 C 
ENDBRANCH  12  16
ENDBRANCH  10  12
ENDBRANCH   1  10
TORSDOF 5
ENDMDL
