MODEL 1
REMARK VINA RESULT:      -7.6      0.000      0.000
REMARK  Name = 
REMARK  5 active torsions:
REMARK  status: ('A' for Active; 'I' for Inactive)
REMARK    1  A    between atoms: C_1  and  C_2
REMARK    2  A    between atoms: C_4  and  C_5
REMARK    3  A    between atoms: C_5  and  N_6
REMARK    4  A    between atoms: C_13  and  N_14
REMARK    5  A    between atoms: N_24  and  C_25
REMARK                            x       y       z     vdW  Elec       q    Type
REMARK                         _______ _______ _______ _____ _____    ______ ____
ROOT
ATOM      1  N   UNL     1       5.411   4.056  17.618  0.00  0.00    +0.000 NA
ATOM      2  C   UNL     1       5.339   4.167  19.082  0.00  0.00    +0.000 C 
ATOM      3  C   UNL     1       4.804   5.506  19.601  0.00  0.00    +0.000 C 
ATOM      4  C   UNL     1       3.440   5.854  18.990  0.00  0.00    +0.000 C 
ATOM      5  C   UNL     1       3.525   5.763  17.463  0.00  0.00    +0.000 C 
ATOM      6  C   UNL     1       4.134   4.431  16.997  0.00  0.00    +0.000 C 
ATOM      7  C   UNL     1       2.942   7.227  19.478  0.00  0.00    +0.000 C 
ATOM      8  C   UNL     1       1.593   6.968  20.137  0.00  0.00    +0.000 C 
ATOM      9  C   UNL     1       1.668   5.480  20.450  0.00  0.00    +0.000 C 
ATOM     10  O   UNL     1       2.478   4.884  19.433  0.00  0.00    +0.000 OA
ENDROOT
BRANCH   8  11
ATOM     11  N   UNL     1       1.421   7.828  21.308  0.00  0.00    +0.000 N 
ATOM     12  C   UNL     1       0.817   9.055  21.073  0.00  0.00    +0.000 A 
ATOM     13  N   UNL     1      -0.099   9.178  20.105  0.00  0.00    +0.000 NA
ATOM     14  C   UNL     1      -0.672  10.380  19.927  0.00  0.00    +0.000 A 
ATOM     15  C   UNL     1      -0.364  11.475  20.688  0.00  0.00    +0.000 A 
ATOM     16  C   UNL     1       0.582  11.255  21.660  0.00  0.00    +0.000 A 
ATOM     17  N   UNL     1       1.192  10.066  21.867  0.00  0.00    +0.000 NA
ATOM     18  H   UNL     1       2.261   8.032  21.839  0.00  0.00    +0.000 HD
ENDBRANCH   8  11
BRANCH   1  19
ATOM     19  C   UNL     1       6.567   4.751  17.029  0.00  0.00    +0.000 C 
BRANCH  19  23
ATOM     20  C   UNL     1       5.887   3.247  12.152  0.00  0.00    +0.000 C 
ATOM     21  C   UNL     1       6.315   3.860  13.433  0.00  0.00    +0.000 A 
ATOM     22  C   UNL     1       5.899   3.637  14.731  0.00  0.00    +0.000 A 
ATOM     23  C   UNL     1       6.664   4.522  15.538  0.00  0.00    +0.000 A 
ATOM     24  N   UNL     1       7.507   5.248  14.787  0.00  0.00    +0.000 NA
ATOM     25  N   UNL     1       7.259   4.848  13.525  0.00  0.00    +0.000 N 
ATOM     26  C   UNL     1       7.930   5.509  12.428  0.00  0.00    +0.000 C 
ENDBRANCH  19  23
ENDBRANCH   1  19
TORSDOF 3
ENDMDL
MODEL 2
REMARK VINA RESULT:      -7.5      4.802      7.259
REMARK  Name = 
REMARK  5 active torsions:
REMARK  status: ('A' for Active; 'I' for Inactive)
REMARK    1  A    between atoms: C_1  and  C_2
REMARK    2  A    between atoms: C_4  and  C_5
REMARK    3  A    between atoms: C_5  and  N_6
REMARK    4  A    between atoms: C_13  and  N_14
REMARK    5  A    between atoms: N_24  and  C_25
REMARK                            x       y       z     vdW  Elec       q    Type
REMARK                         _______ _______ _______ _____ _____    ______ ____
ROOT
ATOM      1  N   UNL     1       4.924   4.552  16.617  0.00  0.00    +0.000 NA
ATOM      2  C   UNL     1       4.567   5.604  17.581  0.00  0.00    +0.000 C 
ATOM      3  C   UNL     1       5.724   6.092  18.459  0.00  0.00    +0.000 C 
ATOM      4  C   UNL     1       6.927   6.546  17.622  0.00  0.00    +0.000 C 
ATOM      5  C   UNL     1       7.313   5.438  16.636  0.00  0.00    +0.000 C 
ATOM      6  C   UNL     1       6.104   4.934  15.832  0.00  0.00    +0.000 C 
ATOM      7  C   UNL     1       8.102   6.981  18.518  0.00  0.00    +0.000 C 
ATOM      8  C   UNL     1       8.407   8.422  18.130  0.00  0.00    +0.000 C 
ATOM      9  C   UNL     1       7.107   8.860  17.470  0.00  0.00    +0.000 C 
ATOM     10  O   UNL     1       6.544   7.698  16.855  0.00  0.00    +0.000 OA
ENDROOT
BRANCH   8  11
ATOM     11  N   UNL     1       8.783   9.202  19.310  0.00  0.00    +0.000 N 
ATOM     12  C   UNL     1       9.511  10.357  19.064  0.00  0.00    +0.000 A 
ATOM     13  N   UNL     1       9.317  11.046  17.934  0.00  0.00    +0.000 NA
ATOM     14  C   UNL     1      10.030  12.169  17.749  0.00  0.00    +0.000 A 
ATOM     15  C   UNL     1      10.938  12.636  18.660  0.00  0.00    +0.000 A 
ATOM     16  C   UNL     1      11.069  11.868  19.791  0.00  0.00    +0.000 A 
ATOM     17  N   UNL     1      10.381  10.727  20.014  0.00  0.00    +0.000 NA
ATOM     18  H   UNL     1       9.293   8.702  20.031  0.00  0.00    +0.000 HD
ENDBRANCH   8  11
BRANCH   1  19
ATOM     19  C   UNL     1       5.037   3.214  17.219  0.00  0.00    +0.000 C 
BRANCH  19  23
ATOM     20  C   UNL     1       2.167   2.650  21.456  0.00  0.00    +0.000 C 
ATOM     21  C   UNL     1       2.723   2.740  20.084  0.00  0.00    +0.000 A 
ATOM     22  C   UNL     1       4.010   2.966  19.638  0.00  0.00    +0.000 A 
ATOM     23  C   UNL     1       3.935   2.947  18.219  0.00  0.00    +0.000 A 
ATOM     24  N   UNL     1       2.678   2.720  17.809  0.00  0.00    +0.000 NA
ATOM     25  N   UNL     1       1.966   2.624  18.948  0.00  0.00    +0.000 N 
ATOM     26  C   UNL     1       0.530   2.479  18.876  0.00  0.00    +0.000 C 
ENDBRANCH  19  23
ENDBRANCH   1  19
TORSDOF 3
ENDMDL
MODEL 3
REMARK VINA RESULT:      -7.5      4.875      7.199
REMARK  Name = 
REMARK  5 active torsions:
REMARK  status: ('A' for Active; 'I' for Inactive)
REMARK    1  A    between atoms: C_1  and  C_2
REMARK    2  A    between atoms: C_4  and  C_5
REMARK    3  A    between atoms: C_5  and  N_6
REMARK    4  A    between atoms: C_13  and  N_14
REMARK    5  A    between atoms: N_24  and  C_25
REMARK                            x       y       z     vdW  Elec       q    Type
REMARK                         _______ _______ _______ _____ _____    ______ ____
ROOT
ATOM      1  N   UNL     1       5.009   4.778  16.369  0.00  0.00    +0.000 NA
ATOM      2  C   UNL     1       4.616   5.844  17.300  0.00  0.00    +0.000 C 
ATOM      3  C   UNL     1       5.716   6.292  18.269  0.00  0.00    +0.000 C 
ATOM      4  C   UNL     1       6.999   6.699  17.531  0.00  0.00    +0.000 C 
ATOM      5  C   UNL     1       7.421   5.574  16.580  0.00  0.00    +0.000 C 
ATOM      6  C   UNL     1       6.263   5.113  15.682  0.00  0.00    +0.000 C 
ATOM      7  C   UNL     1       8.113   7.092  18.520  0.00  0.00    +0.000 C 
ATOM      8  C   UNL     1       8.501   8.520  18.158  0.00  0.00    +0.000 C 
ATOM      9  C   UNL     1       7.276   9.004  17.394  0.00  0.00    +0.000 C 
ATOM     10  O   UNL     1       6.722   7.862  16.736  0.00  0.00    +0.000 OA
ENDROOT
BRANCH   8  11
ATOM     11  N   UNL     1       8.810   9.288  19.364  0.00  0.00    +0.000 N 
ATOM     12  C   UNL     1       9.544  10.449  19.169  0.00  0.00    +0.000 A 
ATOM     13  N   UNL     1       9.407  11.151  18.037  0.00  0.00    +0.000 NA
ATOM     14  C   UNL     1      10.122  12.278  17.902  0.00  0.00    +0.000 A 
ATOM     15  C   UNL     1      10.978  12.740  18.865  0.00  0.00    +0.000 A 
ATOM     16  C   UNL     1      11.054  11.961  19.993  0.00  0.00    +0.000 A 
ATOM     17  N   UNL     1      10.360  10.814  20.167  0.00  0.00    +0.000 NA
ATOM     18  H   UNL     1       9.284   8.784  20.105  0.00  0.00    +0.000 HD
ENDBRANCH   8  11
BRANCH   1  19
ATOM     19  C   UNL     1       5.024   3.438  16.978  0.00  0.00    +0.000 C 
BRANCH  19  23
ATOM     20  C   UNL     1       0.420   2.436  19.054  0.00  0.00    +0.000 C 
ATOM     21  C   UNL     1       1.838   2.757  18.760  0.00  0.00    +0.000 A 
ATOM     22  C   UNL     1       2.497   2.945  17.561  0.00  0.00    +0.000 A 
ATOM     23  C   UNL     1       3.848   3.224  17.904  0.00  0.00    +0.000 A 
ATOM     24  N   UNL     1       4.016   3.214  19.235  0.00  0.00    +0.000 NA
ATOM     25  N   UNL     1       2.799   2.907  19.724  0.00  0.00    +0.000 N 
ATOM     26  C   UNL     1       2.637   2.709  21.147  0.00  0.00    +0.000 C 
ENDBRANCH  19  23
ENDBRANCH   1  19
TORSDOF 3
ENDMDL
MODEL 4
REMARK VINA RESULT:      -7.0      4.248      6.205
REMARK  Name = 
REMARK  5 active torsions:
REMARK  status: ('A' for Active; 'I' for Inactive)
REMARK    1  A    between atoms: C_1  and  C_2
REMARK    2  A    between atoms: C_4  and  C_5
REMARK    3  A    between atoms: C_5  and  N_6
REMARK    4  A    between atoms: C_13  and  N_14
REMARK    5  A    between atoms: N_24  and  C_25
REMARK                            x       y       z     vdW  Elec       q    Type
REMARK                         _______ _______ _______ _____ _____    ______ ____
ROOT
ATOM      1  N   UNL     1       2.534   7.639  18.716  0.00  0.00    +0.000 NA
ATOM      2  C   UNL     1       2.227   8.808  17.879  0.00  0.00    +0.000 C 
ATOM      3  C   UNL     1       0.814   9.373  18.055  0.00  0.00    +0.000 C 
ATOM      4  C   UNL     1       0.504   9.695  19.524  0.00  0.00    +0.000 C 
ATOM      5  C   UNL     1       0.800   8.466  20.390  0.00  0.00    +0.000 C 
ATOM      6  C   UNL     1       2.201   7.895  20.123  0.00  0.00    +0.000 C 
ATOM      7  C   UNL     1      -0.939  10.208  19.692  0.00  0.00    +0.000 C 
ATOM      8  C   UNL     1      -0.815  11.584  20.335  0.00  0.00    +0.000 C 
ATOM      9  C   UNL     1       0.620  11.968  20.001  0.00  0.00    +0.000 C 
ATOM     10  O   UNL     1       1.373  10.753  19.956  0.00  0.00    +0.000 OA
ENDROOT
BRANCH   8  11
ATOM     11  N   UNL     1      -1.829  12.493  19.798  0.00  0.00    +0.000 N 
ATOM     12  C   UNL     1      -2.965  12.658  20.577  0.00  0.00    +0.000 A 
ATOM     13  N   UNL     1      -2.883  12.579  21.911  0.00  0.00    +0.000 NA
ATOM     14  C   UNL     1      -4.005  12.765  22.624  0.00  0.00    +0.000 A 
ATOM     15  C   UNL     1      -5.220  13.032  22.051  0.00  0.00    +0.000 A 
ATOM     16  C   UNL     1      -5.209  13.099  20.679  0.00  0.00    +0.000 A 
ATOM     17  N   UNL     1      -4.106  12.908  19.922  0.00  0.00    +0.000 NA
ATOM     18  H   UNL     1      -2.162  12.287  18.863  0.00  0.00    +0.000 HD
ENDBRANCH   8  11
BRANCH   1  19
ATOM     19  C   UNL     1       1.963   6.382  18.206  0.00  0.00    +0.000 C 
BRANCH  19  23
ATOM     20  C   UNL     1       1.765   2.559  21.650  0.00  0.00    +0.000 C 
ATOM     21  C   UNL     1       2.118   3.553  20.607  0.00  0.00    +0.000 A 
ATOM     22  C   UNL     1       1.419   4.635  20.109  0.00  0.00    +0.000 A 
ATOM     23  C   UNL     1       2.259   5.215  19.121  0.00  0.00    +0.000 A 
ATOM     24  N   UNL     1       3.412   4.536  19.013  0.00  0.00    +0.000 NA
ATOM     25  N   UNL     1       3.290   3.528  19.899  0.00  0.00    +0.000 N 
ATOM     26  C   UNL     1       4.327   2.524  19.976  0.00  0.00    +0.000 C 
ENDBRANCH  19  23
ENDBRANCH   1  19
TORSDOF 3
ENDMDL
MODEL 5
REMARK VINA RESULT:      -6.9      3.461      6.059
REMARK  Name = 
REMARK  5 active torsions:
REMARK  status: ('A' for Active; 'I' for Inactive)
REMARK    1  A    between atoms: C_1  and  C_2
REMARK    2  A    between atoms: C_4  and  C_5
REMARK    3  A    between atoms: C_5  and  N_6
REMARK    4  A    between atoms: C_13  and  N_14
REMARK    5  A    between atoms: N_24  and  C_25
REMARK                            x       y       z     vdW  Elec       q    Type
REMARK                         _______ _______ _______ _____ _____    ______ ____
ROOT
ATOM      1  N   UNL     1       2.160   8.103  19.840  0.00  0.00    +0.000 NA
ATOM      2  C   UNL     1       1.992   8.795  18.555  0.00  0.00    +0.000 C 
ATOM      3  C   UNL     1       0.542   9.119  18.182  0.00  0.00    +0.000 C 
ATOM      4  C   UNL     1      -0.172   9.907  19.288  0.00  0.00    +0.000 C 
ATOM      5  C   UNL     1      -0.018   9.170  20.623  0.00  0.00    +0.000 C 
ATOM      6  C   UNL     1       1.446   8.804  20.915  0.00  0.00    +0.000 C 
ATOM      7  C   UNL     1      -1.644  10.176  18.924  0.00  0.00    +0.000 C 
ATOM      8  C   UNL     1      -1.808  11.691  18.957  0.00  0.00    +0.000 C 
ATOM      9  C   UNL     1      -0.372  12.173  18.807  0.00  0.00    +0.000 C 
ATOM     10  O   UNL     1       0.462  11.188  19.422  0.00  0.00    +0.000 OA
ENDROOT
BRANCH   8  11
ATOM     11  N   UNL     1      -2.713  12.132  17.895  0.00  0.00    +0.000 N 
ATOM     12  C   UNL     1      -4.067  12.066  18.191  0.00  0.00    +0.000 A 
ATOM     13  N   UNL     1      -4.492  12.248  19.447  0.00  0.00    +0.000 NA
ATOM     14  C   UNL     1      -5.813  12.196  19.681  0.00  0.00    +0.000 A 
ATOM     15  C   UNL     1      -6.738  11.968  18.698  0.00  0.00    +0.000 A 
ATOM     16  C   UNL     1      -6.213  11.797  17.440  0.00  0.00    +0.000 A 
ATOM     17  N   UNL     1      -4.891  11.831  17.160  0.00  0.00    +0.000 NA
ATOM     18  H   UNL     1      -2.604  11.674  16.997  0.00  0.00    +0.000 HD
ENDBRANCH   8  11
BRANCH   1  19
ATOM     19  C   UNL     1       1.849   6.665  19.782  0.00  0.00    +0.000 C 
BRANCH  19  23
ATOM     20  C   UNL     1       4.624   3.927  16.418  0.00  0.00    +0.000 C 
ATOM     21  C   UNL     1       4.094   4.716  17.557  0.00  0.00    +0.000 A 
ATOM     22  C   UNL     1       2.826   5.195  17.819  0.00  0.00    +0.000 A 
ATOM     23  C   UNL     1       2.922   5.883  19.058  0.00  0.00    +0.000 A 
ATOM     24  N   UNL     1       4.174   5.832  19.539  0.00  0.00    +0.000 NA
ATOM     25  N   UNL     1       4.863   5.146  18.606  0.00  0.00    +0.000 N 
ATOM     26  C   UNL     1       6.292   4.989  18.754  0.00  0.00    +0.000 C 
ENDBRANCH  19  23
ENDBRANCH   1  19
TORSDOF 3
ENDMDL
MODEL 6
REMARK VINA RESULT:      -6.6      3.395      6.030
REMARK  Name = 
REMARK  5 active torsions:
REMARK  status: ('A' for Active; 'I' for Inactive)
REMARK    1  A    between atoms: C_1  and  C_2
REMARK    2  A    between atoms: C_4  and  C_5
REMARK    3  A    between atoms: C_5  and  N_6
REMARK    4  A    between atoms: C_13  and  N_14
REMARK    5  A    between atoms: N_24  and  C_25
REMARK                            x       y       z     vdW  Elec       q    Type
REMARK                         _______ _______ _______ _____ _____    ______ ____
ROOT
ATOM      1  N   UNL     1       2.320   8.291  18.775  0.00  0.00    +0.000 NA
ATOM      2  C   UNL     1       1.912   9.366  17.859  0.00  0.00    +0.000 C 
ATOM      3  C   UNL     1       0.435   9.762  17.948  0.00  0.00    +0.000 C 
ATOM      4  C   UNL     1       0.023  10.122  19.382  0.00  0.00    +0.000 C 
ATOM      5  C   UNL     1       0.426   8.988  20.331  0.00  0.00    +0.000 C 
ATOM      6  C   UNL     1       1.897   8.581  20.151  0.00  0.00    +0.000 C 
ATOM      7  C   UNL     1      -1.477  10.463  19.465  0.00  0.00    +0.000 C 
ATOM      8  C   UNL     1      -1.549  11.877  20.029  0.00  0.00    +0.000 C 
ATOM      9  C   UNL     1      -0.157  12.415  19.727  0.00  0.00    +0.000 C 
ATOM     10  O   UNL     1       0.738  11.301  19.782  0.00  0.00    +0.000 OA
ENDROOT
BRANCH   8  11
ATOM     11  N   UNL     1      -2.640  12.623  19.401  0.00  0.00    +0.000 N 
ATOM     12  C   UNL     1      -3.813  12.710  20.137  0.00  0.00    +0.000 A 
ATOM     13  N   UNL     1      -3.768  12.736  21.475  0.00  0.00    +0.000 NA
ATOM     14  C   UNL     1      -4.927  12.842  22.144  0.00  0.00    +0.000 A 
ATOM     15  C   UNL     1      -6.143  12.927  21.523  0.00  0.00    +0.000 A 
ATOM     16  C   UNL     1      -6.094  12.898  20.150  0.00  0.00    +0.000 A 
ATOM     17  N   UNL     1      -4.953  12.781  19.436  0.00  0.00    +0.000 NA
ATOM     18  H   UNL     1      -2.917  12.314  18.476  0.00  0.00    +0.000 HD
ENDBRANCH   8  11
BRANCH   1  19
ATOM     19  C   UNL     1       1.929   6.947  18.320  0.00  0.00    +0.000 C 
BRANCH  19  23
ATOM     20  C   UNL     1       6.521   4.642  17.997  0.00  0.00    +0.000 C 
ATOM     21  C   UNL     1       5.107   5.029  18.218  0.00  0.00    +0.000 A 
ATOM     22  C   UNL     1       4.416   6.176  17.884  0.00  0.00    +0.000 A 
ATOM     23  C   UNL     1       3.089   5.978  18.353  0.00  0.00    +0.000 A 
ATOM     24  N   UNL     1       2.963   4.778  18.940  0.00  0.00    +0.000 NA
ATOM     25  N   UNL     1       4.195   4.239  18.867  0.00  0.00    +0.000 N 
ATOM     26  C   UNL     1       4.451   2.967  19.505  0.00  0.00    +0.000 C 
ENDBRANCH  19  23
ENDBRANCH   1  19
TORSDOF 3
ENDMDL
MODEL 7
REMARK VINA RESULT:      -6.6      3.362      5.979
REMARK  Name = 
REMARK  5 active torsions:
REMARK  status: ('A' for Active; 'I' for Inactive)
REMARK    1  A    between atoms: C_1  and  C_2
REMARK    2  A    between atoms: C_4  and  C_5
REMARK    3  A    between atoms: C_5  and  N_6
REMARK    4  A    between atoms: C_13  and  N_14
REMARK    5  A    between atoms: N_24  and  C_25
REMARK                            x       y       z     vdW  Elec       q    Type
REMARK                         _______ _______ _______ _____ _____    ______ ____
ROOT
ATOM      1  N   UNL     1       2.358   8.260  18.753  0.00  0.00    +0.000 NA
ATOM      2  C   UNL     1       1.984   9.383  17.882  0.00  0.00    +0.000 C 
ATOM      3  C   UNL     1       0.510   9.793  17.956  0.00  0.00    +0.000 C 
ATOM      4  C   UNL     1       0.068  10.088  19.396  0.00  0.00    +0.000 C 
ATOM      5  C   UNL     1       0.436   8.904  20.297  0.00  0.00    +0.000 C 
ATOM      6  C   UNL     1       1.905   8.487  20.131  0.00  0.00    +0.000 C 
ATOM      7  C   UNL     1      -1.429  10.443  19.461  0.00  0.00    +0.000 C 
ATOM      8  C   UNL     1      -1.498  11.829  20.091  0.00  0.00    +0.000 C 
ATOM      9  C   UNL     1      -0.093  12.363  19.848  0.00  0.00    +0.000 C 
ATOM     10  O   UNL     1       0.787  11.237  19.870  0.00  0.00    +0.000 OA
ENDROOT
BRANCH   8  11
ATOM     11  N   UNL     1      -2.565  12.618  19.476  0.00  0.00    +0.000 N 
ATOM     12  C   UNL     1      -3.735  12.731  20.214  0.00  0.00    +0.000 A 
ATOM     13  N   UNL     1      -3.690  12.733  21.551  0.00  0.00    +0.000 NA
ATOM     14  C   UNL     1      -4.845  12.864  22.223  0.00  0.00    +0.000 A 
ATOM     15  C   UNL     1      -6.058  12.997  21.603  0.00  0.00    +0.000 A 
ATOM     16  C   UNL     1      -6.010  12.988  20.230  0.00  0.00    +0.000 A 
ATOM     17  N   UNL     1      -4.872  12.848  19.514  0.00  0.00    +0.000 NA
ATOM     18  H   UNL     1      -2.852  12.334  18.546  0.00  0.00    +0.000 HD
ENDBRANCH   8  11
BRANCH   1  19
ATOM     19  C   UNL     1       1.962   6.944  18.224  0.00  0.00    +0.000 C 
BRANCH  19  23
ATOM     20  C   UNL     1       4.371   2.645  19.714  0.00  0.00    +0.000 C 
ATOM     21  C   UNL     1       3.969   3.977  19.199  0.00  0.00    +0.000 A 
ATOM     22  C   UNL     1       2.747   4.618  19.193  0.00  0.00    +0.000 A 
ATOM     23  C   UNL     1       2.972   5.871  18.562  0.00  0.00    +0.000 A 
ATOM     24  N   UNL     1       4.257   6.002  18.201  0.00  0.00    +0.000 NA
ATOM     25  N   UNL     1       4.829   4.840  18.573  0.00  0.00    +0.000 N 
ATOM     26  C   UNL     1       6.213   4.593  18.238  0.00  0.00    +0.000 C 
ENDBRANCH  19  23
ENDBRANCH   1  19
TORSDOF 3
ENDMDL
MODEL 8
REMARK VINA RESULT:      -6.6      4.051      6.080
REMARK  Name = 
REMARK  5 active torsions:
REMARK  status: ('A' for Active; 'I' for Inactive)
REMARK    1  A    between atoms: C_1  and  C_2
REMARK    2  A    between atoms: C_4  and  C_5
REMARK    3  A    between atoms: C_5  and  N_6
REMARK    4  A    between atoms: C_13  and  N_14
REMARK    5  A    between atoms: N_24  and  C_25
REMARK                            x       y       z     vdW  Elec       q    Type
REMARK                         _______ _______ _______ _____ _____    ______ ____
ROOT
ATOM      1  N   UNL     1       2.560   7.627  18.632  0.00  0.00    +0.000 NA
ATOM      2  C   UNL     1       2.328   8.884  17.906  0.00  0.00    +0.000 C 
ATOM      3  C   UNL     1       0.928   9.481  18.083  0.00  0.00    +0.000 C 
ATOM      4  C   UNL     1       0.566   9.666  19.563  0.00  0.00    +0.000 C 
ATOM      5  C   UNL     1       0.784   8.347  20.312  0.00  0.00    +0.000 C 
ATOM      6  C   UNL     1       2.175   7.754  20.044  0.00  0.00    +0.000 C 
ATOM      7  C   UNL     1      -0.865  10.214  19.725  0.00  0.00    +0.000 C 
ATOM      8  C   UNL     1      -0.723  11.514  20.507  0.00  0.00    +0.000 C 
ATOM      9  C   UNL     1       0.737  11.874  20.271  0.00  0.00    +0.000 C 
ATOM     10  O   UNL     1       1.451  10.643  20.133  0.00  0.00    +0.000 OA
ENDROOT
BRANCH   8  11
ATOM     11  N   UNL     1      -1.682  12.508  20.026  0.00  0.00    +0.000 N 
ATOM     12  C   UNL     1      -2.819  12.676  20.802  0.00  0.00    +0.000 A 
ATOM     13  N   UNL     1      -2.761  12.500  22.128  0.00  0.00    +0.000 NA
ATOM     14  C   UNL     1      -3.882  12.693  22.841  0.00  0.00    +0.000 A 
ATOM     15  C   UNL     1      -5.073  13.062  22.276  0.00  0.00    +0.000 A 
ATOM     16  C   UNL     1      -5.040  13.223  20.912  0.00  0.00    +0.000 A 
ATOM     17  N   UNL     1      -3.937  13.030  20.154  0.00  0.00    +0.000 NA
ATOM     18  H   UNL     1      -2.013  12.385  19.075  0.00  0.00    +0.000 HD
ENDBRANCH   8  11
BRANCH   1  19
ATOM     19  C   UNL     1       1.970   6.449  17.976  0.00  0.00    +0.000 C 
BRANCH  19  23
ATOM     20  C   UNL     1       4.450   2.401  19.970  0.00  0.00    +0.000 C 
ATOM     21  C   UNL     1       3.481   3.437  19.537  0.00  0.00    +0.000 A 
ATOM     22  C   UNL     1       3.633   4.536  18.715  0.00  0.00    +0.000 A 
ATOM     23  C   UNL     1       2.358   5.162  18.670  0.00  0.00    +0.000 A 
ATOM     24  N   UNL     1       1.468   4.490  19.416  0.00  0.00    +0.000 NA
ATOM     25  N   UNL     1       2.174   3.473  19.945  0.00  0.00    +0.000 N 
ATOM     26  C   UNL     1       1.541   2.591  20.900  0.00  0.00    +0.000 C 
ENDBRANCH  19  23
ENDBRANCH   1  19
TORSDOF 3
ENDMDL
MODEL 9
REMARK VINA RESULT:      -6.6      3.789      6.264
REMARK  Name = 
REMARK  5 active torsions:
REMARK  status: ('A' for Active; 'I' for Inactive)
REMARK    1  A    between atoms: C_1  and  C_2
REMARK    2  A    between atoms: C_4  and  C_5
REMARK    3  A    between atoms: C_5  and  N_6
REMARK    4  A    between atoms: C_13  and  N_14
REMARK    5  A    between atoms: N_24  and  C_25
REMARK                            x       y       z     vdW  Elec       q    Type
REMARK                         _______ _______ _______ _____ _____    ______ ____
ROOT
ATOM      1  N   UNL     1       2.088   8.648  19.408  0.00  0.00    +0.000 NA
ATOM      2  C   UNL     1       1.802   9.466  18.221  0.00  0.00    +0.000 C 
ATOM      3  C   UNL     1       0.313   9.643  17.904  0.00  0.00    +0.000 C 
ATOM      4  C   UNL     1      -0.468  10.188  19.106  0.00  0.00    +0.000 C 
ATOM      5  C   UNL     1      -0.189   9.319  20.336  0.00  0.00    +0.000 C 
ATOM      6  C   UNL     1       1.316   9.113  20.568  0.00  0.00    +0.000 C 
ATOM      7  C   UNL     1      -1.971  10.307  18.790  0.00  0.00    +0.000 C 
ATOM      8  C   UNL     1      -2.326  11.772  19.015  0.00  0.00    +0.000 C 
ATOM      9  C   UNL     1      -0.968  12.452  18.914  0.00  0.00    +0.000 C 
ATOM     10  O   UNL     1       0.000  11.515  19.395  0.00  0.00    +0.000 OA
ENDROOT
BRANCH   8  11
ATOM     11  N   UNL     1      -3.306  12.219  18.024  0.00  0.00    +0.000 N 
ATOM     12  C   UNL     1      -4.637  12.116  18.402  0.00  0.00    +0.000 A 
ATOM     13  N   UNL     1      -4.984  12.258  19.687  0.00  0.00    +0.000 NA
ATOM     14  C   UNL     1      -6.286  12.171  20.003  0.00  0.00    +0.000 A 
ATOM     15  C   UNL     1      -7.267  11.948  19.075  0.00  0.00    +0.000 A 
ATOM     16  C   UNL     1      -6.820  11.819  17.782  0.00  0.00    +0.000 A 
ATOM     17  N   UNL     1      -5.520  11.889  17.421  0.00  0.00    +0.000 NA
ATOM     18  H   UNL     1      -3.245  11.786  17.109  0.00  0.00    +0.000 HD
ENDBRANCH   8  11
BRANCH   1  19
ATOM     19  C   UNL     1       1.962   7.200  19.173  0.00  0.00    +0.000 C 
BRANCH  19  23
ATOM     20  C   UNL     1       6.259   4.512  18.270  0.00  0.00    +0.000 C 
ATOM     21  C   UNL     1       5.073   5.402  18.238  0.00  0.00    +0.000 A 
ATOM     22  C   UNL     1       4.128   5.691  19.201  0.00  0.00    +0.000 A 
ATOM     23  C   UNL     1       3.228   6.609  18.595  0.00  0.00    +0.000 A 
ATOM     24  N   UNL     1       3.595   6.877  17.332  0.00  0.00    +0.000 NA
ATOM     25  N   UNL     1       4.692   6.120  17.135  0.00  0.00    +0.000 N 
ATOM     26  C   UNL     1       5.301   6.084  15.825  0.00  0.00    +0.000 C 
ENDBRANCH  19  23
ENDBRANCH   1  19
TORSDOF 3
ENDMDL
