MODEL 1
REMARK VINA RESULT:      -6.8      0.000      0.000
REMARK  Name = 
REMARK  0 active torsions:
REMARK  status: ('A' for Active; 'I' for Inactive)
REMARK                            x       y       z     vdW  Elec       q    Type
REMARK                         _______ _______ _______ _____ _____    ______ ____
ROOT
ATOM      1  N   UNL     1       0.831   1.973  18.683  0.00  0.00    +0.000 N 
ATOM      2  C   UNL     1       2.060   2.628  18.742  0.00  0.00    +0.000 A 
ATOM      3  N   UNL     1       3.023   2.103  19.508  0.00  0.00    +0.000 NA
ATOM      4  N   UNL     1       4.215   2.697  19.560  0.00  0.00    +0.000 N 
ATOM      5  O   UNL     1       5.065   2.135  20.300  0.00  0.00    +0.000 OA
ATOM      6  C   UNL     1       4.507   3.876  18.870  0.00  0.00    +0.000 A 
ATOM      7  C   UNL     1       5.773   4.501  18.942  0.00  0.00    +0.000 A 
ATOM      8  C   UNL     1       6.004   5.699  18.268  0.00  0.00    +0.000 A 
ATOM      9 CL   UNL     1       7.540   6.461  18.385  0.00  0.00    +0.000 Cl
ATOM     10  C   UNL     1       4.998   6.284  17.507  0.00  0.00    +0.000 A 
ATOM     11  C   UNL     1       3.749   5.664  17.411  0.00  0.00    +0.000 A 
ATOM     12  C   UNL     1       3.489   4.453  18.091  0.00  0.00    +0.000 A 
ATOM     13  N   UNL     1       2.244   3.816  18.025  0.00  0.00    +0.000 N 
ATOM     14  O   UNL     1       1.278   4.320  17.349  0.00  0.00    +0.000 OA
ATOM     15  H   UNL     1       0.622   1.428  19.510  0.00  0.00    +0.000 HD
ATOM     16  H   UNL     1       0.107   2.588  18.312  0.00  0.00    +0.000 HD
ENDROOT
TORSDOF 0
ENDMDL
MODEL 2
REMARK VINA RESULT:      -6.7      3.730      4.584
REMARK  Name = 
REMARK  0 active torsions:
REMARK  status: ('A' for Active; 'I' for Inactive)
REMARK                            x       y       z     vdW  Elec       q    Type
REMARK                         _______ _______ _______ _____ _____    ______ ____
ROOT
ATOM      1  N   UNL     1       7.658   5.288  14.521  0.00  0.00    +0.000 N 
ATOM      2  C   UNL     1       6.973   4.952  15.686  0.00  0.00    +0.000 A 
ATOM      3  N   UNL     1       7.623   5.035  16.853  0.00  0.00    +0.000 NA
ATOM      4  N   UNL     1       6.981   4.741  17.983  0.00  0.00    +0.000 N 
ATOM      5  O   UNL     1       7.665   4.851  19.035  0.00  0.00    +0.000 OA
ATOM      6  C   UNL     1       5.651   4.315  18.012  0.00  0.00    +0.000 A 
ATOM      7  C   UNL     1       4.985   3.998  19.219  0.00  0.00    +0.000 A 
ATOM      8  C   UNL     1       3.670   3.538  19.195  0.00  0.00    +0.000 A 
ATOM      9 CL   UNL     1       2.880   3.132  20.666  0.00  0.00    +0.000 Cl
ATOM     10  C   UNL     1       2.995   3.399  17.986  0.00  0.00    +0.000 A 
ATOM     11  C   UNL     1       3.636   3.729  16.789  0.00  0.00    +0.000 A 
ATOM     12  C   UNL     1       4.971   4.191  16.789  0.00  0.00    +0.000 A 
ATOM     13  N   UNL     1       5.644   4.517  15.605  0.00  0.00    +0.000 N 
ATOM     14  O   UNL     1       5.073   4.394  14.463  0.00  0.00    +0.000 OA
ATOM     15  H   UNL     1       8.660   5.157  14.587  0.00  0.00    +0.000 HD
ATOM     16  H   UNL     1       7.176   4.930  13.697  0.00  0.00    +0.000 HD
ENDROOT
TORSDOF 0
ENDMDL
MODEL 3
REMARK VINA RESULT:      -6.5      3.436      4.212
REMARK  Name = 
REMARK  0 active torsions:
REMARK  status: ('A' for Active; 'I' for Inactive)
REMARK                            x       y       z     vdW  Elec       q    Type
REMARK                         _______ _______ _______ _____ _____    ______ ____
ROOT
ATOM      1  N   UNL     1       7.312   4.982  15.443  0.00  0.00    +0.000 N 
ATOM      2  C   UNL     1       6.374   5.156  16.459  0.00  0.00    +0.000 A 
ATOM      3  N   UNL     1       6.412   4.326  17.508  0.00  0.00    +0.000 NA
ATOM      4  N   UNL     1       5.541   4.487  18.503  0.00  0.00    +0.000 N 
ATOM      5  O   UNL     1       5.650   3.667  19.453  0.00  0.00    +0.000 OA
ATOM      6  C   UNL     1       4.553   5.475  18.495  0.00  0.00    +0.000 A 
ATOM      7  C   UNL     1       3.629   5.629  19.554  0.00  0.00    +0.000 A 
ATOM      8  C   UNL     1       2.635   6.603  19.483  0.00  0.00    +0.000 A 
ATOM      9 CL   UNL     1       1.502   6.763  20.765  0.00  0.00    +0.000 Cl
ATOM     10  C   UNL     1       2.550   7.442  18.376  0.00  0.00    +0.000 A 
ATOM     11  C   UNL     1       3.471   7.314  17.333  0.00  0.00    +0.000 A 
ATOM     12  C   UNL     1       4.483   6.329  17.381  0.00  0.00    +0.000 A 
ATOM     13  N   UNL     1       5.412   6.166  16.345  0.00  0.00    +0.000 N 
ATOM     14  O   UNL     1       5.370   6.904  15.297  0.00  0.00    +0.000 OA
ATOM     15  H   UNL     1       7.653   4.033  15.364  0.00  0.00    +0.000 HD
ATOM     16  H   UNL     1       7.024   5.466  14.594  0.00  0.00    +0.000 HD
ENDROOT
TORSDOF 0
ENDMDL
MODEL 4
REMARK VINA RESULT:      -6.5      3.872      5.454
REMARK  Name = 
REMARK  0 active torsions:
REMARK  status: ('A' for Active; 'I' for Inactive)
REMARK                            x       y       z     vdW  Elec       q    Type
REMARK                         _______ _______ _______ _____ _____    ______ ____
ROOT
ATOM      1  N   UNL     1       8.492   7.519  18.633  0.00  0.00    +0.000 N 
ATOM      2  C   UNL     1       7.403   6.747  18.232  0.00  0.00    +0.000 A 
ATOM      3  N   UNL     1       6.816   7.035  17.065  0.00  0.00    +0.000 NA
ATOM      4  N   UNL     1       5.789   6.295  16.649  0.00  0.00    +0.000 N 
ATOM      5  O   UNL     1       5.299   6.631  15.538  0.00  0.00    +0.000 OA
ATOM      6  C   UNL     1       5.265   5.235  17.393  0.00  0.00    +0.000 A 
ATOM      7  C   UNL     1       4.168   4.464  16.943  0.00  0.00    +0.000 A 
ATOM      8  C   UNL     1       3.654   3.443  17.740  0.00  0.00    +0.000 A 
ATOM      9 CL   UNL     1       2.305   2.530  17.192  0.00  0.00    +0.000 Cl
ATOM     10  C   UNL     1       4.222   3.162  18.978  0.00  0.00    +0.000 A 
ATOM     11  C   UNL     1       5.320   3.904  19.424  0.00  0.00    +0.000 A 
ATOM     12  C   UNL     1       5.854   4.948  18.637  0.00  0.00    +0.000 A 
ATOM     13  N   UNL     1       6.944   5.718  19.062  0.00  0.00    +0.000 N 
ATOM     14  O   UNL     1       7.496   5.510  20.201  0.00  0.00    +0.000 OA
ATOM     15  H   UNL     1       8.486   8.457  18.253  0.00  0.00    +0.000 HD
ATOM     16  H   UNL     1       8.676   7.401  19.629  0.00  0.00    +0.000 HD
ENDROOT
TORSDOF 0
ENDMDL
MODEL 5
REMARK VINA RESULT:      -6.4      2.086      2.242
REMARK  Name = 
REMARK  0 active torsions:
REMARK  status: ('A' for Active; 'I' for Inactive)
REMARK                            x       y       z     vdW  Elec       q    Type
REMARK                         _______ _______ _______ _____ _____    ______ ____
ROOT
ATOM      1  N   UNL     1       1.060   2.876  21.456  0.00  0.00    +0.000 N 
ATOM      2  C   UNL     1       1.863   3.206  20.367  0.00  0.00    +0.000 A 
ATOM      3  N   UNL     1       2.380   2.212  19.634  0.00  0.00    +0.000 NA
ATOM      4  N   UNL     1       3.132   2.504  18.574  0.00  0.00    +0.000 N 
ATOM      5  O   UNL     1       3.574   1.510  17.938  0.00  0.00    +0.000 OA
ATOM      6  C   UNL     1       3.438   3.813  18.196  0.00  0.00    +0.000 A 
ATOM      7  C   UNL     1       4.245   4.107  17.073  0.00  0.00    +0.000 A 
ATOM      8  C   UNL     1       4.558   5.429  16.759  0.00  0.00    +0.000 A 
ATOM      9 CL   UNL     1       5.560   5.771  15.406  0.00  0.00    +0.000 Cl
ATOM     10  C   UNL     1       4.069   6.472  17.539  0.00  0.00    +0.000 A 
ATOM     11  C   UNL     1       3.253   6.195  18.639  0.00  0.00    +0.000 A 
ATOM     12  C   UNL     1       2.928   4.862  18.980  0.00  0.00    +0.000 A 
ATOM     13  N   UNL     1       2.125   4.552  20.084  0.00  0.00    +0.000 N 
ATOM     14  O   UNL     1       1.659   5.474  20.844  0.00  0.00    +0.000 OA
ATOM     15  H   UNL     1       1.268   1.969  21.854  0.00  0.00    +0.000 HD
ATOM     16  H   UNL     1       0.956   3.670  22.087  0.00  0.00    +0.000 HD
ENDROOT
TORSDOF 0
ENDMDL
MODEL 6
REMARK VINA RESULT:      -6.4      2.517      3.457
REMARK  Name = 
REMARK  0 active torsions:
REMARK  status: ('A' for Active; 'I' for Inactive)
REMARK                            x       y       z     vdW  Elec       q    Type
REMARK                         _______ _______ _______ _____ _____    ______ ____
ROOT
ATOM      1  N   UNL     1       5.093   1.891  20.015  0.00  0.00    +0.000 N 
ATOM      2  C   UNL     1       4.365   3.040  19.711  0.00  0.00    +0.000 A 
ATOM      3  N   UNL     1       3.111   3.138  20.169  0.00  0.00    +0.000 NA
ATOM      4  N   UNL     1       2.404   4.237  19.911  0.00  0.00    +0.000 N 
ATOM      5  O   UNL     1       1.236   4.249  20.383  0.00  0.00    +0.000 OA
ATOM      6  C   UNL     1       2.900   5.299  19.150  0.00  0.00    +0.000 A 
ATOM      7  C   UNL     1       2.134   6.456  18.877  0.00  0.00    +0.000 A 
ATOM      8  C   UNL     1       2.658   7.472  18.079  0.00  0.00    +0.000 A 
ATOM      9 CL   UNL     1       1.707   8.861  17.734  0.00  0.00    +0.000 Cl
ATOM     10  C   UNL     1       3.941   7.364  17.554  0.00  0.00    +0.000 A 
ATOM     11  C   UNL     1       4.715   6.235  17.835  0.00  0.00    +0.000 A 
ATOM     12  C   UNL     1       4.203   5.190  18.636  0.00  0.00    +0.000 A 
ATOM     13  N   UNL     1       4.949   4.039  18.923  0.00  0.00    +0.000 N 
ATOM     14  O   UNL     1       6.132   3.884  18.454  0.00  0.00    +0.000 OA
ATOM     15  H   UNL     1       4.515   1.076  20.175  0.00  0.00    +0.000 HD
ATOM     16  H   UNL     1       5.902   1.799  19.402  0.00  0.00    +0.000 HD
ENDROOT
TORSDOF 0
ENDMDL
MODEL 7
REMARK VINA RESULT:      -6.4      3.548      5.143
REMARK  Name = 
REMARK  0 active torsions:
REMARK  status: ('A' for Active; 'I' for Inactive)
REMARK                            x       y       z     vdW  Elec       q    Type
REMARK                         _______ _______ _______ _____ _____    ______ ____
ROOT
ATOM      1  N   UNL     1       7.496   6.649  16.689  0.00  0.00    +0.000 N 
ATOM      2  C   UNL     1       6.276   6.305  17.268  0.00  0.00    +0.000 A 
ATOM      3  N   UNL     1       5.252   7.158  17.146  0.00  0.00    +0.000 NA
ATOM      4  N   UNL     1       4.069   6.840  17.671  0.00  0.00    +0.000 N 
ATOM      5  O   UNL     1       3.159   7.696  17.506  0.00  0.00    +0.000 OA
ATOM      6  C   UNL     1       3.845   5.657  18.379  0.00  0.00    +0.000 A 
ATOM      7  C   UNL     1       2.587   5.337  18.939  0.00  0.00    +0.000 A 
ATOM      8  C   UNL     1       2.423   4.163  19.672  0.00  0.00    +0.000 A 
ATOM      9 CL   UNL     1       0.894   3.799  20.369  0.00  0.00    +0.000 Cl
ATOM     10  C   UNL     1       3.490   3.289  19.851  0.00  0.00    +0.000 A 
ATOM     11  C   UNL     1       4.733   3.585  19.285  0.00  0.00    +0.000 A 
ATOM     12  C   UNL     1       4.925   4.772  18.542  0.00  0.00    +0.000 A 
ATOM     13  N   UNL     1       6.162   5.102  17.975  0.00  0.00    +0.000 N 
ATOM     14  O   UNL     1       7.182   4.339  18.120  0.00  0.00    +0.000 OA
ATOM     15  H   UNL     1       7.636   7.648  16.602  0.00  0.00    +0.000 HD
ATOM     16  H   UNL     1       8.253   6.084  17.071  0.00  0.00    +0.000 HD
ENDROOT
TORSDOF 0
ENDMDL
MODEL 8
REMARK VINA RESULT:      -6.4      2.796      3.146
REMARK  Name = 
REMARK  0 active torsions:
REMARK  status: ('A' for Active; 'I' for Inactive)
REMARK                            x       y       z     vdW  Elec       q    Type
REMARK                         _______ _______ _______ _____ _____    ______ ____
ROOT
ATOM      1  N   UNL     1       4.084   1.046  18.355  0.00  0.00    +0.000 N 
ATOM      2  C   UNL     1       3.595   2.221  18.922  0.00  0.00    +0.000 A 
ATOM      3  N   UNL     1       3.124   2.174  20.174  0.00  0.00    +0.000 NA
ATOM      4  N   UNL     1       2.673   3.291  20.746  0.00  0.00    +0.000 N 
ATOM      5  O   UNL     1       2.254   3.159  21.926  0.00  0.00    +0.000 OA
ATOM      6  C   UNL     1       2.639   4.522  20.086  0.00  0.00    +0.000 A 
ATOM      7  C   UNL     1       2.149   5.696  20.703  0.00  0.00    +0.000 A 
ATOM      8  C   UNL     1       2.096   6.893  19.991  0.00  0.00    +0.000 A 
ATOM      9 CL   UNL     1       1.475   8.308  20.744  0.00  0.00    +0.000 Cl
ATOM     10  C   UNL     1       2.536   6.948  18.672  0.00  0.00    +0.000 A 
ATOM     11  C   UNL     1       3.042   5.798  18.059  0.00  0.00    +0.000 A 
ATOM     12  C   UNL     1       3.099   4.572  18.759  0.00  0.00    +0.000 A 
ATOM     13  N   UNL     1       3.587   3.400  18.168  0.00  0.00    +0.000 N 
ATOM     14  O   UNL     1       3.993   3.392  16.951  0.00  0.00    +0.000 OA
ATOM     15  H   UNL     1       3.672   0.207  18.743  0.00  0.00    +0.000 HD
ATOM     16  H   UNL     1       4.151   1.130  17.342  0.00  0.00    +0.000 HD
ENDROOT
TORSDOF 0
ENDMDL
MODEL 9
REMARK VINA RESULT:      -6.3      3.868      4.853
REMARK  Name = 
REMARK  0 active torsions:
REMARK  status: ('A' for Active; 'I' for Inactive)
REMARK                            x       y       z     vdW  Elec       q    Type
REMARK                         _______ _______ _______ _____ _____    ______ ____
ROOT
ATOM      1  N   UNL     1       7.853   8.132  16.955  0.00  0.00    +0.000 N 
ATOM      2  C   UNL     1       7.162   7.061  17.519  0.00  0.00    +0.000 A 
ATOM      3  N   UNL     1       7.603   6.560  18.679  0.00  0.00    +0.000 NA
ATOM      4  N   UNL     1       6.945   5.552  19.249  0.00  0.00    +0.000 N 
ATOM      5  O   UNL     1       7.424   5.145  20.341  0.00  0.00    +0.000 OA
ATOM      6  C   UNL     1       5.816   4.960  18.676  0.00  0.00    +0.000 A 
ATOM      7  C   UNL     1       5.133   3.884  19.289  0.00  0.00    +0.000 A 
ATOM      8  C   UNL     1       4.036   3.299  18.659  0.00  0.00    +0.000 A 
ATOM      9 CL   UNL     1       3.230   1.976  19.402  0.00  0.00    +0.000 Cl
ATOM     10  C   UNL     1       3.594   3.776  17.428  0.00  0.00    +0.000 A 
ATOM     11  C   UNL     1       4.249   4.852  16.823  0.00  0.00    +0.000 A 
ATOM     12  C   UNL     1       5.367   5.457  17.441  0.00  0.00    +0.000 A 
ATOM     13  N   UNL     1       6.052   6.528  16.853  0.00  0.00    +0.000 N 
ATOM     14  O   UNL     1       5.695   6.996  15.714  0.00  0.00    +0.000 OA
ATOM     15  H   UNL     1       8.829   8.168  17.219  0.00  0.00    +0.000 HD
ATOM     16  H   UNL     1       7.612   8.244  15.971  0.00  0.00    +0.000 HD
ENDROOT
TORSDOF 0
ENDMDL
