MODEL 1
REMARK VINA RESULT:      -7.7      0.000      0.000
REMARK  Name = 
REMARK  9 active torsions:
REMARK  status: ('A' for Active; 'I' for Inactive)
REMARK    1  A    between atoms: C_1  and  C_2
REMARK    2  A    between atoms: C_4  and  C_5
REMARK    3  A    between atoms: C_11  and  C_12
REMARK    4  A    between atoms: C_12  and  C_13
REMARK    5  A    between atoms: C_13  and  O_14
REMARK    6  A    between atoms: O_14  and  C_15
REMARK    7  A    between atoms: C_18  and  C_19
REMARK    8  A    between atoms: C_19  and  N_20
REMARK    9  A    between atoms: N_20  and  O_21
REMARK                            x       y       z     vdW  Elec       q    Type
REMARK                         _______ _______ _______ _____ _____    ______ ____
ROOT
ATOM      1  C   UNL     1       8.894   9.715  18.780  0.00  0.00    +0.000 A 
ATOM      2  C   UNL     1       8.217  10.419  17.783  0.00  0.00    +0.000 A 
ATOM      3  C   UNL     1       8.293  11.817  17.715  0.00  0.00    +0.000 A 
ATOM      4  C   UNL     1       9.041  12.546  18.654  0.00  0.00    +0.000 A 
ATOM      5  C   UNL     1       9.721  11.832  19.648  0.00  0.00    +0.000 A 
ATOM      6  C   UNL     1       9.638  10.435  19.719  0.00  0.00    +0.000 A 
ENDROOT
BRANCH   1   7
ATOM      7  O   UNL     1       8.747   8.347  18.760  0.00  0.00    +0.000 OA
BRANCH   7   8
ATOM      8  C   UNL     1       7.756   7.866  17.844  0.00  0.00    +0.000 C 
BRANCH   8   9
ATOM      9  C   UNL     1       7.630   6.339  17.900  0.00  0.00    +0.000 C 
BRANCH   9  15
ATOM     10  C   UNL     1       5.087   6.615  15.657  0.00  0.00    +0.000 C 
ATOM     11  C   UNL     1       5.198   6.038  17.007  0.00  0.00    +0.000 A 
ATOM     12  O   UNL     1       4.065   5.474  17.522  0.00  0.00    +0.000 OA
ATOM     13  C   UNL     1       4.421   5.031  18.774  0.00  0.00    +0.000 A 
ATOM     14  N   UNL     1       5.683   5.277  19.063  0.00  0.00    +0.000 NA
ATOM     15  C   UNL     1       6.199   5.911  17.946  0.00  0.00    +0.000 A 
BRANCH  13  16
ATOM     16  C   UNL     1       3.508   4.376  19.673  0.00  0.00    +0.000 A 
ATOM     17  C   UNL     1       2.412   4.933  20.307  0.00  0.00    +0.000 A 
ATOM     18  C   UNL     1       1.712   3.991  21.120  0.00  0.00    +0.000 A 
ATOM     19  C   UNL     1       2.299   2.747  21.084  0.00  0.00    +0.000 A 
ATOM     20  S   UNL     1       3.682   2.720  20.081  0.00  0.00    +0.000 S 
ENDBRANCH  13  16
ENDBRANCH   9  15
ENDBRANCH   8   9
ENDBRANCH   7   8
ENDBRANCH   1   7
BRANCH   4  21
ATOM     21  C   UNL     1       9.128  14.057  18.568  0.00  0.00    +0.000 C 
BRANCH  21  22
ATOM     22  N   UNL     1      10.205  14.532  17.696  0.00  0.00    +0.000 N 
ATOM     23  C   UNL     1      10.185  15.831  17.220  0.00  0.00    +0.000 C 
ATOM     24  N   UNL     1      11.025  16.065  16.173  0.00  0.00    +0.000 N 
ATOM     25  O   UNL     1       9.520  16.746  17.694  0.00  0.00    +0.000 OA
ATOM     26  H   UNL     1      11.715  15.372  15.931  0.00  0.00    +0.000 HD
ATOM     27  H   UNL     1      11.136  17.019  15.865  0.00  0.00    +0.000 HD
BRANCH  22  28
ATOM     28  O   UNL     1      10.605  13.564  16.732  0.00  0.00    +0.000 OA
ATOM     29  H   UNL     1      10.995  14.143  16.052  0.00  0.00    +0.000 HD
ENDBRANCH  22  28
ENDBRANCH  21  22
ENDBRANCH   4  21
TORSDOF 8
ENDMDL
MODEL 2
REMARK VINA RESULT:      -7.7      6.034      8.525
REMARK  Name = 
REMARK  9 active torsions:
REMARK  status: ('A' for Active; 'I' for Inactive)
REMARK    1  A    between atoms: C_1  and  C_2
REMARK    2  A    between atoms: C_4  and  C_5
REMARK    3  A    between atoms: C_11  and  C_12
REMARK    4  A    between atoms: C_12  and  C_13
REMARK    5  A    between atoms: C_13  and  O_14
REMARK    6  A    between atoms: O_14  and  C_15
REMARK    7  A    between atoms: C_18  and  C_19
REMARK    8  A    between atoms: C_19  and  N_20
REMARK    9  A    between atoms: N_20  and  O_21
REMARK                            x       y       z     vdW  Elec       q    Type
REMARK                         _______ _______ _______ _____ _____    ______ ____
ROOT
ATOM      1  C   UNL     1       2.114   3.372  18.863  0.00  0.00    +0.000 A 
ATOM      2  C   UNL     1       3.362   2.976  19.347  0.00  0.00    +0.000 A 
ATOM      3  C   UNL     1       4.506   3.070  18.541  0.00  0.00    +0.000 A 
ATOM      4  C   UNL     1       4.424   3.552  17.225  0.00  0.00    +0.000 A 
ATOM      5  C   UNL     1       3.169   3.951  16.748  0.00  0.00    +0.000 A 
ATOM      6  C   UNL     1       2.026   3.850  17.552  0.00  0.00    +0.000 A 
ENDROOT
BRANCH   1   7
ATOM      7  O   UNL     1       1.057   3.233  19.732  0.00  0.00    +0.000 OA
BRANCH   7   8
ATOM      8  C   UNL     1       0.911   4.304  20.673  0.00  0.00    +0.000 C 
BRANCH   8   9
ATOM      9  C   UNL     1       2.160   5.192  20.714  0.00  0.00    +0.000 C 
BRANCH   9  15
ATOM     10  C   UNL     1       2.992   7.336  18.208  0.00  0.00    +0.000 C 
ATOM     11  C   UNL     1       2.174   7.460  19.424  0.00  0.00    +0.000 A 
ATOM     12  O   UNL     1       1.596   8.677  19.648  0.00  0.00    +0.000 OA
ATOM     13  C   UNL     1       0.911   8.539  20.833  0.00  0.00    +0.000 A 
ATOM     14  N   UNL     1       1.024   7.332  21.349  0.00  0.00    +0.000 NA
ATOM     15  C   UNL     1       1.818   6.625  20.463  0.00  0.00    +0.000 A 
BRANCH  13  16
ATOM     16  C   UNL     1       0.160   9.604  21.444  0.00  0.00    +0.000 A 
ATOM     17  C   UNL     1      -0.262   9.684  22.759  0.00  0.00    +0.000 A 
ATOM     18  C   UNL     1      -0.973  10.891  23.033  0.00  0.00    +0.000 A 
ATOM     19  C   UNL     1      -1.075  11.690  21.917  0.00  0.00    +0.000 A 
ATOM     20  S   UNL     1      -0.321  10.987  20.554  0.00  0.00    +0.000 S 
ENDBRANCH  13  16
ENDBRANCH   9  15
ENDBRANCH   8   9
ENDBRANCH   7   8
ENDBRANCH   1   7
BRANCH   4  21
ATOM     21  C   UNL     1       5.666   3.661  16.363  0.00  0.00    +0.000 C 
BRANCH  21  22
ATOM     22  N   UNL     1       6.613   4.676  16.828  0.00  0.00    +0.000 N 
ATOM     23  C   UNL     1       6.516   5.975  16.362  0.00  0.00    +0.000 C 
ATOM     24  N   UNL     1       7.620   6.742  16.585  0.00  0.00    +0.000 N 
ATOM     25  O   UNL     1       5.525   6.461  15.827  0.00  0.00    +0.000 OA
ATOM     26  H   UNL     1       8.338   6.403  17.205  0.00  0.00    +0.000 HD
ATOM     27  H   UNL     1       7.558   7.726  16.372  0.00  0.00    +0.000 HD
BRANCH  22  28
ATOM     28  O   UNL     1       7.948   4.188  16.920  0.00  0.00    +0.000 OA
ATOM     29  H   UNL     1       7.853   3.331  16.465  0.00  0.00    +0.000 HD
ENDBRANCH  22  28
ENDBRANCH  21  22
ENDBRANCH   4  21
TORSDOF 8
ENDMDL
MODEL 3
REMARK VINA RESULT:      -7.6      5.561      8.183
REMARK  Name = 
REMARK  9 active torsions:
REMARK  status: ('A' for Active; 'I' for Inactive)
REMARK    1  A    between atoms: C_1  and  C_2
REMARK    2  A    between atoms: C_4  and  C_5
REMARK    3  A    between atoms: C_11  and  C_12
REMARK    4  A    between atoms: C_12  and  C_13
REMARK    5  A    between atoms: C_13  and  O_14
REMARK    6  A    between atoms: O_14  and  C_15
REMARK    7  A    between atoms: C_18  and  C_19
REMARK    8  A    between atoms: C_19  and  N_20
REMARK    9  A    between atoms: N_20  and  O_21
REMARK                            x       y       z     vdW  Elec       q    Type
REMARK                         _______ _______ _______ _____ _____    ______ ____
ROOT
ATOM      1  C   UNL     1       2.692   7.743  18.559  0.00  0.00    +0.000 A 
ATOM      2  C   UNL     1       2.239   8.737  17.690  0.00  0.00    +0.000 A 
ATOM      3  C   UNL     1       1.250   9.645  18.093  0.00  0.00    +0.000 A 
ATOM      4  C   UNL     1       0.681   9.571  19.375  0.00  0.00    +0.000 A 
ATOM      5  C   UNL     1       1.143   8.574  20.241  0.00  0.00    +0.000 A 
ATOM      6  C   UNL     1       2.127   7.663  19.835  0.00  0.00    +0.000 A 
ENDROOT
BRANCH   1   7
ATOM      7  O   UNL     1       3.660   6.901  18.062  0.00  0.00    +0.000 OA
BRANCH   7   8
ATOM      8  C   UNL     1       3.871   5.712  18.834  0.00  0.00    +0.000 C 
BRANCH   8   9
ATOM      9  C   UNL     1       5.362   5.383  18.967  0.00  0.00    +0.000 C 
BRANCH   9  15
ATOM     10  C   UNL     1       7.821   7.522  17.991  0.00  0.00    +0.000 C 
ATOM     11  C   UNL     1       7.079   6.446  17.314  0.00  0.00    +0.000 A 
ATOM     12  O   UNL     1       7.407   6.206  16.011  0.00  0.00    +0.000 OA
ATOM     13  C   UNL     1       6.576   5.185  15.612  0.00  0.00    +0.000 A 
ATOM     14  N   UNL     1       5.769   4.781  16.570  0.00  0.00    +0.000 NA
ATOM     15  C   UNL     1       6.078   5.565  17.668  0.00  0.00    +0.000 A 
BRANCH  13  16
ATOM     16  C   UNL     1       6.587   4.627  14.285  0.00  0.00    +0.000 A 
ATOM     17  C   UNL     1       5.701   3.705  13.757  0.00  0.00    +0.000 A 
ATOM     18  C   UNL     1       5.994   3.379  12.398  0.00  0.00    +0.000 A 
ATOM     19  C   UNL     1       7.098   4.058  11.936  0.00  0.00    +0.000 A 
ATOM     20  S   UNL     1       7.771   5.077  13.131  0.00  0.00    +0.000 S 
ENDBRANCH  13  16
ENDBRANCH   9  15
ENDBRANCH   8   9
ENDBRANCH   7   8
ENDBRANCH   1   7
BRANCH   4  21
ATOM     21  C   UNL     1      -0.381  10.563  19.808  0.00  0.00    +0.000 C 
BRANCH  21  22
ATOM     22  N   UNL     1      -0.898  11.383  18.710  0.00  0.00    +0.000 N 
ATOM     23  C   UNL     1      -1.781  10.835  17.798  0.00  0.00    +0.000 C 
ATOM     24  N   UNL     1      -1.934  11.557  16.652  0.00  0.00    +0.000 N 
ATOM     25  O   UNL     1      -2.435   9.812  17.974  0.00  0.00    +0.000 OA
ATOM     26  H   UNL     1      -1.562  12.492  16.606  0.00  0.00    +0.000 HD
ATOM     27  H   UNL     1      -2.652  11.266  16.006  0.00  0.00    +0.000 HD
BRANCH  22  28
ATOM     28  O   UNL     1       0.096  12.221  18.129  0.00  0.00    +0.000 OA
ATOM     29  H   UNL     1      -0.456  12.761  17.535  0.00  0.00    +0.000 HD
ENDBRANCH  22  28
ENDBRANCH  21  22
ENDBRANCH   4  21
TORSDOF 8
ENDMDL
MODEL 4
REMARK VINA RESULT:      -7.6      4.985      7.325
REMARK  Name = 
REMARK  9 active torsions:
REMARK  status: ('A' for Active; 'I' for Inactive)
REMARK    1  A    between atoms: C_1  and  C_2
REMARK    2  A    between atoms: C_4  and  C_5
REMARK    3  A    between atoms: C_11  and  C_12
REMARK    4  A    between atoms: C_12  and  C_13
REMARK    5  A    between atoms: C_13  and  O_14
REMARK    6  A    between atoms: O_14  and  C_15
REMARK    7  A    between atoms: C_18  and  C_19
REMARK    8  A    between atoms: C_19  and  N_20
REMARK    9  A    between atoms: N_20  and  O_21
REMARK                            x       y       z     vdW  Elec       q    Type
REMARK                         _______ _______ _______ _____ _____    ______ ____
ROOT
ATOM      1  C   UNL     1       2.629   6.326  19.530  0.00  0.00    +0.000 A 
ATOM      2  C   UNL     1       1.978   6.964  20.587  0.00  0.00    +0.000 A 
ATOM      3  C   UNL     1       1.414   8.237  20.416  0.00  0.00    +0.000 A 
ATOM      4  C   UNL     1       1.500   8.905  19.184  0.00  0.00    +0.000 A 
ATOM      5  C   UNL     1       2.152   8.256  18.129  0.00  0.00    +0.000 A 
ATOM      6  C   UNL     1       2.721   6.987  18.303  0.00  0.00    +0.000 A 
ENDROOT
BRANCH   1   7
ATOM      7  O   UNL     1       3.152   5.083  19.806  0.00  0.00    +0.000 OA
BRANCH   7   8
ATOM      8  C   UNL     1       4.108   4.611  18.847  0.00  0.00    +0.000 C 
BRANCH   8   9
ATOM      9  C   UNL     1       5.465   5.302  19.016  0.00  0.00    +0.000 C 
BRANCH   9  15
ATOM     10  C   UNL     1       7.804   7.543  17.979  0.00  0.00    +0.000 C 
ATOM     11  C   UNL     1       7.088   6.440  17.320  0.00  0.00    +0.000 A 
ATOM     12  O   UNL     1       7.388   6.218  16.006  0.00  0.00    +0.000 OA
ATOM     13  C   UNL     1       6.588   5.165  15.626  0.00  0.00    +0.000 A 
ATOM     14  N   UNL     1       5.826   4.724  16.606  0.00  0.00    +0.000 NA
ATOM     15  C   UNL     1       6.135   5.517  17.698  0.00  0.00    +0.000 A 
BRANCH  13  16
ATOM     16  C   UNL     1       6.583   4.612  14.297  0.00  0.00    +0.000 A 
ATOM     17  C   UNL     1       5.652   3.745  13.754  0.00  0.00    +0.000 A 
ATOM     18  C   UNL     1       5.943   3.408  12.398  0.00  0.00    +0.000 A 
ATOM     19  C   UNL     1       7.090   4.024  11.952  0.00  0.00    +0.000 A 
ATOM     20  S   UNL     1       7.806   4.997  13.160  0.00  0.00    +0.000 S 
ENDBRANCH  13  16
ENDBRANCH   9  15
ENDBRANCH   8   9
ENDBRANCH   7   8
ENDBRANCH   1   7
BRANCH   4  21
ATOM     21  C   UNL     1       0.879  10.276  19.003  0.00  0.00    +0.000 C 
BRANCH  21  22
ATOM     22  N   UNL     1       1.859  11.364  18.981  0.00  0.00    +0.000 N 
ATOM     23  C   UNL     1       1.788  12.375  19.922  0.00  0.00    +0.000 C 
ATOM     24  N   UNL     1       2.515  13.487  19.617  0.00  0.00    +0.000 N 
ATOM     25  O   UNL     1       1.175  12.311  20.983  0.00  0.00    +0.000 OA
ATOM     26  H   UNL     1       3.177  13.450  18.858  0.00  0.00    +0.000 HD
ATOM     27  H   UNL     1       2.593  14.204  20.322  0.00  0.00    +0.000 HD
BRANCH  22  28
ATOM     28  O   UNL     1       2.158  11.814  17.663  0.00  0.00    +0.000 OA
ATOM     29  H   UNL     1       2.707  11.075  17.346  0.00  0.00    +0.000 HD
ENDBRANCH  22  28
ENDBRANCH  21  22
ENDBRANCH   4  21
TORSDOF 8
ENDMDL
MODEL 5
REMARK VINA RESULT:      -7.5      6.893      8.458
REMARK  Name = 
REMARK  9 active torsions:
REMARK  status: ('A' for Active; 'I' for Inactive)
REMARK    1  A    between atoms: C_1  and  C_2
REMARK    2  A    between atoms: C_4  and  C_5
REMARK    3  A    between atoms: C_11  and  C_12
REMARK    4  A    between atoms: C_12  and  C_13
REMARK    5  A    between atoms: C_13  and  O_14
REMARK    6  A    between atoms: O_14  and  C_15
REMARK    7  A    between atoms: C_18  and  C_19
REMARK    8  A    between atoms: C_19  and  N_20
REMARK    9  A    between atoms: N_20  and  O_21
REMARK                            x       y       z     vdW  Elec       q    Type
REMARK                         _______ _______ _______ _____ _____    ______ ____
ROOT
ATOM      1  C   UNL     1       1.608   8.351  19.954  0.00  0.00    +0.000 A 
ATOM      2  C   UNL     1       1.782   8.773  18.635  0.00  0.00    +0.000 A 
ATOM      3  C   UNL     1       1.117   9.909  18.153  0.00  0.00    +0.000 A 
ATOM      4  C   UNL     1       0.251  10.644  18.978  0.00  0.00    +0.000 A 
ATOM      5  C   UNL     1       0.085  10.216  20.301  0.00  0.00    +0.000 A 
ATOM      6  C   UNL     1       0.744   9.076  20.780  0.00  0.00    +0.000 A 
ENDROOT
BRANCH   1   7
ATOM      7  O   UNL     1       2.301   7.222  20.324  0.00  0.00    +0.000 OA
BRANCH   7   8
ATOM      8  C   UNL     1       1.482   6.073  20.576  0.00  0.00    +0.000 C 
BRANCH   8   9
ATOM      9  C   UNL     1       2.325   4.803  20.738  0.00  0.00    +0.000 C 
BRANCH   9  15
ATOM     10  C   UNL     1       1.047   2.422  18.672  0.00  0.00    +0.000 C 
ATOM     11  C   UNL     1       2.220   3.308  18.603  0.00  0.00    +0.000 A 
ATOM     12  O   UNL     1       3.002   3.196  17.490  0.00  0.00    +0.000 OA
ATOM     13  C   UNL     1       4.021   4.102  17.672  0.00  0.00    +0.000 A 
ATOM     14  N   UNL     1       3.920   4.760  18.809  0.00  0.00    +0.000 NA
ATOM     15  C   UNL     1       2.774   4.275  19.415  0.00  0.00    +0.000 A 
BRANCH  13  16
ATOM     16  C   UNL     1       5.086   4.300  16.723  0.00  0.00    +0.000 A 
ATOM     17  C   UNL     1       5.013   4.189  15.347  0.00  0.00    +0.000 A 
ATOM     18  C   UNL     1       6.258   4.470  14.708  0.00  0.00    +0.000 A 
ATOM     19  C   UNL     1       7.242   4.781  15.618  0.00  0.00    +0.000 A 
ATOM     20  S   UNL     1       6.666   4.732  17.226  0.00  0.00    +0.000 S 
ENDBRANCH  13  16
ENDBRANCH   9  15
ENDBRANCH   8   9
ENDBRANCH   7   8
ENDBRANCH   1   7
BRANCH   4  21
ATOM     21  C   UNL     1      -0.457  11.878  18.453  0.00  0.00    +0.000 C 
BRANCH  21  22
ATOM     22  N   UNL     1      -1.914  11.819  18.590  0.00  0.00    +0.000 N 
ATOM     23  C   UNL     1      -2.696  11.488  17.498  0.00  0.00    +0.000 C 
ATOM     24  N   UNL     1      -4.018  11.786  17.636  0.00  0.00    +0.000 N 
ATOM     25  O   UNL     1      -2.292  10.930  16.483  0.00  0.00    +0.000 OA
ATOM     26  H   UNL     1      -4.373  12.044  18.543  0.00  0.00    +0.000 HD
ATOM     27  H   UNL     1      -4.650  11.459  16.920  0.00  0.00    +0.000 HD
BRANCH  22  28
ATOM     28  O   UNL     1      -2.439  12.877  19.385  0.00  0.00    +0.000 OA
ATOM     29  H   UNL     1      -2.662  12.391  20.199  0.00  0.00    +0.000 HD
ENDBRANCH  22  28
ENDBRANCH  21  22
ENDBRANCH   4  21
TORSDOF 8
ENDMDL
MODEL 6
REMARK VINA RESULT:      -7.5      6.726      9.241
REMARK  Name = 
REMARK  9 active torsions:
REMARK  status: ('A' for Active; 'I' for Inactive)
REMARK    1  A    between atoms: C_1  and  C_2
REMARK    2  A    between atoms: C_4  and  C_5
REMARK    3  A    between atoms: C_11  and  C_12
REMARK    4  A    between atoms: C_12  and  C_13
REMARK    5  A    between atoms: C_13  and  O_14
REMARK    6  A    between atoms: O_14  and  C_15
REMARK    7  A    between atoms: C_18  and  C_19
REMARK    8  A    between atoms: C_19  and  N_20
REMARK    9  A    between atoms: N_20  and  O_21
REMARK                            x       y       z     vdW  Elec       q    Type
REMARK                         _______ _______ _______ _____ _____    ______ ____
ROOT
ATOM      1  C   UNL     1       3.356   6.624  18.753  0.00  0.00    +0.000 A 
ATOM      2  C   UNL     1       4.036   5.599  19.412  0.00  0.00    +0.000 A 
ATOM      3  C   UNL     1       5.223   5.072  18.883  0.00  0.00    +0.000 A 
ATOM      4  C   UNL     1       5.750   5.552  17.673  0.00  0.00    +0.000 A 
ATOM      5  C   UNL     1       5.063   6.583  17.021  0.00  0.00    +0.000 A 
ATOM      6  C   UNL     1       3.874   7.104  17.547  0.00  0.00    +0.000 A 
ENDROOT
BRANCH   1   7
ATOM      7  O   UNL     1       2.199   7.065  19.354  0.00  0.00    +0.000 OA
BRANCH   7   8
ATOM      8  C   UNL     1       1.783   8.378  18.958  0.00  0.00    +0.000 C 
BRANCH   8   9
ATOM      9  C   UNL     1       1.420   9.245  20.168  0.00  0.00    +0.000 C 
BRANCH   9  15
ATOM     10  C   UNL     1      -0.357  11.386  22.126  0.00  0.00    +0.000 C 
ATOM     11  C   UNL     1      -0.525  10.883  20.753  0.00  0.00    +0.000 A 
ATOM     12  O   UNL     1      -1.612  11.342  20.065  0.00  0.00    +0.000 OA
ATOM     13  C   UNL     1      -1.550  10.722  18.838  0.00  0.00    +0.000 A 
ATOM     14  N   UNL     1      -0.510   9.922  18.723  0.00  0.00    +0.000 NA
ATOM     15  C   UNL     1       0.162  10.016  19.929  0.00  0.00    +0.000 A 
BRANCH  13  16
ATOM     16  C   UNL     1      -2.525  10.923  17.798  0.00  0.00    +0.000 A 
ATOM     17  C   UNL     1      -2.372  10.674  16.447  0.00  0.00    +0.000 A 
ATOM     18  C   UNL     1      -3.550  10.971  15.698  0.00  0.00    +0.000 A 
ATOM     19  C   UNL     1      -4.562  11.442  16.501  0.00  0.00    +0.000 A 
ATOM     20  S   UNL     1      -4.092  11.526  18.142  0.00  0.00    +0.000 S 
ENDBRANCH  13  16
ENDBRANCH   9  15
ENDBRANCH   8   9
ENDBRANCH   7   8
ENDBRANCH   1   7
BRANCH   4  21
ATOM     21  C   UNL     1       7.039   4.984  17.112  0.00  0.00    +0.000 C 
BRANCH  21  22
ATOM     22  N   UNL     1       6.833   4.050  16.003  0.00  0.00    +0.000 N 
ATOM     23  C   UNL     1       6.950   4.493  14.698  0.00  0.00    +0.000 C 
ATOM     24  N   UNL     1       6.420   3.653  13.764  0.00  0.00    +0.000 N 
ATOM     25  O   UNL     1       7.517   5.524  14.350  0.00  0.00    +0.000 OA
ATOM     26  H   UNL     1       6.151   2.721  14.036  0.00  0.00    +0.000 HD
ATOM     27  H   UNL     1       6.583   3.870  12.793  0.00  0.00    +0.000 HD
BRANCH  22  28
ATOM     28  O   UNL     1       5.741   3.162  16.222  0.00  0.00    +0.000 OA
ATOM     29  H   UNL     1       5.999   2.774  17.077  0.00  0.00    +0.000 HD
ENDBRANCH  22  28
ENDBRANCH  21  22
ENDBRANCH   4  21
TORSDOF 8
ENDMDL
MODEL 7
REMARK VINA RESULT:      -7.4      7.688     11.007
REMARK  Name = 
REMARK  9 active torsions:
REMARK  status: ('A' for Active; 'I' for Inactive)
REMARK    1  A    between atoms: C_1  and  C_2
REMARK    2  A    between atoms: C_4  and  C_5
REMARK    3  A    between atoms: C_11  and  C_12
REMARK    4  A    between atoms: C_12  and  C_13
REMARK    5  A    between atoms: C_13  and  O_14
REMARK    6  A    between atoms: O_14  and  C_15
REMARK    7  A    between atoms: C_18  and  C_19
REMARK    8  A    between atoms: C_19  and  N_20
REMARK    9  A    between atoms: N_20  and  O_21
REMARK                            x       y       z     vdW  Elec       q    Type
REMARK                         _______ _______ _______ _____ _____    ______ ____
ROOT
ATOM      1  C   UNL     1       1.889   7.530  19.958  0.00  0.00    +0.000 A 
ATOM      2  C   UNL     1       1.612   6.305  20.567  0.00  0.00    +0.000 A 
ATOM      3  C   UNL     1       1.935   5.099  19.928  0.00  0.00    +0.000 A 
ATOM      4  C   UNL     1       2.532   5.093  18.657  0.00  0.00    +0.000 A 
ATOM      5  C   UNL     1       2.810   6.326  18.056  0.00  0.00    +0.000 A 
ATOM      6  C   UNL     1       2.480   7.530  18.692  0.00  0.00    +0.000 A 
ENDROOT
BRANCH   1   7
ATOM      7  O   UNL     1       1.527   8.653  20.667  0.00  0.00    +0.000 OA
BRANCH   7   8
ATOM      8  C   UNL     1       0.438   8.458  21.579  0.00  0.00    +0.000 C 
BRANCH   8   9
ATOM      9  C   UNL     1       0.501   9.444  22.751  0.00  0.00    +0.000 C 
BRANCH   9  15
ATOM     10  C   UNL     1       0.985  12.137  20.729  0.00  0.00    +0.000 C 
ATOM     11  C   UNL     1      -0.093  11.732  21.647  0.00  0.00    +0.000 A 
ATOM     12  O   UNL     1      -1.157  12.582  21.748  0.00  0.00    +0.000 OA
ATOM     13  C   UNL     1      -2.001  11.995  22.662  0.00  0.00    +0.000 A 
ATOM     14  N   UNL     1      -1.537  10.852  23.124  0.00  0.00    +0.000 NA
ATOM     15  C   UNL     1      -0.324  10.661  22.484  0.00  0.00    +0.000 A 
BRANCH  13  16
ATOM     16  C   UNL     1      -3.253  12.575  23.073  0.00  0.00    +0.000 A 
ATOM     17  C   UNL     1      -3.966  12.300  24.225  0.00  0.00    +0.000 A 
ATOM     18  C   UNL     1      -5.164  13.070  24.326  0.00  0.00    +0.000 A 
ATOM     19  C   UNL     1      -5.328  13.904  23.244  0.00  0.00    +0.000 A 
ATOM     20  S   UNL     1      -4.050  13.755  22.120  0.00  0.00    +0.000 S 
ENDBRANCH  13  16
ENDBRANCH   9  15
ENDBRANCH   8   9
ENDBRANCH   7   8
ENDBRANCH   1   7
BRANCH   4  21
ATOM     21  C   UNL     1       2.888   3.785  17.977  0.00  0.00    +0.000 C 
BRANCH  21  22
ATOM     22  N   UNL     1       3.322   2.741  18.908  0.00  0.00    +0.000 N 
ATOM     23  C   UNL     1       4.615   2.749  19.399  0.00  0.00    +0.000 C 
ATOM     24  N   UNL     1       5.011   1.578  19.972  0.00  0.00    +0.000 N 
ATOM     25  O   UNL     1       5.369   3.716  19.387  0.00  0.00    +0.000 OA
ATOM     26  H   UNL     1       4.324   0.867  20.167  0.00  0.00    +0.000 HD
ATOM     27  H   UNL     1       5.900   1.567  20.450  0.00  0.00    +0.000 HD
BRANCH  22  28
ATOM     28  O   UNL     1       2.840   1.448  18.554  0.00  0.00    +0.000 OA
ATOM     29  H   UNL     1       3.562   1.145  17.974  0.00  0.00    +0.000 HD
ENDBRANCH  22  28
ENDBRANCH  21  22
ENDBRANCH   4  21
TORSDOF 8
ENDMDL
MODEL 8
REMARK VINA RESULT:      -7.4      5.435      7.886
REMARK  Name = 
REMARK  9 active torsions:
REMARK  status: ('A' for Active; 'I' for Inactive)
REMARK    1  A    between atoms: C_1  and  C_2
REMARK    2  A    between atoms: C_4  and  C_5
REMARK    3  A    between atoms: C_11  and  C_12
REMARK    4  A    between atoms: C_12  and  C_13
REMARK    5  A    between atoms: C_13  and  O_14
REMARK    6  A    between atoms: O_14  and  C_15
REMARK    7  A    between atoms: C_18  and  C_19
REMARK    8  A    between atoms: C_19  and  N_20
REMARK    9  A    between atoms: N_20  and  O_21
REMARK                            x       y       z     vdW  Elec       q    Type
REMARK                         _______ _______ _______ _____ _____    ______ ____
ROOT
ATOM      1  C   UNL     1       2.595   7.671  18.628  0.00  0.00    +0.000 A 
ATOM      2  C   UNL     1       2.271   7.368  19.951  0.00  0.00    +0.000 A 
ATOM      3  C   UNL     1       1.359   8.160  20.664  0.00  0.00    +0.000 A 
ATOM      4  C   UNL     1       0.759   9.282  20.071  0.00  0.00    +0.000 A 
ATOM      5  C   UNL     1       1.087   9.577  18.742  0.00  0.00    +0.000 A 
ATOM      6  C   UNL     1       2.003   8.789  18.033  0.00  0.00    +0.000 A 
ENDROOT
BRANCH   1   7
ATOM      7  O   UNL     1       3.504   6.835  18.022  0.00  0.00    +0.000 OA
BRANCH   7   8
ATOM      8  C   UNL     1       3.789   5.633  18.750  0.00  0.00    +0.000 C 
BRANCH   8   9
ATOM      9  C   UNL     1       5.297   5.429  18.933  0.00  0.00    +0.000 C 
BRANCH   9  15
ATOM     10  C   UNL     1       7.808   7.513  17.973  0.00  0.00    +0.000 C 
ATOM     11  C   UNL     1       7.052   6.449  17.294  0.00  0.00    +0.000 A 
ATOM     12  O   UNL     1       7.389   6.197  15.995  0.00  0.00    +0.000 OA
ATOM     13  C   UNL     1       6.542   5.191  15.592  0.00  0.00    +0.000 A 
ATOM     14  N   UNL     1       5.716   4.807  16.544  0.00  0.00    +0.000 NA
ATOM     15  C   UNL     1       6.029   5.590  17.641  0.00  0.00    +0.000 A 
BRANCH  13  16
ATOM     16  C   UNL     1       6.555   4.627  14.267  0.00  0.00    +0.000 A 
ATOM     17  C   UNL     1       5.628   3.761  13.717  0.00  0.00    +0.000 A 
ATOM     18  C   UNL     1       5.939   3.410  12.368  0.00  0.00    +0.000 A 
ATOM     19  C   UNL     1       7.097   4.014  11.936  0.00  0.00    +0.000 A 
ATOM     20  S   UNL     1       7.799   4.994  13.148  0.00  0.00    +0.000 S 
ENDBRANCH  13  16
ENDBRANCH   9  15
ENDBRANCH   8   9
ENDBRANCH   7   8
ENDBRANCH   1   7
BRANCH   4  21
ATOM     21  C   UNL     1      -0.234  10.127  20.844  0.00  0.00    +0.000 C 
BRANCH  21  22
ATOM     22  N   UNL     1       0.070  11.560  20.816  0.00  0.00    +0.000 N 
ATOM     23  C   UNL     1      -0.464  12.358  19.820  0.00  0.00    +0.000 C 
ATOM     24  N   UNL     1       0.136  13.574  19.686  0.00  0.00    +0.000 N 
ATOM     25  O   UNL     1      -1.426  12.064  19.118  0.00  0.00    +0.000 OA
ATOM     26  H   UNL     1       0.776  13.889  20.397  0.00  0.00    +0.000 HD
ATOM     27  H   UNL     1      -0.289  14.239  19.057  0.00  0.00    +0.000 HD
BRANCH  22  28
ATOM     28  O   UNL     1       1.431  11.844  21.124  0.00  0.00    +0.000 OA
ATOM     29  H   UNL     1       1.870  11.087  20.696  0.00  0.00    +0.000 HD
ENDBRANCH  22  28
ENDBRANCH  21  22
ENDBRANCH   4  21
TORSDOF 8
ENDMDL
MODEL 9
REMARK VINA RESULT:      -7.4      6.663      9.361
REMARK  Name = 
REMARK  9 active torsions:
REMARK  status: ('A' for Active; 'I' for Inactive)
REMARK    1  A    between atoms: C_1  and  C_2
REMARK    2  A    between atoms: C_4  and  C_5
REMARK    3  A    between atoms: C_11  and  C_12
REMARK    4  A    between atoms: C_12  and  C_13
REMARK    5  A    between atoms: C_13  and  O_14
REMARK    6  A    between atoms: O_14  and  C_15
REMARK    7  A    between atoms: C_18  and  C_19
REMARK    8  A    between atoms: C_19  and  N_20
REMARK    9  A    between atoms: N_20  and  O_21
REMARK                            x       y       z     vdW  Elec       q    Type
REMARK                         _______ _______ _______ _____ _____    ______ ____
ROOT
ATOM      1  C   UNL     1       2.233   7.834  19.093  0.00  0.00    +0.000 A 
ATOM      2  C   UNL     1       2.934   8.168  17.934  0.00  0.00    +0.000 A 
ATOM      3  C   UNL     1       3.749   7.223  17.293  0.00  0.00    +0.000 A 
ATOM      4  C   UNL     1       3.889   5.924  17.807  0.00  0.00    +0.000 A 
ATOM      5  C   UNL     1       3.180   5.597  18.968  0.00  0.00    +0.000 A 
ATOM      6  C   UNL     1       2.372   6.544  19.611  0.00  0.00    +0.000 A 
ENDROOT
BRANCH   1   7
ATOM      7  O   UNL     1       1.468   8.836  19.646  0.00  0.00    +0.000 OA
BRANCH   7   8
ATOM      8  C   UNL     1       1.276   8.729  21.062  0.00  0.00    +0.000 C 
BRANCH   8   9
ATOM      9  C   UNL     1       0.017   9.475  21.519  0.00  0.00    +0.000 C 
BRANCH   9  15
ATOM     10  C   UNL     1       0.582  12.755  20.812  0.00  0.00    +0.000 C 
ATOM     11  C   UNL     1      -0.241  11.705  20.189  0.00  0.00    +0.000 A 
ATOM     12  O   UNL     1      -0.954  12.067  19.082  0.00  0.00    +0.000 OA
ATOM     13  C   UNL     1      -1.638  10.935  18.708  0.00  0.00    +0.000 A 
ATOM     14  N   UNL     1      -1.397   9.908  19.498  0.00  0.00    +0.000 NA
ATOM     15  C   UNL     1      -0.502  10.375  20.445  0.00  0.00    +0.000 A 
BRANCH  13  16
ATOM     16  C   UNL     1      -2.528  10.883  17.578  0.00  0.00    +0.000 A 
ATOM     17  C   UNL     1      -2.322  10.226  16.378  0.00  0.00    +0.000 A 
ATOM     18  C   UNL     1      -3.422  10.368  15.479  0.00  0.00    +0.000 A 
ATOM     19  C   UNL     1      -4.429  11.135  16.019  0.00  0.00    +0.000 A 
ATOM     20  S   UNL     1      -4.047  11.676  17.595  0.00  0.00    +0.000 S 
ENDBRANCH  13  16
ENDBRANCH   9  15
ENDBRANCH   8   9
ENDBRANCH   7   8
ENDBRANCH   1   7
BRANCH   4  21
ATOM     21  C   UNL     1       4.763   4.905  17.103  0.00  0.00    +0.000 C 
BRANCH  21  22
ATOM     22  N   UNL     1       6.022   4.633  17.800  0.00  0.00    +0.000 N 
ATOM     23  C   UNL     1       7.222   4.730  17.119  0.00  0.00    +0.000 C 
ATOM     24  N   UNL     1       8.280   4.142  17.746  0.00  0.00    +0.000 N 
ATOM     25  O   UNL     1       7.387   5.324  16.058  0.00  0.00    +0.000 OA
ATOM     26  H   UNL     1       8.182   3.847  18.705  0.00  0.00    +0.000 HD
ATOM     27  H   UNL     1       9.197   4.286  17.352  0.00  0.00    +0.000 HD
BRANCH  22  28
ATOM     28  O   UNL     1       5.939   3.515  18.679  0.00  0.00    +0.000 OA
ATOM     29  H   UNL     1       5.007   3.261  18.552  0.00  0.00    +0.000 HD
ENDBRANCH  22  28
ENDBRANCH  21  22
ENDBRANCH   4  21
TORSDOF 8
ENDMDL
