MODEL 1
REMARK VINA RESULT:      -5.9      0.000      0.000
REMARK  Name = 
REMARK  21 active torsions:
REMARK  status: ('A' for Active; 'I' for Inactive)
REMARK    1  A    between atoms: C_1  and  C_2
REMARK    2  A    between atoms: C_2  and  C_3
REMARK    3  A    between atoms: C_3  and  C_4
REMARK    4  A    between atoms: C_4  and  C_5
REMARK    5  A    between atoms: C_5  and  C_6
REMARK    6  A    between atoms: C_6  and  C_7
REMARK    7  A    between atoms: C_7  and  C_8
REMARK    8  A    between atoms: C_8  and  C_9
REMARK    9  A    between atoms: C_9  and  C_10
REMARK   10  A    between atoms: C_10  and  C_11
REMARK   11  A    between atoms: C_11  and  C_12
REMARK   12  A    between atoms: C_12  and  C_13
REMARK   13  A    between atoms: C_13  and  C_14
REMARK   14  A    between atoms: C_14  and  C_15
REMARK   15  A    between atoms: C_18  and  C_19
REMARK   16  A    between atoms: C_19  and  O_20
REMARK   17  A    between atoms: O_20  and  P_21
REMARK   18  A    between atoms: P_21  and  O_24
REMARK   19  A    between atoms: O_24  and  C_25
REMARK   20  A    between atoms: C_25  and  C_26
REMARK   21  A    between atoms: C_26  and  N_27
REMARK                            x       y       z     vdW  Elec       q    Type
REMARK                         _______ _______ _______ _____ _____    ______ ____
ROOT
ATOM      1  C   UNL     1       1.638   7.858  19.066  0.00  0.00    +0.000 C 
ATOM      2  C   UNL     1       2.309   6.800  19.928  0.00  0.00    +0.000 C 
ATOM      3  O   UNL     1       3.101   5.967  19.072  0.00  0.00    +0.000 OA
ATOM      4  C   UNL     1       3.323   6.640  17.826  0.00  0.00    +0.000 C 
ATOM      5  C   UNL     1       2.624   8.006  17.930  0.00  0.00    +0.000 C 
ENDROOT
BRANCH   4   6
ATOM      6  C   UNL     1       4.808   6.904  17.596  0.00  0.00    +0.000 C 
BRANCH   6   7
ATOM      7  O   UNL     1       5.475   6.296  16.489  0.00  0.00    +0.000 OA
BRANCH   7   8
ATOM      8  P   UNL     1       6.235   4.933  17.049  0.00  0.00    +0.000 P 
ATOM      9  O   UNL     1       7.587   4.867  16.391  0.00  0.00    +0.000 OA
ATOM     10  O   UNL     1       6.113   4.982  18.555  0.00  0.00    +0.000 OA
BRANCH   8  11
ATOM     11  O   UNL     1       5.347   3.693  16.437  0.00  0.00    +0.000 OA
BRANCH  11  12
ATOM     12  C   UNL     1       4.044   3.431  16.972  0.00  0.00    +0.000 C 
BRANCH  12  13
ATOM     13  C   UNL     1       3.951   2.371  18.090  0.00  0.00    +0.000 C 
BRANCH  13  14
ATOM     14  N   UNL     1       2.925   2.663  19.091  0.00  0.00    +0.000 N 
ATOM     15  C   UNL     1       1.597   2.839  18.744  0.00  0.00    +0.000 A 
ATOM     16  C   UNL     1       0.811   3.090  19.843  0.00  0.00    +0.000 A 
ATOM     17  S   UNL     1       1.750   3.033  21.279  0.00  0.00    +0.000 S 
ATOM     18  C   UNL     1       3.173   2.680  20.391  0.00  0.00    +0.000 A 
ENDBRANCH  13  14
ENDBRANCH  12  13
ENDBRANCH  11  12
ENDBRANCH   8  11
ENDBRANCH   7   8
ENDBRANCH   6   7
ENDBRANCH   4   6
BRANCH   1  19
ATOM     19  C   UNL     1       1.360   9.179  19.806  0.00  0.00    +0.000 C 
BRANCH  19  20
ATOM     20  C   UNL     1       0.419   8.979  20.998  0.00  0.00    +0.000 C 
BRANCH  20  21
ATOM     21  C   UNL     1       0.813   9.809  22.222  0.00  0.00    +0.000 C 
BRANCH  21  22
ATOM     22  C   UNL     1      -0.327   9.797  23.243  0.00  0.00    +0.000 C 
BRANCH  22  23
ATOM     23  C   UNL     1      -1.282  10.973  23.061  0.00  0.00    +0.000 C 
BRANCH  23  24
ATOM     24  C   UNL     1      -0.589  12.107  22.298  0.00  0.00    +0.000 C 
BRANCH  24  25
ATOM     25  C   UNL     1      -1.620  12.971  21.565  0.00  0.00    +0.000 C 
BRANCH  25  26
ATOM     26  C   UNL     1      -1.391  12.941  20.056  0.00  0.00    +0.000 C 
BRANCH  26  27
ATOM     27  C   UNL     1      -1.583  11.529  19.513  0.00  0.00    +0.000 C 
BRANCH  27  28
ATOM     28  C   UNL     1      -1.583  11.521  17.988  0.00  0.00    +0.000 C 
BRANCH  28  29
ATOM     29  C   UNL     1      -1.736  10.100  17.452  0.00  0.00    +0.000 C 
BRANCH  29  30
ATOM     30  C   UNL     1      -3.038   9.949  16.670  0.00  0.00    +0.000 C 
BRANCH  30  32
ATOM     31  C   UNL     1      -5.108  11.118  17.483  0.00  0.00    +0.000 C 
ATOM     32  C   UNL     1      -3.833  11.253  16.668  0.00  0.00    +0.000 C 
ENDBRANCH  30  32
ENDBRANCH  29  30
ENDBRANCH  28  29
ENDBRANCH  27  28
ENDBRANCH  26  27
ENDBRANCH  25  26
ENDBRANCH  24  25
ENDBRANCH  23  24
ENDBRANCH  22  23
ENDBRANCH  21  22
ENDBRANCH  20  21
ENDBRANCH  19  20
ENDBRANCH   1  19
TORSDOF 20
ENDMDL
MODEL 2
REMARK VINA RESULT:      -5.8      1.251      3.534
REMARK  Name = 
REMARK  21 active torsions:
REMARK  status: ('A' for Active; 'I' for Inactive)
REMARK    1  A    between atoms: C_1  and  C_2
REMARK    2  A    between atoms: C_2  and  C_3
REMARK    3  A    between atoms: C_3  and  C_4
REMARK    4  A    between atoms: C_4  and  C_5
REMARK    5  A    between atoms: C_5  and  C_6
REMARK    6  A    between atoms: C_6  and  C_7
REMARK    7  A    between atoms: C_7  and  C_8
REMARK    8  A    between atoms: C_8  and  C_9
REMARK    9  A    between atoms: C_9  and  C_10
REMARK   10  A    between atoms: C_10  and  C_11
REMARK   11  A    between atoms: C_11  and  C_12
REMARK   12  A    between atoms: C_12  and  C_13
REMARK   13  A    between atoms: C_13  and  C_14
REMARK   14  A    between atoms: C_14  and  C_15
REMARK   15  A    between atoms: C_18  and  C_19
REMARK   16  A    between atoms: C_19  and  O_20
REMARK   17  A    between atoms: O_20  and  P_21
REMARK   18  A    between atoms: P_21  and  O_24
REMARK   19  A    between atoms: O_24  and  C_25
REMARK   20  A    between atoms: C_25  and  C_26
REMARK   21  A    between atoms: C_26  and  N_27
REMARK                            x       y       z     vdW  Elec       q    Type
REMARK                         _______ _______ _______ _____ _____    ______ ____
ROOT
ATOM      1  C   UNL     1       1.261   8.656  18.954  0.00  0.00    +0.000 C 
ATOM      2  C   UNL     1       2.015   7.869  20.015  0.00  0.00    +0.000 C 
ATOM      3  O   UNL     1       2.731   6.814  19.360  0.00  0.00    +0.000 OA
ATOM      4  C   UNL     1       2.834   7.107  17.960  0.00  0.00    +0.000 C 
ATOM      5  C   UNL     1       2.138   8.461  17.739  0.00  0.00    +0.000 C 
ENDROOT
BRANCH   4   6
ATOM      6  C   UNL     1       4.290   7.267  17.533  0.00  0.00    +0.000 C 
BRANCH   6   7
ATOM      7  O   UNL     1       4.806   6.483  16.457  0.00  0.00    +0.000 OA
BRANCH   7   8
ATOM      8  P   UNL     1       6.297   5.922  16.915  0.00  0.00    +0.000 P 
ATOM      9  O   UNL     1       7.165   5.893  15.686  0.00  0.00    +0.000 OA
ATOM     10  O   UNL     1       6.694   6.744  18.120  0.00  0.00    +0.000 OA
BRANCH   8  11
ATOM     11  O   UNL     1       6.027   4.359  17.344  0.00  0.00    +0.000 OA
BRANCH  11  12
ATOM     12  C   UNL     1       5.133   4.072  18.426  0.00  0.00    +0.000 C 
BRANCH  12  13
ATOM     13  C   UNL     1       3.784   3.419  18.060  0.00  0.00    +0.000 C 
BRANCH  13  14
ATOM     14  N   UNL     1       2.851   3.329  19.183  0.00  0.00    +0.000 N 
ATOM     15  C   UNL     1       1.511   3.646  19.046  0.00  0.00    +0.000 A 
ATOM     16  C   UNL     1       0.823   3.477  20.224  0.00  0.00    +0.000 A 
ATOM     17  S   UNL     1       1.864   2.869  21.445  0.00  0.00    +0.000 S 
ATOM     18  C   UNL     1       3.198   2.853  20.368  0.00  0.00    +0.000 A 
ENDBRANCH  13  14
ENDBRANCH  12  13
ENDBRANCH  11  12
ENDBRANCH   8  11
ENDBRANCH   7   8
ENDBRANCH   6   7
ENDBRANCH   4   6
BRANCH   1  19
ATOM     19  C   UNL     1       1.043  10.136  19.315  0.00  0.00    +0.000 C 
BRANCH  19  20
ATOM     20  C   UNL     1      -0.444  10.480  19.442  0.00  0.00    +0.000 C 
BRANCH  20  21
ATOM     21  C   UNL     1      -1.099  10.821  18.101  0.00  0.00    +0.000 C 
BRANCH  21  22
ATOM     22  C   UNL     1      -2.253   9.852  17.829  0.00  0.00    +0.000 C 
BRANCH  22  23
ATOM     23  C   UNL     1      -3.016  10.203  16.555  0.00  0.00    +0.000 C 
BRANCH  23  24
ATOM     24  C   UNL     1      -4.031  11.316  16.833  0.00  0.00    +0.000 C 
BRANCH  24  25
ATOM     25  C   UNL     1      -4.889  10.970  18.054  0.00  0.00    +0.000 C 
BRANCH  25  26
ATOM     26  C   UNL     1      -5.188  12.213  18.887  0.00  0.00    +0.000 C 
BRANCH  26  27
ATOM     27  C   UNL     1      -4.087  12.447  19.917  0.00  0.00    +0.000 C 
BRANCH  27  28
ATOM     28  C   UNL     1      -4.404  13.650  20.798  0.00  0.00    +0.000 C 
BRANCH  28  29
ATOM     29  C   UNL     1      -3.190  14.045  21.635  0.00  0.00    +0.000 C 
BRANCH  29  30
ATOM     30  C   UNL     1      -2.136  12.941  21.620  0.00  0.00    +0.000 C 
BRANCH  30  32
ATOM     31  C   UNL     1      -1.250  11.012  22.962  0.00  0.00    +0.000 C 
ATOM     32  C   UNL     1      -1.904  12.382  23.021  0.00  0.00    +0.000 C 
ENDBRANCH  30  32
ENDBRANCH  29  30
ENDBRANCH  28  29
ENDBRANCH  27  28
ENDBRANCH  26  27
ENDBRANCH  25  26
ENDBRANCH  24  25
ENDBRANCH  23  24
ENDBRANCH  22  23
ENDBRANCH  21  22
ENDBRANCH  20  21
ENDBRANCH  19  20
ENDBRANCH   1  19
TORSDOF 20
ENDMDL
MODEL 3
REMARK VINA RESULT:      -5.7      5.124      9.587
REMARK  Name = 
REMARK  21 active torsions:
REMARK  status: ('A' for Active; 'I' for Inactive)
REMARK    1  A    between atoms: C_1  and  C_2
REMARK    2  A    between atoms: C_2  and  C_3
REMARK    3  A    between atoms: C_3  and  C_4
REMARK    4  A    between atoms: C_4  and  C_5
REMARK    5  A    between atoms: C_5  and  C_6
REMARK    6  A    between atoms: C_6  and  C_7
REMARK    7  A    between atoms: C_7  and  C_8
REMARK    8  A    between atoms: C_8  and  C_9
REMARK    9  A    between atoms: C_9  and  C_10
REMARK   10  A    between atoms: C_10  and  C_11
REMARK   11  A    between atoms: C_11  and  C_12
REMARK   12  A    between atoms: C_12  and  C_13
REMARK   13  A    between atoms: C_13  and  C_14
REMARK   14  A    between atoms: C_14  and  C_15
REMARK   15  A    between atoms: C_18  and  C_19
REMARK   16  A    between atoms: C_19  and  O_20
REMARK   17  A    between atoms: O_20  and  P_21
REMARK   18  A    between atoms: P_21  and  O_24
REMARK   19  A    between atoms: O_24  and  C_25
REMARK   20  A    between atoms: C_25  and  C_26
REMARK   21  A    between atoms: C_26  and  N_27
REMARK                            x       y       z     vdW  Elec       q    Type
REMARK                         _______ _______ _______ _____ _____    ______ ____
ROOT
ATOM      1  C   UNL     1       2.332   6.836  20.011  0.00  0.00    +0.000 C 
ATOM      2  C   UNL     1       1.410   7.548  20.989  0.00  0.00    +0.000 C 
ATOM      3  O   UNL     1       1.422   8.946  20.673  0.00  0.00    +0.000 OA
ATOM      4  C   UNL     1       1.932   9.129  19.346  0.00  0.00    +0.000 C 
ATOM      5  C   UNL     1       2.243   7.727  18.794  0.00  0.00    +0.000 C 
ENDROOT
BRANCH   4   6
ATOM      6  C   UNL     1       0.883   9.756  18.431  0.00  0.00    +0.000 C 
BRANCH   6   7
ATOM      7  O   UNL     1       0.883  11.167  18.213  0.00  0.00    +0.000 OA
BRANCH   7   8
ATOM      8  P   UNL     1      -0.486  11.783  18.919  0.00  0.00    +0.000 P 
ATOM      9  O   UNL     1      -1.119  12.724  17.929  0.00  0.00    +0.000 OA
ATOM     10  O   UNL     1      -1.250  10.590  19.446  0.00  0.00    +0.000 OA
BRANCH   8  11
ATOM     11  O   UNL     1       0.077  12.703  20.158  0.00  0.00    +0.000 OA
BRANCH  11  12
ATOM     12  C   UNL     1       1.476  12.689  20.465  0.00  0.00    +0.000 C 
BRANCH  12  13
ATOM     13  C   UNL     1       2.118  14.038  20.852  0.00  0.00    +0.000 C 
BRANCH  13  14
ATOM     14  N   UNL     1       2.879  14.657  19.766  0.00  0.00    +0.000 N 
ATOM     15  C   UNL     1       4.238  14.891  19.869  0.00  0.00    +0.000 A 
ATOM     16  C   UNL     1       4.746  15.468  18.729  0.00  0.00    +0.000 A 
ATOM     17  S   UNL     1       3.516  15.639  17.545  0.00  0.00    +0.000 S 
ATOM     18  C   UNL     1       2.347  14.944  18.588  0.00  0.00    +0.000 A 
ENDBRANCH  13  14
ENDBRANCH  12  13
ENDBRANCH  11  12
ENDBRANCH   8  11
ENDBRANCH   7   8
ENDBRANCH   6   7
ENDBRANCH   4   6
BRANCH   1  19
ATOM     19  C   UNL     1       1.930   5.377  19.727  0.00  0.00    +0.000 C 
BRANCH  19  20
ATOM     20  C   UNL     1       2.064   4.496  20.973  0.00  0.00    +0.000 C 
BRANCH  20  21
ATOM     21  C   UNL     1       1.210   3.227  20.906  0.00  0.00    +0.000 C 
BRANCH  21  22
ATOM     22  C   UNL     1       0.904   2.886  19.445  0.00  0.00    +0.000 C 
BRANCH  22  23
ATOM     23  C   UNL     1       1.880   1.864  18.872  0.00  0.00    +0.000 C 
BRANCH  23  24
ATOM     24  C   UNL     1       2.703   2.489  17.741  0.00  0.00    +0.000 C 
BRANCH  24  25
ATOM     25  C   UNL     1       4.085   2.911  18.250  0.00  0.00    +0.000 C 
BRANCH  25  26
ATOM     26  C   UNL     1       4.835   3.724  17.198  0.00  0.00    +0.000 C 
BRANCH  26  27
ATOM     27  C   UNL     1       4.027   4.952  16.792  0.00  0.00    +0.000 C 
BRANCH  27  28
ATOM     28  C   UNL     1       4.937   6.074  16.305  0.00  0.00    +0.000 C 
BRANCH  28  29
ATOM     29  C   UNL     1       5.568   6.812  17.483  0.00  0.00    +0.000 C 
BRANCH  29  30
ATOM     30  C   UNL     1       7.090   6.822  17.368  0.00  0.00    +0.000 C 
BRANCH  30  32
ATOM     31  C   UNL     1       7.143   5.545  19.531  0.00  0.00    +0.000 C 
ATOM     32  C   UNL     1       7.707   5.647  18.123  0.00  0.00    +0.000 C 
ENDBRANCH  30  32
ENDBRANCH  29  30
ENDBRANCH  28  29
ENDBRANCH  27  28
ENDBRANCH  26  27
ENDBRANCH  25  26
ENDBRANCH  24  25
ENDBRANCH  23  24
ENDBRANCH  22  23
ENDBRANCH  21  22
ENDBRANCH  20  21
ENDBRANCH  19  20
ENDBRANCH   1  19
TORSDOF 20
ENDMDL
MODEL 4
REMARK VINA RESULT:      -5.7      4.835      8.722
REMARK  Name = 
REMARK  21 active torsions:
REMARK  status: ('A' for Active; 'I' for Inactive)
REMARK    1  A    between atoms: C_1  and  C_2
REMARK    2  A    between atoms: C_2  and  C_3
REMARK    3  A    between atoms: C_3  and  C_4
REMARK    4  A    between atoms: C_4  and  C_5
REMARK    5  A    between atoms: C_5  and  C_6
REMARK    6  A    between atoms: C_6  and  C_7
REMARK    7  A    between atoms: C_7  and  C_8
REMARK    8  A    between atoms: C_8  and  C_9
REMARK    9  A    between atoms: C_9  and  C_10
REMARK   10  A    between atoms: C_10  and  C_11
REMARK   11  A    between atoms: C_11  and  C_12
REMARK   12  A    between atoms: C_12  and  C_13
REMARK   13  A    between atoms: C_13  and  C_14
REMARK   14  A    between atoms: C_14  and  C_15
REMARK   15  A    between atoms: C_18  and  C_19
REMARK   16  A    between atoms: C_19  and  O_20
REMARK   17  A    between atoms: O_20  and  P_21
REMARK   18  A    between atoms: P_21  and  O_24
REMARK   19  A    between atoms: O_24  and  C_25
REMARK   20  A    between atoms: C_25  and  C_26
REMARK   21  A    between atoms: C_26  and  N_27
REMARK                            x       y       z     vdW  Elec       q    Type
REMARK                         _______ _______ _______ _____ _____    ______ ____
ROOT
ATOM      1  C   UNL     1       3.859   4.642  17.523  0.00  0.00    +0.000 C 
ATOM      2  C   UNL     1       2.360   4.883  17.430  0.00  0.00    +0.000 C 
ATOM      3  O   UNL     1       1.713   3.609  17.315  0.00  0.00    +0.000 OA
ATOM      4  C   UNL     1       2.614   2.578  17.739  0.00  0.00    +0.000 C 
ATOM      5  C   UNL     1       3.917   3.276  18.166  0.00  0.00    +0.000 C 
ENDROOT
BRANCH   4   6
ATOM      6  C   UNL     1       2.073   1.837  18.958  0.00  0.00    +0.000 C 
BRANCH   6   7
ATOM      7  O   UNL     1       2.614   2.107  20.252  0.00  0.00    +0.000 OA
BRANCH   7   8
ATOM      8  P   UNL     1       1.570   3.135  21.028  0.00  0.00    +0.000 P 
ATOM      9  O   UNL     1       0.338   3.257  20.172  0.00  0.00    +0.000 OA
ATOM     10  O   UNL     1       1.474   2.629  22.449  0.00  0.00    +0.000 OA
BRANCH   8  11
ATOM     11  O   UNL     1       2.328   4.592  20.983  0.00  0.00    +0.000 OA
BRANCH  11  12
ATOM     12  C   UNL     1       1.598   5.751  20.562  0.00  0.00    +0.000 C 
BRANCH  12  13
ATOM     13  C   UNL     1       2.323   7.109  20.677  0.00  0.00    +0.000 C 
BRANCH  13  14
ATOM     14  N   UNL     1       1.729   8.162  19.853  0.00  0.00    +0.000 N 
ATOM     15  C   UNL     1       2.057   8.315  18.518  0.00  0.00    +0.000 A 
ATOM     16  C   UNL     1       1.371   9.357  17.940  0.00  0.00    +0.000 A 
ATOM     17  S   UNL     1       0.294  10.067  19.071  0.00  0.00    +0.000 S 
ATOM     18  C   UNL     1       0.777   8.968  20.295  0.00  0.00    +0.000 A 
ENDBRANCH  13  14
ENDBRANCH  12  13
ENDBRANCH  11  12
ENDBRANCH   8  11
ENDBRANCH   7   8
ENDBRANCH   6   7
ENDBRANCH   4   6
BRANCH   1  19
ATOM     19  C   UNL     1       4.614   5.722  18.321  0.00  0.00    +0.000 C 
BRANCH  19  20
ATOM     20  C   UNL     1       5.618   5.110  19.302  0.00  0.00    +0.000 C 
BRANCH  20  21
ATOM     21  C   UNL     1       7.029   5.686  19.156  0.00  0.00    +0.000 C 
BRANCH  21  22
ATOM     22  C   UNL     1       7.566   5.390  17.753  0.00  0.00    +0.000 C 
BRANCH  22  23
ATOM     23  C   UNL     1       7.642   6.642  16.886  0.00  0.00    +0.000 C 
BRANCH  23  24
ATOM     24  C   UNL     1       7.300   7.885  17.714  0.00  0.00    +0.000 C 
BRANCH  24  25
ATOM     25  C   UNL     1       8.535   8.385  18.471  0.00  0.00    +0.000 C 
BRANCH  25  26
ATOM     26  C   UNL     1       8.768   9.872  18.223  0.00  0.00    +0.000 C 
BRANCH  26  27
ATOM     27  C   UNL     1       9.456  10.515  19.423  0.00  0.00    +0.000 C 
BRANCH  27  28
ATOM     28  C   UNL     1      10.367  11.658  18.990  0.00  0.00    +0.000 C 
BRANCH  28  29
ATOM     29  C   UNL     1      10.955  12.374  20.203  0.00  0.00    +0.000 C 
BRANCH  29  30
ATOM     30  C   UNL     1       9.849  12.923  21.101  0.00  0.00    +0.000 C 
BRANCH  30  32
ATOM     31  C   UNL     1       9.082  15.304  21.321  0.00  0.00    +0.000 C 
ATOM     32  C   UNL     1      10.199  14.317  21.615  0.00  0.00    +0.000 C 
ENDBRANCH  30  32
ENDBRANCH  29  30
ENDBRANCH  28  29
ENDBRANCH  27  28
ENDBRANCH  26  27
ENDBRANCH  25  26
ENDBRANCH  24  25
ENDBRANCH  23  24
ENDBRANCH  22  23
ENDBRANCH  21  22
ENDBRANCH  20  21
ENDBRANCH  19  20
ENDBRANCH   1  19
TORSDOF 20
ENDMDL
MODEL 5
REMARK VINA RESULT:      -5.7      6.527     11.112
REMARK  Name = 
REMARK  21 active torsions:
REMARK  status: ('A' for Active; 'I' for Inactive)
REMARK    1  A    between atoms: C_1  and  C_2
REMARK    2  A    between atoms: C_2  and  C_3
REMARK    3  A    between atoms: C_3  and  C_4
REMARK    4  A    between atoms: C_4  and  C_5
REMARK    5  A    between atoms: C_5  and  C_6
REMARK    6  A    between atoms: C_6  and  C_7
REMARK    7  A    between atoms: C_7  and  C_8
REMARK    8  A    between atoms: C_8  and  C_9
REMARK    9  A    between atoms: C_9  and  C_10
REMARK   10  A    between atoms: C_10  and  C_11
REMARK   11  A    between atoms: C_11  and  C_12
REMARK   12  A    between atoms: C_12  and  C_13
REMARK   13  A    between atoms: C_13  and  C_14
REMARK   14  A    between atoms: C_14  and  C_15
REMARK   15  A    between atoms: C_18  and  C_19
REMARK   16  A    between atoms: C_19  and  O_20
REMARK   17  A    between atoms: O_20  and  P_21
REMARK   18  A    between atoms: P_21  and  O_24
REMARK   19  A    between atoms: O_24  and  C_25
REMARK   20  A    between atoms: C_25  and  C_26
REMARK   21  A    between atoms: C_26  and  N_27
REMARK                            x       y       z     vdW  Elec       q    Type
REMARK                         _______ _______ _______ _____ _____    ______ ____
ROOT
ATOM      1  C   UNL     1       0.241  10.158  21.116  0.00  0.00    +0.000 C 
ATOM      2  C   UNL     1      -0.339   9.198  22.144  0.00  0.00    +0.000 C 
ATOM      3  O   UNL     1      -0.794   9.968  23.264  0.00  0.00    +0.000 OA
ATOM      4  C   UNL     1      -0.934  11.340  22.872  0.00  0.00    +0.000 C 
ATOM      5  C   UNL     1      -0.550  11.417  21.384  0.00  0.00    +0.000 C 
ENDROOT
BRANCH   4   6
ATOM      6  C   UNL     1      -2.382  11.806  22.993  0.00  0.00    +0.000 C 
BRANCH   6   7
ATOM      7  O   UNL     1      -2.684  13.014  23.692  0.00  0.00    +0.000 OA
BRANCH   7   8
ATOM      8  P   UNL     1      -4.323  13.053  23.941  0.00  0.00    +0.000 P 
ATOM      9  O   UNL     1      -4.640  12.042  25.010  0.00  0.00    +0.000 OA
ATOM     10  O   UNL     1      -4.677  14.510  24.130  0.00  0.00    +0.000 OA
BRANCH   8  11
ATOM     11  O   UNL     1      -4.960  12.479  22.539  0.00  0.00    +0.000 OA
BRANCH  11  12
ATOM     12  C   UNL     1      -5.776  13.339  21.734  0.00  0.00    +0.000 C 
BRANCH  12  13
ATOM     13  C   UNL     1      -5.081  14.062  20.562  0.00  0.00    +0.000 C 
BRANCH  13  14
ATOM     14  N   UNL     1      -4.558  15.382  20.915  0.00  0.00    +0.000 N 
ATOM     15  C   UNL     1      -5.396  16.446  21.198  0.00  0.00    +0.000 A 
ATOM     16  C   UNL     1      -4.689  17.582  21.515  0.00  0.00    +0.000 A 
ATOM     17  S   UNL     1      -3.003  17.262  21.509  0.00  0.00    +0.000 S 
ATOM     18  C   UNL     1      -3.267  15.623  21.081  0.00  0.00    +0.000 A 
ENDBRANCH  13  14
ENDBRANCH  12  13
ENDBRANCH  11  12
ENDBRANCH   8  11
ENDBRANCH   7   8
ENDBRANCH   6   7
ENDBRANCH   4   6
BRANCH   1  19
ATOM     19  C   UNL     1       0.121   9.661  19.664  0.00  0.00    +0.000 C 
BRANCH  19  20
ATOM     20  C   UNL     1       0.897  10.553  18.690  0.00  0.00    +0.000 C 
BRANCH  20  21
ATOM     21  C   UNL     1       2.036   9.819  17.978  0.00  0.00    +0.000 C 
BRANCH  21  22
ATOM     22  C   UNL     1       2.019   8.338  18.368  0.00  0.00    +0.000 C 
BRANCH  22  23
ATOM     23  C   UNL     1       3.177   7.563  17.749  0.00  0.00    +0.000 C 
BRANCH  23  24
ATOM     24  C   UNL     1       3.274   6.166  18.369  0.00  0.00    +0.000 C 
BRANCH  24  25
ATOM     25  C   UNL     1       4.497   5.419  17.826  0.00  0.00    +0.000 C 
BRANCH  25  26
ATOM     26  C   UNL     1       4.169   3.955  17.546  0.00  0.00    +0.000 C 
BRANCH  26  27
ATOM     27  C   UNL     1       2.659   3.741  17.513  0.00  0.00    +0.000 C 
BRANCH  27  28
ATOM     28  C   UNL     1       2.281   2.395  18.123  0.00  0.00    +0.000 C 
BRANCH  28  29
ATOM     29  C   UNL     1       0.845   2.418  18.640  0.00  0.00    +0.000 C 
BRANCH  29  30
ATOM     30  C   UNL     1       0.693   3.418  19.784  0.00  0.00    +0.000 C 
BRANCH  30  32
ATOM     31  C   UNL     1       2.398   3.983  21.540  0.00  0.00    +0.000 C 
ATOM     32  C   UNL     1       1.420   2.935  21.037  0.00  0.00    +0.000 C 
ENDBRANCH  30  32
ENDBRANCH  29  30
ENDBRANCH  28  29
ENDBRANCH  27  28
ENDBRANCH  26  27
ENDBRANCH  25  26
ENDBRANCH  24  25
ENDBRANCH  23  24
ENDBRANCH  22  23
ENDBRANCH  21  22
ENDBRANCH  20  21
ENDBRANCH  19  20
ENDBRANCH   1  19
TORSDOF 20
ENDMDL
MODEL 6
REMARK VINA RESULT:      -5.6      5.191      9.966
REMARK  Name = 
REMARK  21 active torsions:
REMARK  status: ('A' for Active; 'I' for Inactive)
REMARK    1  A    between atoms: C_1  and  C_2
REMARK    2  A    between atoms: C_2  and  C_3
REMARK    3  A    between atoms: C_3  and  C_4
REMARK    4  A    between atoms: C_4  and  C_5
REMARK    5  A    between atoms: C_5  and  C_6
REMARK    6  A    between atoms: C_6  and  C_7
REMARK    7  A    between atoms: C_7  and  C_8
REMARK    8  A    between atoms: C_8  and  C_9
REMARK    9  A    between atoms: C_9  and  C_10
REMARK   10  A    between atoms: C_10  and  C_11
REMARK   11  A    between atoms: C_11  and  C_12
REMARK   12  A    between atoms: C_12  and  C_13
REMARK   13  A    between atoms: C_13  and  C_14
REMARK   14  A    between atoms: C_14  and  C_15
REMARK   15  A    between atoms: C_18  and  C_19
REMARK   16  A    between atoms: C_19  and  O_20
REMARK   17  A    between atoms: O_20  and  P_21
REMARK   18  A    between atoms: P_21  and  O_24
REMARK   19  A    between atoms: O_24  and  C_25
REMARK   20  A    between atoms: C_25  and  C_26
REMARK   21  A    between atoms: C_26  and  N_27
REMARK                            x       y       z     vdW  Elec       q    Type
REMARK                         _______ _______ _______ _____ _____    ______ ____
ROOT
ATOM      1  C   UNL     1       2.557   6.722  18.677  0.00  0.00    +0.000 C 
ATOM      2  C   UNL     1       1.994   6.883  20.081  0.00  0.00    +0.000 C 
ATOM      3  O   UNL     1       1.888   8.285  20.358  0.00  0.00    +0.000 OA
ATOM      4  C   UNL     1       1.937   9.018  19.128  0.00  0.00    +0.000 C 
ATOM      5  C   UNL     1       2.068   7.981  17.999  0.00  0.00    +0.000 C 
ENDROOT
BRANCH   4   6
ATOM      6  C   UNL     1       0.642   9.789  18.889  0.00  0.00    +0.000 C 
BRANCH   6   7
ATOM      7  O   UNL     1       0.690  11.110  18.350  0.00  0.00    +0.000 OA
BRANCH   7   8
ATOM      8  P   UNL     1       0.042  12.137  19.480  0.00  0.00    +0.000 P 
ATOM      9  O   UNL     1       0.926  12.084  20.697  0.00  0.00    +0.000 OA
ATOM     10  O   UNL     1      -0.200  13.443  18.759  0.00  0.00    +0.000 OA
BRANCH   8  11
ATOM     11  O   UNL     1      -1.383  11.433  19.896  0.00  0.00    +0.000 OA
BRANCH  11  12
ATOM     12  C   UNL     1      -2.581  11.809  19.205  0.00  0.00    +0.000 C 
BRANCH  12  13
ATOM     13  C   UNL     1      -3.658  12.544  20.029  0.00  0.00    +0.000 C 
BRANCH  13  14
ATOM     14  N   UNL     1      -5.025  12.276  19.579  0.00  0.00    +0.000 N 
ATOM     15  C   UNL     1      -6.041  11.981  20.470  0.00  0.00    +0.000 A 
ATOM     16  C   UNL     1      -7.240  11.778  19.829  0.00  0.00    +0.000 A 
ATOM     17  S   UNL     1      -7.066  12.026  18.140  0.00  0.00    +0.000 S 
ATOM     18  C   UNL     1      -5.401  12.391  18.315  0.00  0.00    +0.000 A 
ENDBRANCH  13  14
ENDBRANCH  12  13
ENDBRANCH  11  12
ENDBRANCH   8  11
ENDBRANCH   7   8
ENDBRANCH   6   7
ENDBRANCH   4   6
BRANCH   1  19
ATOM     19  C   UNL     1       2.101   5.433  17.968  0.00  0.00    +0.000 C 
BRANCH  19  20
ATOM     20  C   UNL     1       1.747   4.327  18.967  0.00  0.00    +0.000 C 
BRANCH  20  21
ATOM     21  C   UNL     1       2.938   3.434  19.323  0.00  0.00    +0.000 C 
BRANCH  21  22
ATOM     22  C   UNL     1       4.017   3.558  18.244  0.00  0.00    +0.000 C 
BRANCH  22  23
ATOM     23  C   UNL     1       5.322   4.126  18.793  0.00  0.00    +0.000 C 
BRANCH  23  24
ATOM     24  C   UNL     1       6.220   4.600  17.647  0.00  0.00    +0.000 C 
BRANCH  24  25
ATOM     25  C   UNL     1       5.384   5.262  16.546  0.00  0.00    +0.000 C 
BRANCH  25  26
ATOM     26  C   UNL     1       6.168   5.355  15.240  0.00  0.00    +0.000 C 
BRANCH  26  27
ATOM     27  C   UNL     1       6.225   3.996  14.550  0.00  0.00    +0.000 C 
BRANCH  27  28
ATOM     28  C   UNL     1       5.489   4.024  13.215  0.00  0.00    +0.000 C 
BRANCH  28  29
ATOM     29  C   UNL     1       6.113   3.039  12.230  0.00  0.00    +0.000 C 
BRANCH  29  30
ATOM     30  C   UNL     1       5.074   2.533  11.233  0.00  0.00    +0.000 C 
BRANCH  30  32
ATOM     31  C   UNL     1       3.247   3.765  10.027  0.00  0.00    +0.000 C 
ATOM     32  C   UNL     1       3.757   3.292  11.378  0.00  0.00    +0.000 C 
ENDBRANCH  30  32
ENDBRANCH  29  30
ENDBRANCH  28  29
ENDBRANCH  27  28
ENDBRANCH  26  27
ENDBRANCH  25  26
ENDBRANCH  24  25
ENDBRANCH  23  24
ENDBRANCH  22  23
ENDBRANCH  21  22
ENDBRANCH  20  21
ENDBRANCH  19  20
ENDBRANCH   1  19
TORSDOF 20
ENDMDL
MODEL 7
REMARK VINA RESULT:      -5.6      4.796      9.667
REMARK  Name = 
REMARK  21 active torsions:
REMARK  status: ('A' for Active; 'I' for Inactive)
REMARK    1  A    between atoms: C_1  and  C_2
REMARK    2  A    between atoms: C_2  and  C_3
REMARK    3  A    between atoms: C_3  and  C_4
REMARK    4  A    between atoms: C_4  and  C_5
REMARK    5  A    between atoms: C_5  and  C_6
REMARK    6  A    between atoms: C_6  and  C_7
REMARK    7  A    between atoms: C_7  and  C_8
REMARK    8  A    between atoms: C_8  and  C_9
REMARK    9  A    between atoms: C_9  and  C_10
REMARK   10  A    between atoms: C_10  and  C_11
REMARK   11  A    between atoms: C_11  and  C_12
REMARK   12  A    between atoms: C_12  and  C_13
REMARK   13  A    between atoms: C_13  and  C_14
REMARK   14  A    between atoms: C_14  and  C_15
REMARK   15  A    between atoms: C_18  and  C_19
REMARK   16  A    between atoms: C_19  and  O_20
REMARK   17  A    between atoms: O_20  and  P_21
REMARK   18  A    between atoms: P_21  and  O_24
REMARK   19  A    between atoms: O_24  and  C_25
REMARK   20  A    between atoms: C_25  and  C_26
REMARK   21  A    between atoms: C_26  and  N_27
REMARK                            x       y       z     vdW  Elec       q    Type
REMARK                         _______ _______ _______ _____ _____    ______ ____
ROOT
ATOM      1  C   UNL     1       2.153   7.216  18.547  0.00  0.00    +0.000 C 
ATOM      2  C   UNL     1       3.138   8.101  17.798  0.00  0.00    +0.000 C 
ATOM      3  O   UNL     1       2.442   9.283  17.379  0.00  0.00    +0.000 OA
ATOM      4  C   UNL     1       1.236   9.418  18.141  0.00  0.00    +0.000 C 
ATOM      5  C   UNL     1       1.193   8.232  19.119  0.00  0.00    +0.000 C 
ENDROOT
BRANCH   4   6
ATOM      6  C   UNL     1       1.247  10.696  18.974  0.00  0.00    +0.000 C 
BRANCH   6   7
ATOM      7  O   UNL     1       0.057  11.125  19.636  0.00  0.00    +0.000 OA
BRANCH   7   8
ATOM      8  P   UNL     1       0.502  11.795  21.086  0.00  0.00    +0.000 P 
ATOM      9  O   UNL     1       0.355  10.731  22.139  0.00  0.00    +0.000 OA
ATOM     10  O   UNL     1       1.839  12.457  20.840  0.00  0.00    +0.000 OA
BRANCH   8  11
ATOM     11  O   UNL     1      -0.656  12.922  21.383  0.00  0.00    +0.000 OA
BRANCH  11  12
ATOM     12  C   UNL     1      -1.807  12.989  20.532  0.00  0.00    +0.000 C 
BRANCH  12  13
ATOM     13  C   UNL     1      -2.840  14.093  20.844  0.00  0.00    +0.000 C 
BRANCH  13  14
ATOM     14  N   UNL     1      -4.173  13.577  21.153  0.00  0.00    +0.000 N 
ATOM     15  C   UNL     1      -4.791  12.627  20.359  0.00  0.00    +0.000 A 
ATOM     16  C   UNL     1      -6.029  12.281  20.845  0.00  0.00    +0.000 A 
ATOM     17  S   UNL     1      -6.351  13.110  22.313  0.00  0.00    +0.000 S 
ATOM     18  C   UNL     1      -4.833  13.905  22.253  0.00  0.00    +0.000 A 
ENDBRANCH  13  14
ENDBRANCH  12  13
ENDBRANCH  11  12
ENDBRANCH   8  11
ENDBRANCH   7   8
ENDBRANCH   6   7
ENDBRANCH   4   6
BRANCH   1  19
ATOM     19  C   UNL     1       2.809   6.326  19.619  0.00  0.00    +0.000 C 
BRANCH  19  20
ATOM     20  C   UNL     1       1.771   5.717  20.567  0.00  0.00    +0.000 C 
BRANCH  20  21
ATOM     21  C   UNL     1       2.322   4.549  21.390  0.00  0.00    +0.000 C 
BRANCH  21  22
ATOM     22  C   UNL     1       2.393   3.292  20.520  0.00  0.00    +0.000 C 
BRANCH  22  23
ATOM     23  C   UNL     1       1.137   3.099  19.676  0.00  0.00    +0.000 C 
BRANCH  23  24
ATOM     24  C   UNL     1       1.499   2.510  18.310  0.00  0.00    +0.000 C 
BRANCH  24  25
ATOM     25  C   UNL     1       2.216   3.553  17.446  0.00  0.00    +0.000 C 
BRANCH  25  26
ATOM     26  C   UNL     1       3.691   3.202  17.269  0.00  0.00    +0.000 C 
BRANCH  26  27
ATOM     27  C   UNL     1       4.510   4.456  16.982  0.00  0.00    +0.000 C 
BRANCH  27  28
ATOM     28  C   UNL     1       5.529   4.207  15.877  0.00  0.00    +0.000 C 
BRANCH  28  29
ATOM     29  C   UNL     1       6.520   5.364  15.780  0.00  0.00    +0.000 C 
BRANCH  29  30
ATOM     30  C   UNL     1       6.213   6.433  16.827  0.00  0.00    +0.000 C 
BRANCH  30  32
ATOM     31  C   UNL     1       7.614   5.925  18.849  0.00  0.00    +0.000 C 
ATOM     32  C   UNL     1       7.465   6.803  17.618  0.00  0.00    +0.000 C 
ENDBRANCH  30  32
ENDBRANCH  29  30
ENDBRANCH  28  29
ENDBRANCH  27  28
ENDBRANCH  26  27
ENDBRANCH  25  26
ENDBRANCH  24  25
ENDBRANCH  23  24
ENDBRANCH  22  23
ENDBRANCH  21  22
ENDBRANCH  20  21
ENDBRANCH  19  20
ENDBRANCH   1  19
TORSDOF 20
ENDMDL
MODEL 8
REMARK VINA RESULT:      -5.6      2.715      4.300
REMARK  Name = 
REMARK  21 active torsions:
REMARK  status: ('A' for Active; 'I' for Inactive)
REMARK    1  A    between atoms: C_1  and  C_2
REMARK    2  A    between atoms: C_2  and  C_3
REMARK    3  A    between atoms: C_3  and  C_4
REMARK    4  A    between atoms: C_4  and  C_5
REMARK    5  A    between atoms: C_5  and  C_6
REMARK    6  A    between atoms: C_6  and  C_7
REMARK    7  A    between atoms: C_7  and  C_8
REMARK    8  A    between atoms: C_8  and  C_9
REMARK    9  A    between atoms: C_9  and  C_10
REMARK   10  A    between atoms: C_10  and  C_11
REMARK   11  A    between atoms: C_11  and  C_12
REMARK   12  A    between atoms: C_12  and  C_13
REMARK   13  A    between atoms: C_13  and  C_14
REMARK   14  A    between atoms: C_14  and  C_15
REMARK   15  A    between atoms: C_18  and  C_19
REMARK   16  A    between atoms: C_19  and  O_20
REMARK   17  A    between atoms: O_20  and  P_21
REMARK   18  A    between atoms: P_21  and  O_24
REMARK   19  A    between atoms: O_24  and  C_25
REMARK   20  A    between atoms: C_25  and  C_26
REMARK   21  A    between atoms: C_26  and  N_27
REMARK                            x       y       z     vdW  Elec       q    Type
REMARK                         _______ _______ _______ _____ _____    ______ ____
ROOT
ATOM      1  C   UNL     1       1.486   8.422  20.672  0.00  0.00    +0.000 C 
ATOM      2  C   UNL     1       1.871   8.097  19.237  0.00  0.00    +0.000 C 
ATOM      3  O   UNL     1       2.477   6.798  19.223  0.00  0.00    +0.000 OA
ATOM      4  C   UNL     1       2.140   6.104  20.431  0.00  0.00    +0.000 C 
ATOM      5  C   UNL     1       1.240   7.047  21.248  0.00  0.00    +0.000 C 
ENDROOT
BRANCH   4   6
ATOM      6  C   UNL     1       1.333   4.843  20.139  0.00  0.00    +0.000 C 
BRANCH   6   7
ATOM      7  O   UNL     1       1.462   4.192  18.875  0.00  0.00    +0.000 OA
BRANCH   7   8
ATOM      8  P   UNL     1       1.456   2.557  19.149  0.00  0.00    +0.000 P 
ATOM      9  O   UNL     1       1.602   2.348  20.632  0.00  0.00    +0.000 OA
ATOM     10  O   UNL     1       0.253   2.019  18.409  0.00  0.00    +0.000 OA
BRANCH   8  11
ATOM     11  O   UNL     1       2.847   2.025  18.455  0.00  0.00    +0.000 OA
BRANCH  11  12
ATOM     12  C   UNL     1       3.809   2.979  17.988  0.00  0.00    +0.000 C 
BRANCH  12  13
ATOM     13  C   UNL     1       4.808   3.527  19.029  0.00  0.00    +0.000 C 
BRANCH  13  14
ATOM     14  N   UNL     1       5.783   4.462  18.469  0.00  0.00    +0.000 N 
ATOM     15  C   UNL     1       6.015   4.548  17.108  0.00  0.00    +0.000 A 
ATOM     16  C   UNL     1       6.961   5.500  16.809  0.00  0.00    +0.000 A 
ATOM     17  S   UNL     1       7.480   6.299  18.236  0.00  0.00    +0.000 S 
ATOM     18  C   UNL     1       6.433   5.349  19.207  0.00  0.00    +0.000 A 
ENDBRANCH  13  14
ENDBRANCH  12  13
ENDBRANCH  11  12
ENDBRANCH   8  11
ENDBRANCH   7   8
ENDBRANCH   6   7
ENDBRANCH   4   6
BRANCH   1  19
ATOM     19  C   UNL     1       0.271   9.359  20.794  0.00  0.00    +0.000 C 
BRANCH  19  20
ATOM     20  C   UNL     1       0.679  10.834  20.744  0.00  0.00    +0.000 C 
BRANCH  20  21
ATOM     21  C   UNL     1      -0.357  11.767  21.376  0.00  0.00    +0.000 C 
BRANCH  21  22
ATOM     22  C   UNL     1      -0.969  12.665  20.298  0.00  0.00    +0.000 C 
BRANCH  22  23
ATOM     23  C   UNL     1      -0.337  12.440  18.928  0.00  0.00    +0.000 C 
BRANCH  23  24
ATOM     24  C   UNL     1      -1.416  12.105  17.893  0.00  0.00    +0.000 C 
BRANCH  24  25
ATOM     25  C   UNL     1      -1.652  10.593  17.832  0.00  0.00    +0.000 C 
BRANCH  25  26
ATOM     26  C   UNL     1      -2.338  10.195  16.527  0.00  0.00    +0.000 C 
BRANCH  26  27
ATOM     27  C   UNL     1      -3.762  10.741  16.482  0.00  0.00    +0.000 C 
BRANCH  27  28
ATOM     28  C   UNL     1      -4.459  10.572  17.827  0.00  0.00    +0.000 C 
BRANCH  28  29
ATOM     29  C   UNL     1      -5.197  11.850  18.220  0.00  0.00    +0.000 C 
BRANCH  29  30
ATOM     30  C   UNL     1      -4.809  12.292  19.628  0.00  0.00    +0.000 C 
BRANCH  30  32
ATOM     31  C   UNL     1      -7.087  11.396  20.190  0.00  0.00    +0.000 C 
ATOM     32  C   UNL     1      -6.042  12.449  20.514  0.00  0.00    +0.000 C 
ENDBRANCH  30  32
ENDBRANCH  29  30
ENDBRANCH  28  29
ENDBRANCH  27  28
ENDBRANCH  26  27
ENDBRANCH  25  26
ENDBRANCH  24  25
ENDBRANCH  23  24
ENDBRANCH  22  23
ENDBRANCH  21  22
ENDBRANCH  20  21
ENDBRANCH  19  20
ENDBRANCH   1  19
TORSDOF 20
ENDMDL
MODEL 9
REMARK VINA RESULT:      -5.5      3.136      4.957
REMARK  Name = 
REMARK  21 active torsions:
REMARK  status: ('A' for Active; 'I' for Inactive)
REMARK    1  A    between atoms: C_1  and  C_2
REMARK    2  A    between atoms: C_2  and  C_3
REMARK    3  A    between atoms: C_3  and  C_4
REMARK    4  A    between atoms: C_4  and  C_5
REMARK    5  A    between atoms: C_5  and  C_6
REMARK    6  A    between atoms: C_6  and  C_7
REMARK    7  A    between atoms: C_7  and  C_8
REMARK    8  A    between atoms: C_8  and  C_9
REMARK    9  A    between atoms: C_9  and  C_10
REMARK   10  A    between atoms: C_10  and  C_11
REMARK   11  A    between atoms: C_11  and  C_12
REMARK   12  A    between atoms: C_12  and  C_13
REMARK   13  A    between atoms: C_13  and  C_14
REMARK   14  A    between atoms: C_14  and  C_15
REMARK   15  A    between atoms: C_18  and  C_19
REMARK   16  A    between atoms: C_19  and  O_20
REMARK   17  A    between atoms: O_20  and  P_21
REMARK   18  A    between atoms: P_21  and  O_24
REMARK   19  A    between atoms: O_24  and  C_25
REMARK   20  A    between atoms: C_25  and  C_26
REMARK   21  A    between atoms: C_26  and  N_27
REMARK                            x       y       z     vdW  Elec       q    Type
REMARK                         _______ _______ _______ _____ _____    ______ ____
ROOT
ATOM      1  C   UNL     1       1.479   5.619  18.732  0.00  0.00    +0.000 C 
ATOM      2  C   UNL     1       1.610   5.738  20.243  0.00  0.00    +0.000 C 
ATOM      3  O   UNL     1       1.099   4.533  20.829  0.00  0.00    +0.000 OA
ATOM      4  C   UNL     1       1.041   3.507  19.830  0.00  0.00    +0.000 C 
ATOM      5  C   UNL     1       1.576   4.125  18.528  0.00  0.00    +0.000 C 
ENDROOT
BRANCH   4   6
ATOM      6  C   UNL     1       1.952   2.336  20.186  0.00  0.00    +0.000 C 
BRANCH   6   7
ATOM      7  O   UNL     1       3.096   2.550  21.014  0.00  0.00    +0.000 OA
BRANCH   7   8
ATOM      8  P   UNL     1       4.431   2.057  20.163  0.00  0.00    +0.000 P 
ATOM      9  O   UNL     1       5.356   1.373  21.133  0.00  0.00    +0.000 OA
ATOM     10  O   UNL     1       3.900   1.321  18.954  0.00  0.00    +0.000 OA
BRANCH   8  11
ATOM     11  O   UNL     1       5.164   3.457  19.713  0.00  0.00    +0.000 OA
BRANCH  11  12
ATOM     12  C   UNL     1       5.024   3.922  18.364  0.00  0.00    +0.000 C 
BRANCH  12  13
ATOM     13  C   UNL     1       6.225   4.680  17.762  0.00  0.00    +0.000 C 
BRANCH  13  14
ATOM     14  N   UNL     1       6.300   4.595  16.303  0.00  0.00    +0.000 N 
ATOM     15  C   UNL     1       7.343   5.162  15.592  0.00  0.00    +0.000 A 
ATOM     16  C   UNL     1       7.215   4.949  14.240  0.00  0.00    +0.000 A 
ATOM     17  S   UNL     1       5.828   3.993  13.912  0.00  0.00    +0.000 S 
ATOM     18  C   UNL     1       5.440   3.896  15.579  0.00  0.00    +0.000 A 
ENDBRANCH  13  14
ENDBRANCH  12  13
ENDBRANCH  11  12
ENDBRANCH   8  11
ENDBRANCH   7   8
ENDBRANCH   6   7
ENDBRANCH   4   6
BRANCH   1  19
ATOM     19  C   UNL     1       2.544   6.411  17.952  0.00  0.00    +0.000 C 
BRANCH  19  20
ATOM     20  C   UNL     1       2.623   7.869  18.413  0.00  0.00    +0.000 C 
BRANCH  20  21
ATOM     21  C   UNL     1       1.650   8.789  17.672  0.00  0.00    +0.000 C 
BRANCH  21  22
ATOM     22  C   UNL     1       1.378  10.039  18.512  0.00  0.00    +0.000 C 
BRANCH  22  23
ATOM     23  C   UNL     1       0.334   9.792  19.597  0.00  0.00    +0.000 C 
BRANCH  23  24
ATOM     24  C   UNL     1       0.974   9.901  20.984  0.00  0.00    +0.000 C 
BRANCH  24  25
ATOM     25  C   UNL     1      -0.103   9.932  22.073  0.00  0.00    +0.000 C 
BRANCH  25  26
ATOM     26  C   UNL     1      -1.125  11.034  21.806  0.00  0.00    +0.000 C 
BRANCH  26  27
ATOM     27  C   UNL     1      -0.779  12.290  22.600  0.00  0.00    +0.000 C 
BRANCH  27  28
ATOM     28  C   UNL     1      -0.791  13.526  21.707  0.00  0.00    +0.000 C 
BRANCH  28  29
ATOM     29  C   UNL     1       0.454  13.570  20.824  0.00  0.00    +0.000 C 
BRANCH  29  30
ATOM     30  C   UNL     1       0.073  13.604  19.346  0.00  0.00    +0.000 C 
BRANCH  30  32
ATOM     31  C   UNL     1       2.569  13.333  19.285  0.00  0.00    +0.000 C 
ATOM     32  C   UNL     1       1.312  13.540  18.457  0.00  0.00    +0.000 C 
ENDBRANCH  30  32
ENDBRANCH  29  30
ENDBRANCH  28  29
ENDBRANCH  27  28
ENDBRANCH  26  27
ENDBRANCH  25  26
ENDBRANCH  24  25
ENDBRANCH  23  24
ENDBRANCH  22  23
ENDBRANCH  21  22
ENDBRANCH  20  21
ENDBRANCH  19  20
ENDBRANCH   1  19
TORSDOF 20
ENDMDL
