MODEL 1
REMARK VINA RESULT:      -7.4      0.000      0.000
REMARK  Name = 
REMARK  11 active torsions:
REMARK  status: ('A' for Active; 'I' for Inactive)
REMARK    1  A    between atoms: C_1  and  C_2
REMARK    2  A    between atoms: C_2  and  C_3
REMARK    3  A    between atoms: C_3  and  C_4
REMARK    4  A    between atoms: C_4  and  C_5
REMARK    5  A    between atoms: C_5  and  C_6
REMARK    6  A    between atoms: C_6  and  C_7
REMARK    7  A    between atoms: C_7  and  C_8
REMARK    8  A    between atoms: C_8  and  C_9
REMARK    9  A    between atoms: C_11  and  O_12
REMARK   10  A    between atoms: C_16  and  O_17
REMARK   11  A    between atoms: O_17  and  C_18
REMARK                            x       y       z     vdW  Elec       q    Type
REMARK                         _______ _______ _______ _____ _____    ______ ____
ROOT
ATOM      1  C   UNL     1       5.819   4.435  15.717  0.00  0.00    +0.000 C 
ATOM      2  C   UNL     1       5.420   5.817  15.158  0.00  0.00    +0.000 C 
ATOM      3  C   UNL     1       6.920   4.499  16.792  0.00  0.00    +0.000 C 
ATOM      4  C   UNL     1       6.475   5.261  18.028  0.00  0.00    +0.000 C 
ATOM      5  C   UNL     1       5.041   4.967  18.360  0.00  0.00    +0.000 A 
ATOM      6  C   UNL     1       4.514   5.407  19.583  0.00  0.00    +0.000 A 
ATOM      7  C   UNL     1       3.193   5.119  19.934  0.00  0.00    +0.000 A 
ATOM      8  C   UNL     1       2.384   4.386  19.068  0.00  0.00    +0.000 A 
ATOM      9  C   UNL     1       2.904   3.951  17.846  0.00  0.00    +0.000 A 
ATOM     10  C   UNL     1       4.223   4.250  17.482  0.00  0.00    +0.000 A 
ATOM     11  O   UNL     1       4.638   3.798  16.253  0.00  0.00    +0.000 OA
ENDROOT
BRANCH   4  12
ATOM     12  O   UNL     1       6.699   6.654  17.833  0.00  0.00    +0.000 OA
ATOM     13  H   UNL     1       7.223   6.765  17.022  0.00  0.00    +0.000 HD
ENDBRANCH   4  12
BRANCH   8  14
ATOM     14  O   UNL     1       1.079   4.040  19.306  0.00  0.00    +0.000 OA
ATOM     15  C   UNL     1       0.858   2.881  20.105  0.00  0.00    +0.000 C 
ENDBRANCH   8  14
BRANCH   1  16
ATOM     16  C   UNL     1       6.314   3.595  14.502  0.00  0.00    +0.000 C 
BRANCH  16  17
ATOM     17  C   UNL     1       6.559   4.391  13.217  0.00  0.00    +0.000 C 
BRANCH  17  18
ATOM     18  C   UNL     1       6.815   3.476  12.013  0.00  0.00    +0.000 C 
BRANCH  18  19
ATOM     19  C   UNL     1       5.559   2.661  11.699  0.00  0.00    +0.000 C 
BRANCH  19  20
ATOM     20  C   UNL     1       4.302   3.529  11.667  0.00  0.00    +0.000 C 
BRANCH  20  22
ATOM     21  C   UNL     1       3.015   4.199   9.602  0.00  0.00    +0.000 C 
ATOM     22  C   UNL     1       3.353   3.068  10.559  0.00  0.00    +0.000 C 
ENDBRANCH  20  22
ENDBRANCH  19  20
ENDBRANCH  18  19
ENDBRANCH  17  18
ENDBRANCH  16  17
ENDBRANCH   1  16
TORSDOF 8
ENDMDL
MODEL 2
REMARK VINA RESULT:      -7.2      3.543      6.592
REMARK  Name = 
REMARK  11 active torsions:
REMARK  status: ('A' for Active; 'I' for Inactive)
REMARK    1  A    between atoms: C_1  and  C_2
REMARK    2  A    between atoms: C_2  and  C_3
REMARK    3  A    between atoms: C_3  and  C_4
REMARK    4  A    between atoms: C_4  and  C_5
REMARK    5  A    between atoms: C_5  and  C_6
REMARK    6  A    between atoms: C_6  and  C_7
REMARK    7  A    between atoms: C_7  and  C_8
REMARK    8  A    between atoms: C_8  and  C_9
REMARK    9  A    between atoms: C_11  and  O_12
REMARK   10  A    between atoms: C_16  and  O_17
REMARK   11  A    between atoms: O_17  and  C_18
REMARK                            x       y       z     vdW  Elec       q    Type
REMARK                         _______ _______ _______ _____ _____    ______ ____
ROOT
ATOM      1  C   UNL     1       6.615   5.843  17.097  0.00  0.00    +0.000 C 
ATOM      2  C   UNL     1       7.540   4.795  17.752  0.00  0.00    +0.000 C 
ATOM      3  C   UNL     1       6.018   5.385  15.754  0.00  0.00    +0.000 C 
ATOM      4  C   UNL     1       5.118   4.171  15.908  0.00  0.00    +0.000 C 
ATOM      5  C   UNL     1       4.302   4.256  17.166  0.00  0.00    +0.000 A 
ATOM      6  C   UNL     1       3.261   3.340  17.374  0.00  0.00    +0.000 A 
ATOM      7  C   UNL     1       2.464   3.415  18.518  0.00  0.00    +0.000 A 
ATOM      8  C   UNL     1       2.696   4.409  19.467  0.00  0.00    +0.000 A 
ATOM      9  C   UNL     1       3.736   5.320  19.265  0.00  0.00    +0.000 A 
ATOM     10  C   UNL     1       4.548   5.240  18.128  0.00  0.00    +0.000 A 
ATOM     11  O   UNL     1       5.557   6.166  18.027  0.00  0.00    +0.000 OA
ENDROOT
BRANCH   4  12
ATOM     12  O   UNL     1       5.907   2.986  15.867  0.00  0.00    +0.000 OA
ATOM     13  H   UNL     1       6.798   3.228  15.564  0.00  0.00    +0.000 HD
ENDBRANCH   4  12
BRANCH   8  14
ATOM     14  O   UNL     1       1.979   4.584  20.621  0.00  0.00    +0.000 OA
ATOM     15  C   UNL     1       2.105   3.571  21.615  0.00  0.00    +0.000 C 
ENDBRANCH   8  14
BRANCH   1  16
ATOM     16  C   UNL     1       7.481   7.120  16.883  0.00  0.00    +0.000 C 
BRANCH  16  17
ATOM     17  C   UNL     1       8.044   7.748  18.161  0.00  0.00    +0.000 C 
BRANCH  17  18
ATOM     18  C   UNL     1       8.281   9.255  18.006  0.00  0.00    +0.000 C 
BRANCH  18  19
ATOM     19  C   UNL     1       9.119   9.775  19.175  0.00  0.00    +0.000 C 
BRANCH  19  20
ATOM     20  C   UNL     1       9.640  11.190  18.927  0.00  0.00    +0.000 C 
BRANCH  20  22
ATOM     21  C   UNL     1      12.054  11.918  18.834  0.00  0.00    +0.000 C 
ATOM     22  C   UNL     1      10.918  11.445  19.726  0.00  0.00    +0.000 C 
ENDBRANCH  20  22
ENDBRANCH  19  20
ENDBRANCH  18  19
ENDBRANCH  17  18
ENDBRANCH  16  17
ENDBRANCH   1  16
TORSDOF 8
ENDMDL
MODEL 3
REMARK VINA RESULT:      -7.1      1.890      3.069
REMARK  Name = 
REMARK  11 active torsions:
REMARK  status: ('A' for Active; 'I' for Inactive)
REMARK    1  A    between atoms: C_1  and  C_2
REMARK    2  A    between atoms: C_2  and  C_3
REMARK    3  A    between atoms: C_3  and  C_4
REMARK    4  A    between atoms: C_4  and  C_5
REMARK    5  A    between atoms: C_5  and  C_6
REMARK    6  A    between atoms: C_6  and  C_7
REMARK    7  A    between atoms: C_7  and  C_8
REMARK    8  A    between atoms: C_8  and  C_9
REMARK    9  A    between atoms: C_11  and  O_12
REMARK   10  A    between atoms: C_16  and  O_17
REMARK   11  A    between atoms: O_17  and  C_18
REMARK                            x       y       z     vdW  Elec       q    Type
REMARK                         _______ _______ _______ _____ _____    ______ ____
ROOT
ATOM      1  C   UNL     1       5.199   5.203  17.262  0.00  0.00    +0.000 C 
ATOM      2  C   UNL     1       6.375   5.338  18.254  0.00  0.00    +0.000 C 
ATOM      3  C   UNL     1       4.646   3.770  17.152  0.00  0.00    +0.000 C 
ATOM      4  C   UNL     1       4.057   3.278  18.462  0.00  0.00    +0.000 C 
ATOM      5  C   UNL     1       3.317   4.375  19.171  0.00  0.00    +0.000 A 
ATOM      6  C   UNL     1       2.526   4.062  20.286  0.00  0.00    +0.000 A 
ATOM      7  C   UNL     1       1.799   5.056  20.945  0.00  0.00    +0.000 A 
ATOM      8  C   UNL     1       1.852   6.374  20.496  0.00  0.00    +0.000 A 
ATOM      9  C   UNL     1       2.644   6.690  19.388  0.00  0.00    +0.000 A 
ATOM     10  C   UNL     1       3.387   5.701  18.733  0.00  0.00    +0.000 A 
ATOM     11  O   UNL     1       4.151   6.111  17.668  0.00  0.00    +0.000 OA
ENDROOT
BRANCH   4  12
ATOM     12  O   UNL     1       5.092   2.728  19.271  0.00  0.00    +0.000 OA
ATOM     13  H   UNL     1       4.809   1.844  19.563  0.00  0.00    +0.000 HD
ENDBRANCH   4  12
BRANCH   8  14
ATOM     14  O   UNL     1       1.181   7.429  21.057  0.00  0.00    +0.000 OA
ATOM     15  C   UNL     1       1.290   8.685  20.394  0.00  0.00    +0.000 C 
ENDBRANCH   8  14
BRANCH   1  16
ATOM     16  C   UNL     1       5.737   5.671  15.877  0.00  0.00    +0.000 C 
BRANCH  16  17
ATOM     17  C   UNL     1       6.949   4.896  15.353  0.00  0.00    +0.000 C 
BRANCH  17  18
ATOM     18  C   UNL     1       6.846   4.614  13.850  0.00  0.00    +0.000 C 
BRANCH  18  19
ATOM     19  C   UNL     1       5.629   3.733  13.564  0.00  0.00    +0.000 C 
BRANCH  19  20
ATOM     20  C   UNL     1       5.501   3.389  12.081  0.00  0.00    +0.000 C 
BRANCH  20  22
ATOM     21  C   UNL     1       6.383   1.201  11.186  0.00  0.00    +0.000 C 
ATOM     22  C   UNL     1       6.732   2.623  11.594  0.00  0.00    +0.000 C 
ENDBRANCH  20  22
ENDBRANCH  19  20
ENDBRANCH  18  19
ENDBRANCH  17  18
ENDBRANCH  16  17
ENDBRANCH   1  16
TORSDOF 8
ENDMDL
MODEL 4
REMARK VINA RESULT:      -7.1      2.093      2.803
REMARK  Name = 
REMARK  11 active torsions:
REMARK  status: ('A' for Active; 'I' for Inactive)
REMARK    1  A    between atoms: C_1  and  C_2
REMARK    2  A    between atoms: C_2  and  C_3
REMARK    3  A    between atoms: C_3  and  C_4
REMARK    4  A    between atoms: C_4  and  C_5
REMARK    5  A    between atoms: C_5  and  C_6
REMARK    6  A    between atoms: C_6  and  C_7
REMARK    7  A    between atoms: C_7  and  C_8
REMARK    8  A    between atoms: C_8  and  C_9
REMARK    9  A    between atoms: C_11  and  O_12
REMARK   10  A    between atoms: C_16  and  O_17
REMARK   11  A    between atoms: O_17  and  C_18
REMARK                            x       y       z     vdW  Elec       q    Type
REMARK                         _______ _______ _______ _____ _____    ______ ____
ROOT
ATOM      1  C   UNL     1       4.997   5.511  16.810  0.00  0.00    +0.000 C 
ATOM      2  C   UNL     1       6.236   5.818  17.679  0.00  0.00    +0.000 C 
ATOM      3  C   UNL     1       4.429   4.096  17.024  0.00  0.00    +0.000 C 
ATOM      4  C   UNL     1       3.924   3.885  18.440  0.00  0.00    +0.000 C 
ATOM      5  C   UNL     1       3.239   5.115  18.961  0.00  0.00    +0.000 A 
ATOM      6  C   UNL     1       2.521   5.046  20.164  0.00  0.00    +0.000 A 
ATOM      7  C   UNL     1       1.845   6.165  20.656  0.00  0.00    +0.000 A 
ATOM      8  C   UNL     1       1.876   7.366  19.950  0.00  0.00    +0.000 A 
ATOM      9  C   UNL     1       2.596   7.440  18.754  0.00  0.00    +0.000 A 
ATOM     10  C   UNL     1       3.288   6.326  18.264  0.00  0.00    +0.000 A 
ATOM     11  O   UNL     1       3.982   6.501  17.092  0.00  0.00    +0.000 OA
ENDROOT
BRANCH   4  12
ATOM     12  O   UNL     1       5.007   3.488  19.276  0.00  0.00    +0.000 OA
ATOM     13  H   UNL     1       4.936   3.976  20.114  0.00  0.00    +0.000 HD
ENDBRANCH   4  12
BRANCH   8  14
ATOM     14  O   UNL     1       1.250   8.524  20.330  0.00  0.00    +0.000 OA
ATOM     15  C   UNL     1       1.150   8.769  21.730  0.00  0.00    +0.000 C 
ENDBRANCH   8  14
BRANCH   1  16
ATOM     16  C   UNL     1       5.445   5.684  15.328  0.00  0.00    +0.000 C 
BRANCH  16  17
ATOM     17  C   UNL     1       6.677   4.870  14.921  0.00  0.00    +0.000 C 
BRANCH  17  18
ATOM     18  C   UNL     1       6.634   4.459  13.445  0.00  0.00    +0.000 C 
BRANCH  18  19
ATOM     19  C   UNL     1       5.288   3.807  13.123  0.00  0.00    +0.000 C 
BRANCH  19  20
ATOM     20  C   UNL     1       5.247   3.240  11.705  0.00  0.00    +0.000 C 
BRANCH  20  22
ATOM     21  C   UNL     1       3.367   3.968  10.188  0.00  0.00    +0.000 C 
ATOM     22  C   UNL     1       3.805   2.988  11.264  0.00  0.00    +0.000 C 
ENDBRANCH  20  22
ENDBRANCH  19  20
ENDBRANCH  18  19
ENDBRANCH  17  18
ENDBRANCH  16  17
ENDBRANCH   1  16
TORSDOF 8
ENDMDL
MODEL 5
REMARK VINA RESULT:      -7.0      1.815      2.927
REMARK  Name = 
REMARK  11 active torsions:
REMARK  status: ('A' for Active; 'I' for Inactive)
REMARK    1  A    between atoms: C_1  and  C_2
REMARK    2  A    between atoms: C_2  and  C_3
REMARK    3  A    between atoms: C_3  and  C_4
REMARK    4  A    between atoms: C_4  and  C_5
REMARK    5  A    between atoms: C_5  and  C_6
REMARK    6  A    between atoms: C_6  and  C_7
REMARK    7  A    between atoms: C_7  and  C_8
REMARK    8  A    between atoms: C_8  and  C_9
REMARK    9  A    between atoms: C_11  and  O_12
REMARK   10  A    between atoms: C_16  and  O_17
REMARK   11  A    between atoms: O_17  and  C_18
REMARK                            x       y       z     vdW  Elec       q    Type
REMARK                         _______ _______ _______ _____ _____    ______ ____
ROOT
ATOM      1  C   UNL     1       4.675   4.311  17.124  0.00  0.00    +0.000 C 
ATOM      2  C   UNL     1       5.986   4.598  17.887  0.00  0.00    +0.000 C 
ATOM      3  C   UNL     1       4.137   2.884  17.336  0.00  0.00    +0.000 C 
ATOM      4  C   UNL     1       3.765   2.618  18.784  0.00  0.00    +0.000 C 
ATOM      5  C   UNL     1       3.123   3.823  19.410  0.00  0.00    +0.000 A 
ATOM      6  C   UNL     1       2.518   3.703  20.669  0.00  0.00    +0.000 A 
ATOM      7  C   UNL     1       1.883   4.798  21.261  0.00  0.00    +0.000 A 
ATOM      8  C   UNL     1       1.843   6.023  20.599  0.00  0.00    +0.000 A 
ATOM      9  C   UNL     1       2.449   6.147  19.346  0.00  0.00    +0.000 A 
ATOM     10  C   UNL     1       3.100   5.058  18.755  0.00  0.00    +0.000 A 
ATOM     11  O   UNL     1       3.685   5.281  17.533  0.00  0.00    +0.000 OA
ENDROOT
BRANCH   4  12
ATOM     12  O   UNL     1       4.922   2.201  19.504  0.00  0.00    +0.000 OA
ATOM     13  H   UNL     1       4.695   2.172  20.448  0.00  0.00    +0.000 HD
ENDBRANCH   4  12
BRANCH   8  14
ATOM     14  O   UNL     1       1.246   7.161  21.077  0.00  0.00    +0.000 OA
ATOM     15  C   UNL     1       1.502   8.367  20.363  0.00  0.00    +0.000 C 
ENDBRANCH   8  14
BRANCH   1  16
ATOM     16  C   UNL     1       4.985   4.540  15.615  0.00  0.00    +0.000 C 
BRANCH  16  17
ATOM     17  C   UNL     1       6.222   5.396  15.326  0.00  0.00    +0.000 C 
BRANCH  17  18
ATOM     18  C   UNL     1       7.047   4.841  14.160  0.00  0.00    +0.000 C 
BRANCH  18  19
ATOM     19  C   UNL     1       6.392   3.571  13.613  0.00  0.00    +0.000 C 
BRANCH  19  20
ATOM     20  C   UNL     1       6.224   3.616  12.095  0.00  0.00    +0.000 C 
BRANCH  20  22
ATOM     21  C   UNL     1       3.946   3.216  11.086  0.00  0.00    +0.000 C 
ATOM     22  C   UNL     1       5.209   2.570  11.632  0.00  0.00    +0.000 C 
ENDBRANCH  20  22
ENDBRANCH  19  20
ENDBRANCH  18  19
ENDBRANCH  17  18
ENDBRANCH  16  17
ENDBRANCH   1  16
TORSDOF 8
ENDMDL
MODEL 6
REMARK VINA RESULT:      -7.0      3.597      6.648
REMARK  Name = 
REMARK  11 active torsions:
REMARK  status: ('A' for Active; 'I' for Inactive)
REMARK    1  A    between atoms: C_1  and  C_2
REMARK    2  A    between atoms: C_2  and  C_3
REMARK    3  A    between atoms: C_3  and  C_4
REMARK    4  A    between atoms: C_4  and  C_5
REMARK    5  A    between atoms: C_5  and  C_6
REMARK    6  A    between atoms: C_6  and  C_7
REMARK    7  A    between atoms: C_7  and  C_8
REMARK    8  A    between atoms: C_8  and  C_9
REMARK    9  A    between atoms: C_11  and  O_12
REMARK   10  A    between atoms: C_16  and  O_17
REMARK   11  A    between atoms: O_17  and  C_18
REMARK                            x       y       z     vdW  Elec       q    Type
REMARK                         _______ _______ _______ _____ _____    ______ ____
ROOT
ATOM      1  C   UNL     1       6.863   5.859  17.960  0.00  0.00    +0.000 C 
ATOM      2  C   UNL     1       7.614   4.610  17.450  0.00  0.00    +0.000 C 
ATOM      3  C   UNL     1       5.970   6.519  16.894  0.00  0.00    +0.000 C 
ATOM      4  C   UNL     1       4.850   5.603  16.432  0.00  0.00    +0.000 C 
ATOM      5  C   UNL     1       4.288   4.812  17.578  0.00  0.00    +0.000 A 
ATOM      6  C   UNL     1       3.111   4.073  17.392  0.00  0.00    +0.000 A 
ATOM      7  C   UNL     1       2.545   3.355  18.449  0.00  0.00    +0.000 A 
ATOM      8  C   UNL     1       3.149   3.370  19.705  0.00  0.00    +0.000 A 
ATOM      9  C   UNL     1       4.326   4.101  19.892  0.00  0.00    +0.000 A 
ATOM     10  C   UNL     1       4.905   4.810  18.833  0.00  0.00    +0.000 A 
ATOM     11  O   UNL     1       6.071   5.481  19.108  0.00  0.00    +0.000 OA
ENDROOT
BRANCH   4  12
ATOM     12  O   UNL     1       5.328   4.758  15.390  0.00  0.00    +0.000 OA
ATOM     13  H   UNL     1       4.586   4.209  15.083  0.00  0.00    +0.000 HD
ENDBRANCH   4  12
BRANCH   8  14
ATOM     14  O   UNL     1       2.685   2.711  20.813  0.00  0.00    +0.000 OA
ATOM     15  C   UNL     1       1.302   2.862  21.117  0.00  0.00    +0.000 C 
ENDBRANCH   8  14
BRANCH   1  16
ATOM     16  C   UNL     1       7.954   6.865  18.433  0.00  0.00    +0.000 C 
BRANCH  16  17
ATOM     17  C   UNL     1       7.887   8.251  17.786  0.00  0.00    +0.000 C 
BRANCH  17  18
ATOM     18  C   UNL     1       8.682   9.295  18.578  0.00  0.00    +0.000 C 
BRANCH  18  19
ATOM     19  C   UNL     1       8.658  10.638  17.846  0.00  0.00    +0.000 C 
BRANCH  19  20
ATOM     20  C   UNL     1       9.474  11.706  18.572  0.00  0.00    +0.000 C 
BRANCH  20  22
ATOM     21  C   UNL     1      11.278  11.971  20.317  0.00  0.00    +0.000 C 
ATOM     22  C   UNL     1      10.095  11.138  19.848  0.00  0.00    +0.000 C 
ENDBRANCH  20  22
ENDBRANCH  19  20
ENDBRANCH  18  19
ENDBRANCH  17  18
ENDBRANCH  16  17
ENDBRANCH   1  16
TORSDOF 8
ENDMDL
MODEL 7
REMARK VINA RESULT:      -7.0      3.422      6.265
REMARK  Name = 
REMARK  11 active torsions:
REMARK  status: ('A' for Active; 'I' for Inactive)
REMARK    1  A    between atoms: C_1  and  C_2
REMARK    2  A    between atoms: C_2  and  C_3
REMARK    3  A    between atoms: C_3  and  C_4
REMARK    4  A    between atoms: C_4  and  C_5
REMARK    5  A    between atoms: C_5  and  C_6
REMARK    6  A    between atoms: C_6  and  C_7
REMARK    7  A    between atoms: C_7  and  C_8
REMARK    8  A    between atoms: C_8  and  C_9
REMARK    9  A    between atoms: C_11  and  O_12
REMARK   10  A    between atoms: C_16  and  O_17
REMARK   11  A    between atoms: O_17  and  C_18
REMARK                            x       y       z     vdW  Elec       q    Type
REMARK                         _______ _______ _______ _____ _____    ______ ____
ROOT
ATOM      1  C   UNL     1       6.100   6.150  17.366  0.00  0.00    +0.000 C 
ATOM      2  C   UNL     1       7.229   5.260  17.930  0.00  0.00    +0.000 C 
ATOM      3  C   UNL     1       5.531   5.648  16.026  0.00  0.00    +0.000 C 
ATOM      4  C   UNL     1       4.873   4.286  16.153  0.00  0.00    +0.000 C 
ATOM      5  C   UNL     1       4.117   4.166  17.444  0.00  0.00    +0.000 A 
ATOM      6  C   UNL     1       3.269   3.068  17.646  0.00  0.00    +0.000 A 
ATOM      7  C   UNL     1       2.527   2.947  18.824  0.00  0.00    +0.000 A 
ATOM      8  C   UNL     1       2.622   3.925  19.812  0.00  0.00    +0.000 A 
ATOM      9  C   UNL     1       3.470   5.018  19.616  0.00  0.00    +0.000 A 
ATOM     10  C   UNL     1       4.228   5.137  18.445  0.00  0.00    +0.000 A 
ATOM     11  O   UNL     1       5.048   6.234  18.352  0.00  0.00    +0.000 OA
ENDROOT
BRANCH   4  12
ATOM     12  O   UNL     1       5.860   3.267  16.020  0.00  0.00    +0.000 OA
ATOM     13  H   UNL     1       6.029   3.134  15.072  0.00  0.00    +0.000 HD
ENDBRANCH   4  12
BRANCH   8  14
ATOM     14  O   UNL     1       1.941   3.917  21.001  0.00  0.00    +0.000 OA
ATOM     15  C   UNL     1       1.694   2.643  21.590  0.00  0.00    +0.000 C 
ENDBRANCH   8  14
BRANCH   1  16
ATOM     16  C   UNL     1       6.710   7.571  17.183  0.00  0.00    +0.000 C 
BRANCH  16  17
ATOM     17  C   UNL     1       7.951   7.862  18.032  0.00  0.00    +0.000 C 
BRANCH  17  18
ATOM     18  C   UNL     1       8.368   9.335  17.957  0.00  0.00    +0.000 C 
BRANCH  18  19
ATOM     19  C   UNL     1       9.073   9.747  19.251  0.00  0.00    +0.000 C 
BRANCH  19  20
ATOM     20  C   UNL     1       9.386  11.242  19.286  0.00  0.00    +0.000 C 
BRANCH  20  22
ATOM     21  C   UNL     1       8.455  13.056  17.800  0.00  0.00    +0.000 C 
ATOM     22  C   UNL     1       9.357  11.835  17.877  0.00  0.00    +0.000 C 
ENDBRANCH  20  22
ENDBRANCH  19  20
ENDBRANCH  18  19
ENDBRANCH  17  18
ENDBRANCH  16  17
ENDBRANCH   1  16
TORSDOF 8
ENDMDL
MODEL 8
REMARK VINA RESULT:      -6.9      4.066      6.843
REMARK  Name = 
REMARK  11 active torsions:
REMARK  status: ('A' for Active; 'I' for Inactive)
REMARK    1  A    between atoms: C_1  and  C_2
REMARK    2  A    between atoms: C_2  and  C_3
REMARK    3  A    between atoms: C_3  and  C_4
REMARK    4  A    between atoms: C_4  and  C_5
REMARK    5  A    between atoms: C_5  and  C_6
REMARK    6  A    between atoms: C_6  and  C_7
REMARK    7  A    between atoms: C_7  and  C_8
REMARK    8  A    between atoms: C_8  and  C_9
REMARK    9  A    between atoms: C_11  and  O_12
REMARK   10  A    between atoms: C_16  and  O_17
REMARK   11  A    between atoms: O_17  and  C_18
REMARK                            x       y       z     vdW  Elec       q    Type
REMARK                         _______ _______ _______ _____ _____    ______ ____
ROOT
ATOM      1  C   UNL     1       7.054   6.947  17.570  0.00  0.00    +0.000 C 
ATOM      2  C   UNL     1       7.718   6.324  18.817  0.00  0.00    +0.000 C 
ATOM      3  C   UNL     1       7.392   6.213  16.260  0.00  0.00    +0.000 C 
ATOM      4  C   UNL     1       6.881   4.784  16.251  0.00  0.00    +0.000 C 
ATOM      5  C   UNL     1       5.532   4.685  16.904  0.00  0.00    +0.000 A 
ATOM      6  C   UNL     1       4.804   3.492  16.803  0.00  0.00    +0.000 A 
ATOM      7  C   UNL     1       3.533   3.381  17.372  0.00  0.00    +0.000 A 
ATOM      8  C   UNL     1       2.974   4.466  18.046  0.00  0.00    +0.000 A 
ATOM      9  C   UNL     1       3.700   5.655  18.153  0.00  0.00    +0.000 A 
ATOM     10  C   UNL     1       4.980   5.766  17.599  0.00  0.00    +0.000 A 
ATOM     11  O   UNL     1       5.623   6.966  17.774  0.00  0.00    +0.000 OA
ENDROOT
BRANCH   4  12
ATOM     12  O   UNL     1       7.836   3.933  16.877  0.00  0.00    +0.000 OA
ATOM     13  H   UNL     1       8.278   4.441  17.578  0.00  0.00    +0.000 HD
ENDBRANCH   4  12
BRANCH   8  14
ATOM     14  O   UNL     1       1.737   4.477  18.637  0.00  0.00    +0.000 OA
ATOM     15  C   UNL     1       1.067   3.225  18.746  0.00  0.00    +0.000 C 
ENDBRANCH   8  14
BRANCH   1  16
ATOM     16  C   UNL     1       7.554   8.420  17.496  0.00  0.00    +0.000 C 
BRANCH  16  17
ATOM     17  C   UNL     1       8.566   8.820  18.573  0.00  0.00    +0.000 C 
BRANCH  17  18
ATOM     18  C   UNL     1       8.942  10.304  18.488  0.00  0.00    +0.000 C 
BRANCH  18  19
ATOM     19  C   UNL     1       9.802  10.696  19.691  0.00  0.00    +0.000 C 
BRANCH  19  20
ATOM     20  C   UNL     1      10.855  11.743  19.330  0.00  0.00    +0.000 C 
BRANCH  20  22
ATOM     21  C   UNL     1      11.315  13.048  17.220  0.00  0.00    +0.000 C 
ATOM     22  C   UNL     1      11.207  11.667  17.844  0.00  0.00    +0.000 C 
ENDBRANCH  20  22
ENDBRANCH  19  20
ENDBRANCH  18  19
ENDBRANCH  17  18
ENDBRANCH  16  17
ENDBRANCH   1  16
TORSDOF 8
ENDMDL
MODEL 9
REMARK VINA RESULT:      -6.9      2.126      3.451
REMARK  Name = 
REMARK  11 active torsions:
REMARK  status: ('A' for Active; 'I' for Inactive)
REMARK    1  A    between atoms: C_1  and  C_2
REMARK    2  A    between atoms: C_2  and  C_3
REMARK    3  A    between atoms: C_3  and  C_4
REMARK    4  A    between atoms: C_4  and  C_5
REMARK    5  A    between atoms: C_5  and  C_6
REMARK    6  A    between atoms: C_6  and  C_7
REMARK    7  A    between atoms: C_7  and  C_8
REMARK    8  A    between atoms: C_8  and  C_9
REMARK    9  A    between atoms: C_11  and  O_12
REMARK   10  A    between atoms: C_16  and  O_17
REMARK   11  A    between atoms: O_17  and  C_18
REMARK                            x       y       z     vdW  Elec       q    Type
REMARK                         _______ _______ _______ _____ _____    ______ ____
ROOT
ATOM      1  C   UNL     1       4.543   4.286  17.458  0.00  0.00    +0.000 C 
ATOM      2  C   UNL     1       5.757   4.390  18.406  0.00  0.00    +0.000 C 
ATOM      3  C   UNL     1       3.587   3.130  17.804  0.00  0.00    +0.000 C 
ATOM      4  C   UNL     1       2.949   3.300  19.172  0.00  0.00    +0.000 C 
ATOM      5  C   UNL     1       2.604   4.738  19.435  0.00  0.00    +0.000 A 
ATOM      6  C   UNL     1       1.817   5.063  20.549  0.00  0.00    +0.000 A 
ATOM      7  C   UNL     1       1.451   6.388  20.801  0.00  0.00    +0.000 A 
ATOM      8  C   UNL     1       1.867   7.402  19.940  0.00  0.00    +0.000 A 
ATOM      9  C   UNL     1       2.657   7.082  18.833  0.00  0.00    +0.000 A 
ATOM     10  C   UNL     1       3.038   5.758  18.584  0.00  0.00    +0.000 A 
ATOM     11  O   UNL     1       3.832   5.544  17.484  0.00  0.00    +0.000 OA
ENDROOT
BRANCH   4  12
ATOM     12  O   UNL     1       3.817   2.772  20.170  0.00  0.00    +0.000 OA
ATOM     13  H   UNL     1       3.438   1.934  20.485  0.00  0.00    +0.000 HD
ENDBRANCH   4  12
BRANCH   8  14
ATOM     14  O   UNL     1       1.568   8.732  20.082  0.00  0.00    +0.000 OA
ATOM     15  C   UNL     1       0.799   9.098  21.224  0.00  0.00    +0.000 C 
ENDBRANCH   8  14
BRANCH   1  16
ATOM     16  C   UNL     1       5.120   4.084  16.025  0.00  0.00    +0.000 C 
BRANCH  16  17
ATOM     17  C   UNL     1       6.450   4.793  15.752  0.00  0.00    +0.000 C 
BRANCH  17  18
ATOM     18  C   UNL     1       6.861   4.699  14.278  0.00  0.00    +0.000 C 
BRANCH  18  19
ATOM     19  C   UNL     1       5.840   3.864  13.502  0.00  0.00    +0.000 C 
BRANCH  19  20
ATOM     20  C   UNL     1       6.356   3.459  12.122  0.00  0.00    +0.000 C 
BRANCH  20  22
ATOM     21  C   UNL     1       6.624   1.200  11.031  0.00  0.00    +0.000 C 
ATOM     22  C   UNL     1       5.645   2.199  11.627  0.00  0.00    +0.000 C 
ENDBRANCH  20  22
ENDBRANCH  19  20
ENDBRANCH  18  19
ENDBRANCH  17  18
ENDBRANCH  16  17
ENDBRANCH   1  16
TORSDOF 8
ENDMDL
