MODEL 1
REMARK VINA RESULT:      -6.6      0.000      0.000
REMARK  Name = 
REMARK  4 active torsions:
REMARK  status: ('A' for Active; 'I' for Inactive)
REMARK    1  A    between atoms: C_9  and  C_10
REMARK    2  A    between atoms: C_10  and  O_11
REMARK    3  A    between atoms: O_11  and  C_12
REMARK    4  A    between atoms: C_12  and  C_13
REMARK                            x       y       z     vdW  Elec       q    Type
REMARK                         _______ _______ _______ _____ _____    ______ ____
ROOT
ATOM      1  C   UNL     1       6.927   4.870  14.148  0.00  0.00    +0.000 A 
ATOM      2  C   UNL     1       5.757   4.218  14.459  0.00  0.00    +0.000 A 
ATOM      3  N   UNL     1       5.763   4.115  15.817  0.00  0.00    +0.000 N 
ATOM      4  C   UNL     1       6.914   4.700  16.287  0.00  0.00    +0.000 A 
ATOM      5  N   UNL     1       7.624   5.185  15.285  0.00  0.00    +0.000 NA
ATOM      6  C   UNL     1       7.299   4.682  17.729  0.00  0.00    +0.000 C 
ATOM      7  N   UNL     1       6.342   5.247  18.691  0.00  0.00    +0.000 NA
ATOM      8  C   UNL     1       4.976   5.472  18.227  0.00  0.00    +0.000 C 
ATOM      9  C   UNL     1       4.203   4.206  17.820  0.00  0.00    +0.000 C 
ATOM     10  C   UNL     1       4.791   3.416  16.631  0.00  0.00    +0.000 C 
ATOM     11  H   UNL     1       6.722   6.137  19.016  0.00  0.00    +0.000 HD
ENDROOT
BRANCH   9  12
ATOM     12  C   UNL     1       2.729   4.571  17.569  0.00  0.00    +0.000 C 
BRANCH  12  13
ATOM     13  O   UNL     1       1.949   3.377  17.582  0.00  0.00    +0.000 OA
BRANCH  13  14
ATOM     14  C   UNL     1       2.115   2.632  18.784  0.00  0.00    +0.000 C 
BRANCH  14  15
ATOM     15  C   UNL     1       1.065   3.079  19.751  0.00  0.00    +0.000 C 
ATOM     16  C   UNL     1       1.224   2.809  21.225  0.00  0.00    +0.000 C 
ATOM     17  C   UNL     1       1.322   4.217  20.707  0.00  0.00    +0.000 C 
ENDBRANCH  14  15
ENDBRANCH  13  14
ENDBRANCH  12  13
ENDBRANCH   9  12
TORSDOF 4
ENDMDL
MODEL 2
REMARK VINA RESULT:      -6.6      0.818      1.103
REMARK  Name = 
REMARK  4 active torsions:
REMARK  status: ('A' for Active; 'I' for Inactive)
REMARK    1  A    between atoms: C_9  and  C_10
REMARK    2  A    between atoms: C_10  and  O_11
REMARK    3  A    between atoms: O_11  and  C_12
REMARK    4  A    between atoms: C_12  and  C_13
REMARK                            x       y       z     vdW  Elec       q    Type
REMARK                         _______ _______ _______ _____ _____    ______ ____
ROOT
ATOM      1  C   UNL     1       6.813   4.639  14.185  0.00  0.00    +0.000 A 
ATOM      2  C   UNL     1       5.555   4.304  14.628  0.00  0.00    +0.000 A 
ATOM      3  N   UNL     1       5.647   4.319  15.987  0.00  0.00    +0.000 N 
ATOM      4  C   UNL     1       6.933   4.660  16.327  0.00  0.00    +0.000 A 
ATOM      5  N   UNL     1       7.651   4.881  15.242  0.00  0.00    +0.000 NA
ATOM      6  C   UNL     1       7.418   4.676  17.739  0.00  0.00    +0.000 C 
ATOM      7  N   UNL     1       6.692   5.527  18.693  0.00  0.00    +0.000 NA
ATOM      8  C   UNL     1       5.379   6.021  18.289  0.00  0.00    +0.000 C 
ATOM      9  C   UNL     1       4.311   4.938  18.059  0.00  0.00    +0.000 C 
ATOM     10  C   UNL     1       4.610   3.935  16.923  0.00  0.00    +0.000 C 
ATOM     11  H   UNL     1       7.287   6.330  18.903  0.00  0.00    +0.000 HD
ENDROOT
BRANCH   9  12
ATOM     12  C   UNL     1       2.942   5.610  17.858  0.00  0.00    +0.000 C 
BRANCH  12  13
ATOM     13  O   UNL     1       1.960   4.887  18.597  0.00  0.00    +0.000 OA
BRANCH  13  14
ATOM     14  C   UNL     1       2.063   5.109  20.000  0.00  0.00    +0.000 C 
BRANCH  14  15
ATOM     15  C   UNL     1       1.262   4.053  20.693  0.00  0.00    +0.000 C 
ATOM     16  C   UNL     1       1.407   2.606  20.297  0.00  0.00    +0.000 C 
ATOM     17  C   UNL     1       1.916   3.071  21.633  0.00  0.00    +0.000 C 
ENDBRANCH  14  15
ENDBRANCH  13  14
ENDBRANCH  12  13
ENDBRANCH   9  12
TORSDOF 4
ENDMDL
MODEL 3
REMARK VINA RESULT:      -6.2      2.648      6.143
REMARK  Name = 
REMARK  4 active torsions:
REMARK  status: ('A' for Active; 'I' for Inactive)
REMARK    1  A    between atoms: C_9  and  C_10
REMARK    2  A    between atoms: C_10  and  O_11
REMARK    3  A    between atoms: O_11  and  C_12
REMARK    4  A    between atoms: C_12  and  C_13
REMARK                            x       y       z     vdW  Elec       q    Type
REMARK                         _______ _______ _______ _____ _____    ______ ____
ROOT
ATOM      1  C   UNL     1       1.420   2.715  21.597  0.00  0.00    +0.000 A 
ATOM      2  C   UNL     1       2.791   2.745  21.490  0.00  0.00    +0.000 A 
ATOM      3  N   UNL     1       3.035   2.931  20.163  0.00  0.00    +0.000 N 
ATOM      4  C   UNL     1       1.829   3.011  19.511  0.00  0.00    +0.000 A 
ATOM      5  N   UNL     1       0.834   2.905  20.372  0.00  0.00    +0.000 NA
ATOM      6  C   UNL     1       1.719   3.115  18.025  0.00  0.00    +0.000 C 
ATOM      7  N   UNL     1       2.410   4.237  17.374  0.00  0.00    +0.000 NA
ATOM      8  C   UNL     1       3.409   4.957  18.158  0.00  0.00    +0.000 C 
ATOM      9  C   UNL     1       4.631   4.128  18.588  0.00  0.00    +0.000 C 
ATOM     10  C   UNL     1       4.333   2.932  19.519  0.00  0.00    +0.000 C 
ATOM     11  H   UNL     1       1.698   4.902  17.070  0.00  0.00    +0.000 HD
ENDROOT
BRANCH   9  12
ATOM     12  C   UNL     1       5.686   5.062  19.206  0.00  0.00    +0.000 C 
BRANCH  12  13
ATOM     13  O   UNL     1       6.487   5.608  18.160  0.00  0.00    +0.000 OA
BRANCH  13  14
ATOM     14  C   UNL     1       6.964   4.610  17.263  0.00  0.00    +0.000 C 
BRANCH  14  15
ATOM     15  C   UNL     1       6.915   5.175  15.879  0.00  0.00    +0.000 C 
ATOM     16  C   UNL     1       6.587   4.286  14.706  0.00  0.00    +0.000 C 
ATOM     17  C   UNL     1       5.603   5.334  15.150  0.00  0.00    +0.000 C 
ENDBRANCH  14  15
ENDBRANCH  13  14
ENDBRANCH  12  13
ENDBRANCH   9  12
TORSDOF 4
ENDMDL
MODEL 4
REMARK VINA RESULT:      -6.2      2.498      5.875
REMARK  Name = 
REMARK  4 active torsions:
REMARK  status: ('A' for Active; 'I' for Inactive)
REMARK    1  A    between atoms: C_9  and  C_10
REMARK    2  A    between atoms: C_10  and  O_11
REMARK    3  A    between atoms: O_11  and  C_12
REMARK    4  A    between atoms: C_12  and  C_13
REMARK                            x       y       z     vdW  Elec       q    Type
REMARK                         _______ _______ _______ _____ _____    ______ ____
ROOT
ATOM      1  C   UNL     1       3.230   4.118  19.023  0.00  0.00    +0.000 A 
ATOM      2  C   UNL     1       3.321   4.433  17.687  0.00  0.00    +0.000 A 
ATOM      3  N   UNL     1       4.542   5.020  17.547  0.00  0.00    +0.000 N 
ATOM      4  C   UNL     1       5.152   5.042  18.778  0.00  0.00    +0.000 A 
ATOM      5  N   UNL     1       4.377   4.477  19.683  0.00  0.00    +0.000 NA
ATOM      6  C   UNL     1       6.468   5.706  19.015  0.00  0.00    +0.000 C 
ATOM      7  N   UNL     1       7.607   5.259  18.200  0.00  0.00    +0.000 NA
ATOM      8  C   UNL     1       7.311   4.461  17.013  0.00  0.00    +0.000 C 
ATOM      9  C   UNL     1       6.493   5.178  15.926  0.00  0.00    +0.000 C 
ATOM     10  C   UNL     1       5.074   5.622  16.342  0.00  0.00    +0.000 C 
ATOM     11  H   UNL     1       8.225   4.717  18.806  0.00  0.00    +0.000 HD
ENDROOT
BRANCH   9  12
ATOM     12  C   UNL     1       6.451   4.301  14.662  0.00  0.00    +0.000 C 
BRANCH  12  13
ATOM     13  O   UNL     1       7.108   4.991  13.600  0.00  0.00    +0.000 OA
BRANCH  13  14
ATOM     14  C   UNL     1       6.960   4.328  12.348  0.00  0.00    +0.000 C 
BRANCH  14  15
ATOM     15  C   UNL     1       5.903   3.282  12.504  0.00  0.00    +0.000 C 
ATOM     16  C   UNL     1       4.695   3.280  11.603  0.00  0.00    +0.000 C 
ATOM     17  C   UNL     1       5.727   2.194  11.473  0.00  0.00    +0.000 C 
ENDBRANCH  14  15
ENDBRANCH  13  14
ENDBRANCH  12  13
ENDBRANCH   9  12
TORSDOF 4
ENDMDL
MODEL 5
REMARK VINA RESULT:      -6.1      2.761      5.879
REMARK  Name = 
REMARK  4 active torsions:
REMARK  status: ('A' for Active; 'I' for Inactive)
REMARK    1  A    between atoms: C_9  and  C_10
REMARK    2  A    between atoms: C_10  and  O_11
REMARK    3  A    between atoms: O_11  and  C_12
REMARK    4  A    between atoms: C_12  and  C_13
REMARK                            x       y       z     vdW  Elec       q    Type
REMARK                         _______ _______ _______ _____ _____    ______ ____
ROOT
ATOM      1  C   UNL     1       1.539   5.294  20.770  0.00  0.00    +0.000 A 
ATOM      2  C   UNL     1       2.863   5.314  20.399  0.00  0.00    +0.000 A 
ATOM      3  N   UNL     1       3.041   4.177  19.671  0.00  0.00    +0.000 N 
ATOM      4  C   UNL     1       1.841   3.510  19.616  0.00  0.00    +0.000 A 
ATOM      5  N   UNL     1       0.910   4.187  20.261  0.00  0.00    +0.000 NA
ATOM      6  C   UNL     1       1.692   2.168  18.979  0.00  0.00    +0.000 C 
ATOM      7  N   UNL     1       2.092   2.040  17.571  0.00  0.00    +0.000 NA
ATOM      8  C   UNL     1       2.905   3.113  17.003  0.00  0.00    +0.000 C 
ATOM      9  C   UNL     1       4.292   3.296  17.642  0.00  0.00    +0.000 C 
ATOM     10  C   UNL     1       4.294   3.685  19.136  0.00  0.00    +0.000 C 
ATOM     11  H   UNL     1       1.241   1.953  17.015  0.00  0.00    +0.000 HD
ENDROOT
BRANCH   9  12
ATOM     12  C   UNL     1       5.106   4.299  16.806  0.00  0.00    +0.000 C 
BRANCH  12  13
ATOM     13  O   UNL     1       4.420   5.550  16.788  0.00  0.00    +0.000 OA
BRANCH  13  14
ATOM     14  C   UNL     1       5.130   6.570  17.483  0.00  0.00    +0.000 C 
BRANCH  14  15
ATOM     15  C   UNL     1       6.592   6.345  17.261  0.00  0.00    +0.000 C 
ATOM     16  C   UNL     1       7.576   7.466  17.476  0.00  0.00    +0.000 C 
ATOM     17  C   UNL     1       7.557   6.295  18.420  0.00  0.00    +0.000 C 
ENDBRANCH  14  15
ENDBRANCH  13  14
ENDBRANCH  12  13
ENDBRANCH   9  12
TORSDOF 4
ENDMDL
MODEL 6
REMARK VINA RESULT:      -6.1      2.969      6.095
REMARK  Name = 
REMARK  4 active torsions:
REMARK  status: ('A' for Active; 'I' for Inactive)
REMARK    1  A    between atoms: C_9  and  C_10
REMARK    2  A    between atoms: C_10  and  O_11
REMARK    3  A    between atoms: O_11  and  C_12
REMARK    4  A    between atoms: C_12  and  C_13
REMARK                            x       y       z     vdW  Elec       q    Type
REMARK                         _______ _______ _______ _____ _____    ______ ____
ROOT
ATOM      1  C   UNL     1       2.495   2.739  21.766  0.00  0.00    +0.000 A 
ATOM      2  C   UNL     1       3.528   2.474  20.897  0.00  0.00    +0.000 A 
ATOM      3  N   UNL     1       2.970   2.541  19.657  0.00  0.00    +0.000 N 
ATOM      4  C   UNL     1       1.638   2.843  19.801  0.00  0.00    +0.000 A 
ATOM      5  N   UNL     1       1.336   2.990  21.077  0.00  0.00    +0.000 NA
ATOM      6  C   UNL     1       0.693   2.898  18.646  0.00  0.00    +0.000 C 
ATOM      7  N   UNL     1       1.021   3.816  17.547  0.00  0.00    +0.000 NA
ATOM      8  C   UNL     1       2.381   4.346  17.497  0.00  0.00    +0.000 C 
ATOM      9  C   UNL     1       3.488   3.299  17.287  0.00  0.00    +0.000 C 
ATOM     10  C   UNL     1       3.626   2.239  18.401  0.00  0.00    +0.000 C 
ATOM     11  H   UNL     1       0.371   4.602  17.598  0.00  0.00    +0.000 HD
ENDROOT
BRANCH   9  12
ATOM     12  C   UNL     1       4.825   4.018  17.037  0.00  0.00    +0.000 C 
BRANCH  12  13
ATOM     13  O   UNL     1       5.053   4.949  18.093  0.00  0.00    +0.000 OA
BRANCH  13  14
ATOM     14  C   UNL     1       5.392   6.246  17.610  0.00  0.00    +0.000 C 
BRANCH  14  15
ATOM     15  C   UNL     1       6.874   6.291  17.418  0.00  0.00    +0.000 C 
ATOM     16  C   UNL     1       7.623   7.590  17.577  0.00  0.00    +0.000 C 
ATOM     17  C   UNL     1       7.805   6.492  18.588  0.00  0.00    +0.000 C 
ENDBRANCH  14  15
ENDBRANCH  13  14
ENDBRANCH  12  13
ENDBRANCH   9  12
TORSDOF 4
ENDMDL
MODEL 7
REMARK VINA RESULT:      -6.0      1.567      2.733
REMARK  Name = 
REMARK  4 active torsions:
REMARK  status: ('A' for Active; 'I' for Inactive)
REMARK    1  A    between atoms: C_9  and  C_10
REMARK    2  A    between atoms: C_10  and  O_11
REMARK    3  A    between atoms: O_11  and  C_12
REMARK    4  A    between atoms: C_12  and  C_13
REMARK                            x       y       z     vdW  Elec       q    Type
REMARK                         _______ _______ _______ _____ _____    ______ ____
ROOT
ATOM      1  C   UNL     1       7.850   6.101  18.978  0.00  0.00    +0.000 A 
ATOM      2  C   UNL     1       6.792   5.394  19.500  0.00  0.00    +0.000 A 
ATOM      3  N   UNL     1       5.840   5.416  18.526  0.00  0.00    +0.000 N 
ATOM      4  C   UNL     1       6.337   6.120  17.456  0.00  0.00    +0.000 A 
ATOM      5  N   UNL     1       7.568   6.525  17.705  0.00  0.00    +0.000 NA
ATOM      6  C   UNL     1       5.522   6.428  16.243  0.00  0.00    +0.000 C 
ATOM      7  N   UNL     1       4.930   5.293  15.521  0.00  0.00    +0.000 NA
ATOM      8  C   UNL     1       4.894   4.005  16.207  0.00  0.00    +0.000 C 
ATOM      9  C   UNL     1       4.036   3.963  17.483  0.00  0.00    +0.000 C 
ATOM     10  C   UNL     1       4.493   4.893  18.627  0.00  0.00    +0.000 C 
ATOM     11  H   UNL     1       5.449   5.179  14.649  0.00  0.00    +0.000 HD
ENDROOT
BRANCH   9  12
ATOM     12  C   UNL     1       3.915   2.507  17.965  0.00  0.00    +0.000 C 
BRANCH  12  13
ATOM     13  O   UNL     1       3.187   2.486  19.192  0.00  0.00    +0.000 OA
BRANCH  13  14
ATOM     14  C   UNL     1       1.778   2.447  18.986  0.00  0.00    +0.000 C 
BRANCH  14  15
ATOM     15  C   UNL     1       1.120   2.987  20.216  0.00  0.00    +0.000 C 
ATOM     16  C   UNL     1       1.953   3.523  21.352  0.00  0.00    +0.000 C 
ATOM     17  C   UNL     1       1.130   4.466  20.518  0.00  0.00    +0.000 C 
ENDBRANCH  14  15
ENDBRANCH  13  14
ENDBRANCH  12  13
ENDBRANCH   9  12
TORSDOF 4
ENDMDL
MODEL 8
REMARK VINA RESULT:      -6.0      1.333      2.757
REMARK  Name = 
REMARK  4 active torsions:
REMARK  status: ('A' for Active; 'I' for Inactive)
REMARK    1  A    between atoms: C_9  and  C_10
REMARK    2  A    between atoms: C_10  and  O_11
REMARK    3  A    between atoms: O_11  and  C_12
REMARK    4  A    between atoms: C_12  and  C_13
REMARK                            x       y       z     vdW  Elec       q    Type
REMARK                         _______ _______ _______ _____ _____    ______ ____
ROOT
ATOM      1  C   UNL     1       8.312   5.027  18.927  0.00  0.00    +0.000 A 
ATOM      2  C   UNL     1       7.283   5.933  19.038  0.00  0.00    +0.000 A 
ATOM      3  N   UNL     1       6.521   5.736  17.926  0.00  0.00    +0.000 N 
ATOM      4  C   UNL     1       7.094   4.732  17.185  0.00  0.00    +0.000 A 
ATOM      5  N   UNL     1       8.173   4.273  17.791  0.00  0.00    +0.000 NA
ATOM      6  C   UNL     1       6.577   4.319  15.847  0.00  0.00    +0.000 C 
ATOM      7  N   UNL     1       5.172   3.893  15.768  0.00  0.00    +0.000 NA
ATOM      8  C   UNL     1       4.307   4.216  16.899  0.00  0.00    +0.000 C 
ATOM      9  C   UNL     1       4.098   5.717  17.160  0.00  0.00    +0.000 C 
ATOM     10  C   UNL     1       5.369   6.516  17.524  0.00  0.00    +0.000 C 
ATOM     11  H   UNL     1       5.165   2.881  15.635  0.00  0.00    +0.000 HD
ENDROOT
BRANCH   9  12
ATOM     12  C   UNL     1       3.004   5.899  18.227  0.00  0.00    +0.000 C 
BRANCH  12  13
ATOM     13  O   UNL     1       2.965   4.736  19.051  0.00  0.00    +0.000 OA
BRANCH  13  14
ATOM     14  C   UNL     1       2.423   5.001  20.341  0.00  0.00    +0.000 C 
BRANCH  14  15
ATOM     15  C   UNL     1       1.214   4.139  20.518  0.00  0.00    +0.000 C 
ATOM     16  C   UNL     1       1.108   2.821  19.795  0.00  0.00    +0.000 C 
ATOM     17  C   UNL     1       1.288   2.843  21.287  0.00  0.00    +0.000 C 
ENDBRANCH  14  15
ENDBRANCH  13  14
ENDBRANCH  12  13
ENDBRANCH   9  12
TORSDOF 4
ENDMDL
MODEL 9
REMARK VINA RESULT:      -6.0      1.075      1.221
REMARK  Name = 
REMARK  4 active torsions:
REMARK  status: ('A' for Active; 'I' for Inactive)
REMARK    1  A    between atoms: C_9  and  C_10
REMARK    2  A    between atoms: C_10  and  O_11
REMARK    3  A    between atoms: O_11  and  C_12
REMARK    4  A    between atoms: C_12  and  C_13
REMARK                            x       y       z     vdW  Elec       q    Type
REMARK                         _______ _______ _______ _____ _____    ______ ____
ROOT
ATOM      1  C   UNL     1       6.828   4.436  13.851  0.00  0.00    +0.000 A 
ATOM      2  C   UNL     1       5.969   3.720  14.652  0.00  0.00    +0.000 A 
ATOM      3  N   UNL     1       6.014   4.344  15.861  0.00  0.00    +0.000 N 
ATOM      4  C   UNL     1       6.880   5.406  15.764  0.00  0.00    +0.000 A 
ATOM      5  N   UNL     1       7.368   5.491  14.541  0.00  0.00    +0.000 NA
ATOM      6  C   UNL     1       7.248   6.257  16.935  0.00  0.00    +0.000 C 
ATOM      7  N   UNL     1       6.154   6.916  17.662  0.00  0.00    +0.000 NA
ATOM      8  C   UNL     1       4.797   6.437  17.412  0.00  0.00    +0.000 C 
ATOM      9  C   UNL     1       4.528   4.980  17.821  0.00  0.00    +0.000 C 
ATOM     10  C   UNL     1       5.358   3.912  17.078  0.00  0.00    +0.000 C 
ATOM     11  H   UNL     1       6.191   7.911  17.438  0.00  0.00    +0.000 HD
ENDROOT
BRANCH   9  12
ATOM     12  C   UNL     1       3.020   4.691  17.706  0.00  0.00    +0.000 C 
BRANCH  12  13
ATOM     13  O   UNL     1       2.710   3.538  18.486  0.00  0.00    +0.000 OA
BRANCH  13  14
ATOM     14  C   UNL     1       3.240   3.616  19.805  0.00  0.00    +0.000 C 
BRANCH  14  15
ATOM     15  C   UNL     1       2.100   3.848  20.745  0.00  0.00    +0.000 C 
ATOM     16  C   UNL     1       0.742   3.262  20.454  0.00  0.00    +0.000 C 
ATOM     17  C   UNL     1       1.557   2.731  21.601  0.00  0.00    +0.000 C 
ENDBRANCH  14  15
ENDBRANCH  13  14
ENDBRANCH  12  13
ENDBRANCH   9  12
TORSDOF 4
ENDMDL
