MODEL 1
REMARK VINA RESULT:      -8.0      0.000      0.000
REMARK  Name = 
REMARK  6 active torsions:
REMARK  status: ('A' for Active; 'I' for Inactive)
REMARK    1  A    between atoms: C_1  and  O_2
REMARK    2  A    between atoms: O_2  and  C_3
REMARK    3  A    between atoms: C_14  and  C_15
REMARK    4  A    between atoms: C_15  and  N_16
REMARK    5  A    between atoms: N_19  and  C_20
REMARK    6  A    between atoms: C_28  and  C_29
REMARK                            x       y       z     vdW  Elec       q    Type
REMARK                         _______ _______ _______ _____ _____    ______ ____
ROOT
ATOM      1  C   UNL     1       6.308   4.472  15.849  0.00  0.00    +0.000 A 
ATOM      2  C   UNL     1       7.373   5.382  15.882  0.00  0.00    +0.000 A 
ATOM      3  C   UNL     1       7.339   6.483  16.744  0.00  0.00    +0.000 A 
ATOM      4  C   UNL     1       6.239   6.697  17.575  0.00  0.00    +0.000 A 
ATOM      5  C   UNL     1       5.170   5.801  17.540  0.00  0.00    +0.000 A 
ATOM      6  C   UNL     1       5.191   4.668  16.685  0.00  0.00    +0.000 A 
ATOM      7  N   UNL     1       4.121   3.717  16.671  0.00  0.00    +0.000 NA
ATOM      8  C   UNL     1       3.082   3.897  17.440  0.00  0.00    +0.000 A 
ATOM      9  N   UNL     1       2.052   2.994  17.483  0.00  0.00    +0.000 N 
ATOM     10  N   UNL     1       2.999   5.038  18.255  0.00  0.00    +0.000 N 
ATOM     11  N   UNL     1       1.935   5.332  19.029  0.00  0.00    +0.000 NA
ATOM     12  C   UNL     1       2.387   6.426  19.667  0.00  0.00    +0.000 A 
ATOM     13  N   UNL     1       3.629   6.878  19.248  0.00  0.00    +0.000 NA
ATOM     14  C   UNL     1       3.984   5.975  18.357  0.00  0.00    +0.000 A 
ATOM     15  H   UNL     1       2.008   2.348  16.704  0.00  0.00    +0.000 HD
ATOM     16  H   UNL     1       1.169   3.342  17.840  0.00  0.00    +0.000 HD
ENDROOT
BRANCH   1  18
ATOM     17  C   UNL     1       6.165   3.666  13.607  0.00  0.00    +0.000 C 
ATOM     18  O   UNL     1       6.249   3.393  14.998  0.00  0.00    +0.000 OA
ENDBRANCH   1  18
BRANCH  12  19
ATOM     19  C   UNL     1       1.637   7.057  20.809  0.00  0.00    +0.000 C 
BRANCH  19  20
ATOM     20  N   UNL     1       1.578   8.527  20.650  0.00  0.00    +0.000 NA
ATOM     21  C   UNL     1       1.248   8.897  19.255  0.00  0.00    +0.000 C 
ATOM     22  C   UNL     1       1.098  10.412  19.013  0.00  0.00    +0.000 C 
ATOM     23  N   UNL     1       0.218  11.052  19.998  0.00  0.00    +0.000 N 
ATOM     24  C   UNL     1       0.571  10.734  21.394  0.00  0.00    +0.000 C 
ATOM     25  C   UNL     1       0.696   9.196  21.639  0.00  0.00    +0.000 C 
ATOM     26  C   UNL     1      -0.696   8.570  21.818  0.00  0.00    +0.000 C 
BRANCH  23  27
ATOM     27  C   UNL     1      -1.101  11.378  19.699  0.00  0.00    +0.000 A 
ATOM     28  C   UNL     1      -1.797  12.241  20.564  0.00  0.00    +0.000 A 
ATOM     29  C   UNL     1      -3.118  12.633  20.321  0.00  0.00    +0.000 A 
ATOM     30  C   UNL     1      -3.787  12.163  19.196  0.00  0.00    +0.000 A 
ATOM     31  C   UNL     1      -3.126  11.313  18.314  0.00  0.00    +0.000 A 
ATOM     32  C   UNL     1      -1.802  10.942  18.561  0.00  0.00    +0.000 A 
ATOM     33  F   UNL     1      -1.226  10.113  17.674  0.00  0.00    +0.000 F 
ENDBRANCH  23  27
ENDBRANCH  19  20
ENDBRANCH  12  19
TORSDOF 4
ENDMDL
MODEL 2
REMARK VINA RESULT:      -8.0      0.850      1.203
REMARK  Name = 
REMARK  6 active torsions:
REMARK  status: ('A' for Active; 'I' for Inactive)
REMARK    1  A    between atoms: C_1  and  O_2
REMARK    2  A    between atoms: O_2  and  C_3
REMARK    3  A    between atoms: C_14  and  C_15
REMARK    4  A    between atoms: C_15  and  N_16
REMARK    5  A    between atoms: N_19  and  C_20
REMARK    6  A    between atoms: C_28  and  C_29
REMARK                            x       y       z     vdW  Elec       q    Type
REMARK                         _______ _______ _______ _____ _____    ______ ____
ROOT
ATOM      1  C   UNL     1       6.225   4.463  15.749  0.00  0.00    +0.000 A 
ATOM      2  C   UNL     1       7.285   5.381  15.748  0.00  0.00    +0.000 A 
ATOM      3  C   UNL     1       7.264   6.489  16.602  0.00  0.00    +0.000 A 
ATOM      4  C   UNL     1       6.183   6.703  17.457  0.00  0.00    +0.000 A 
ATOM      5  C   UNL     1       5.120   5.800  17.457  0.00  0.00    +0.000 A 
ATOM      6  C   UNL     1       5.128   4.659  16.612  0.00  0.00    +0.000 A 
ATOM      7  N   UNL     1       4.065   3.702  16.632  0.00  0.00    +0.000 NA
ATOM      8  C   UNL     1       3.044   3.882  17.425  0.00  0.00    +0.000 A 
ATOM      9  N   UNL     1       2.021   2.972  17.501  0.00  0.00    +0.000 N 
ATOM     10  N   UNL     1       2.973   5.029  18.231  0.00  0.00    +0.000 N 
ATOM     11  N   UNL     1       1.926   5.322  19.029  0.00  0.00    +0.000 NA
ATOM     12  C   UNL     1       2.387   6.426  19.646  0.00  0.00    +0.000 A 
ATOM     13  N   UNL     1       3.615   6.882  19.193  0.00  0.00    +0.000 NA
ATOM     14  C   UNL     1       3.954   5.973  18.301  0.00  0.00    +0.000 A 
ATOM     15  H   UNL     1       1.963   2.319  16.729  0.00  0.00    +0.000 HD
ATOM     16  H   UNL     1       1.145   3.317  17.876  0.00  0.00    +0.000 HD
ENDROOT
BRANCH   1  18
ATOM     17  C   UNL     1       6.257   3.624  13.515  0.00  0.00    +0.000 C 
ATOM     18  O   UNL     1       6.154   3.376  14.910  0.00  0.00    +0.000 OA
ENDBRANCH   1  18
BRANCH  12  19
ATOM     19  C   UNL     1       1.660   7.061  20.800  0.00  0.00    +0.000 C 
BRANCH  19  20
ATOM     20  N   UNL     1       1.580   8.529  20.626  0.00  0.00    +0.000 NA
ATOM     21  C   UNL     1       1.298   8.881  19.216  0.00  0.00    +0.000 C 
ATOM     22  C   UNL     1       1.129  10.391  18.955  0.00  0.00    +0.000 C 
ATOM     23  N   UNL     1       0.200  11.022  19.899  0.00  0.00    +0.000 N 
ATOM     24  C   UNL     1       0.504  10.723  21.310  0.00  0.00    +0.000 C 
ATOM     25  C   UNL     1       0.648   9.190  21.574  0.00  0.00    +0.000 C 
ATOM     26  C   UNL     1      -0.737   8.539  21.705  0.00  0.00    +0.000 C 
BRANCH  23  27
ATOM     27  C   UNL     1      -1.112  11.320  19.547  0.00  0.00    +0.000 A 
ATOM     28  C   UNL     1      -1.700  10.624  18.476  0.00  0.00    +0.000 A 
ATOM     29  C   UNL     1      -3.022  10.852  18.075  0.00  0.00    +0.000 A 
ATOM     30  C   UNL     1      -3.797  11.796  18.740  0.00  0.00    +0.000 A 
ATOM     31  C   UNL     1      -3.250  12.497  19.811  0.00  0.00    +0.000 A 
ATOM     32  C   UNL     1      -1.934  12.249  20.210  0.00  0.00    +0.000 A 
ATOM     33  F   UNL     1      -1.466  12.967  21.245  0.00  0.00    +0.000 F 
ENDBRANCH  23  27
ENDBRANCH  19  20
ENDBRANCH  12  19
TORSDOF 4
ENDMDL
MODEL 3
REMARK VINA RESULT:      -7.9      3.545      4.434
REMARK  Name = 
REMARK  6 active torsions:
REMARK  status: ('A' for Active; 'I' for Inactive)
REMARK    1  A    between atoms: C_1  and  O_2
REMARK    2  A    between atoms: O_2  and  C_3
REMARK    3  A    between atoms: C_14  and  C_15
REMARK    4  A    between atoms: C_15  and  N_16
REMARK    5  A    between atoms: N_19  and  C_20
REMARK    6  A    between atoms: C_28  and  C_29
REMARK                            x       y       z     vdW  Elec       q    Type
REMARK                         _______ _______ _______ _____ _____    ______ ____
ROOT
ATOM      1  C   UNL     1       5.220   4.568  18.411  0.00  0.00    +0.000 A 
ATOM      2  C   UNL     1       5.983   4.626  17.237  0.00  0.00    +0.000 A 
ATOM      3  C   UNL     1       5.781   5.654  16.310  0.00  0.00    +0.000 A 
ATOM      4  C   UNL     1       4.809   6.629  16.535  0.00  0.00    +0.000 A 
ATOM      5  C   UNL     1       4.038   6.572  17.697  0.00  0.00    +0.000 A 
ATOM      6  C   UNL     1       4.238   5.548  18.659  0.00  0.00    +0.000 A 
ATOM      7  N   UNL     1       3.485   5.503  19.875  0.00  0.00    +0.000 NA
ATOM      8  C   UNL     1       2.570   6.404  20.106  0.00  0.00    +0.000 A 
ATOM      9  N   UNL     1       1.850   6.418  21.273  0.00  0.00    +0.000 N 
ATOM     10  N   UNL     1       2.304   7.398  19.150  0.00  0.00    +0.000 N 
ATOM     11  N   UNL     1       1.334   8.326  19.282  0.00  0.00    +0.000 NA
ATOM     12  C   UNL     1       1.560   9.077  18.189  0.00  0.00    +0.000 A 
ATOM     13  N   UNL     1       2.547   8.597  17.342  0.00  0.00    +0.000 NA
ATOM     14  C   UNL     1       2.994   7.537  17.983  0.00  0.00    +0.000 A 
ATOM     15  H   UNL     1       1.865   5.556  21.802  0.00  0.00    +0.000 HD
ATOM     16  H   UNL     1       0.972   6.925  21.249  0.00  0.00    +0.000 HD
ENDROOT
BRANCH   1  18
ATOM     17  C   UNL     1       4.395   2.500  19.270  0.00  0.00    +0.000 C 
ATOM     18  O   UNL     1       5.330   3.567  19.347  0.00  0.00    +0.000 OA
ENDBRANCH   1  18
BRANCH  12  19
ATOM     19  C   UNL     1       0.853  10.384  17.954  0.00  0.00    +0.000 C 
BRANCH  19  20
ATOM     20  N   UNL     1       1.498  11.475  18.717  0.00  0.00    +0.000 NA
ATOM     21  C   UNL     1       2.426  12.246  17.860  0.00  0.00    +0.000 C 
ATOM     22  C   UNL     1       3.093  13.449  18.557  0.00  0.00    +0.000 C 
ATOM     23  N   UNL     1       2.123  14.297  19.259  0.00  0.00    +0.000 N 
ATOM     24  C   UNL     1       1.229  13.546  20.159  0.00  0.00    +0.000 C 
ATOM     25  C   UNL     1       0.536  12.345  19.439  0.00  0.00    +0.000 C 
ATOM     26  C   UNL     1      -0.662  12.837  18.613  0.00  0.00    +0.000 C 
BRANCH  23  27
ATOM     27  C   UNL     1       1.672  15.497  18.717  0.00  0.00    +0.000 A 
ATOM     28  C   UNL     1       0.341  15.885  18.948  0.00  0.00    +0.000 A 
ATOM     29  C   UNL     1      -0.181  17.087  18.455  0.00  0.00    +0.000 A 
ATOM     30  C   UNL     1       0.624  17.939  17.707  0.00  0.00    +0.000 A 
ATOM     31  C   UNL     1       1.951  17.590  17.467  0.00  0.00    +0.000 A 
ATOM     32  C   UNL     1       2.462  16.395  17.977  0.00  0.00    +0.000 A 
ATOM     33  F   UNL     1       3.747  16.115  17.701  0.00  0.00    +0.000 F 
ENDBRANCH  23  27
ENDBRANCH  19  20
ENDBRANCH  12  19
TORSDOF 4
ENDMDL
MODEL 4
REMARK VINA RESULT:      -7.9      2.788      3.961
REMARK  Name = 
REMARK  6 active torsions:
REMARK  status: ('A' for Active; 'I' for Inactive)
REMARK    1  A    between atoms: C_1  and  O_2
REMARK    2  A    between atoms: O_2  and  C_3
REMARK    3  A    between atoms: C_14  and  C_15
REMARK    4  A    between atoms: C_15  and  N_16
REMARK    5  A    between atoms: N_19  and  C_20
REMARK    6  A    between atoms: C_28  and  C_29
REMARK                            x       y       z     vdW  Elec       q    Type
REMARK                         _______ _______ _______ _____ _____    ______ ____
ROOT
ATOM      1  C   UNL     1       5.063   4.405  18.489  0.00  0.00    +0.000 A 
ATOM      2  C   UNL     1       5.862   4.375  17.338  0.00  0.00    +0.000 A 
ATOM      3  C   UNL     1       5.771   5.395  16.385  0.00  0.00    +0.000 A 
ATOM      4  C   UNL     1       4.875   6.449  16.560  0.00  0.00    +0.000 A 
ATOM      5  C   UNL     1       4.069   6.481  17.698  0.00  0.00    +0.000 A 
ATOM      6  C   UNL     1       4.157   5.466  18.687  0.00  0.00    +0.000 A 
ATOM      7  N   UNL     1       3.367   5.509  19.880  0.00  0.00    +0.000 NA
ATOM      8  C   UNL     1       2.522   6.486  20.065  0.00  0.00    +0.000 A 
ATOM      9  N   UNL     1       1.772   6.584  21.208  0.00  0.00    +0.000 N 
ATOM     10  N   UNL     1       2.365   7.476  19.081  0.00  0.00    +0.000 N 
ATOM     11  N   UNL     1       1.471   8.482  19.164  0.00  0.00    +0.000 NA
ATOM     12  C   UNL     1       1.789   9.187  18.063  0.00  0.00    +0.000 A 
ATOM     13  N   UNL     1       2.758   8.611  17.257  0.00  0.00    +0.000 NA
ATOM     14  C   UNL     1       3.098   7.533  17.933  0.00  0.00    +0.000 A 
ATOM     15  H   UNL     1       1.702   5.735  21.755  0.00  0.00    +0.000 HD
ATOM     16  H   UNL     1       0.939   7.160  21.146  0.00  0.00    +0.000 HD
ENDROOT
BRANCH   1  18
ATOM     17  C   UNL     1       4.190   2.318  19.248  0.00  0.00    +0.000 C 
ATOM     18  O   UNL     1       5.064   3.419  19.448  0.00  0.00    +0.000 OA
ENDBRANCH   1  18
BRANCH  12  19
ATOM     19  C   UNL     1       1.197  10.542  17.780  0.00  0.00    +0.000 C 
BRANCH  19  20
ATOM     20  N   UNL     1       0.994  11.298  19.036  0.00  0.00    +0.000 NA
ATOM     21  C   UNL     1       1.838  12.514  19.066  0.00  0.00    +0.000 C 
ATOM     22  C   UNL     1       1.639  13.402  20.310  0.00  0.00    +0.000 C 
ATOM     23  N   UNL     1       0.223  13.681  20.578  0.00  0.00    +0.000 N 
ATOM     24  C   UNL     1      -0.619  12.472  20.605  0.00  0.00    +0.000 C 
ATOM     25  C   UNL     1      -0.432  11.590  19.329  0.00  0.00    +0.000 C 
ATOM     26  C   UNL     1      -1.247  12.165  18.160  0.00  0.00    +0.000 C 
BRANCH  23  27
ATOM     27  C   UNL     1      -0.361  14.895  20.233  0.00  0.00    +0.000 A 
ATOM     28  C   UNL     1      -0.036  15.475  18.993  0.00  0.00    +0.000 A 
ATOM     29  C   UNL     1      -0.599  16.682  18.565  0.00  0.00    +0.000 A 
ATOM     30  C   UNL     1      -1.509  17.352  19.376  0.00  0.00    +0.000 A 
ATOM     31  C   UNL     1      -1.860  16.803  20.606  0.00  0.00    +0.000 A 
ATOM     32  C   UNL     1      -1.302  15.589  21.015  0.00  0.00    +0.000 A 
ATOM     33  F   UNL     1      -1.678  15.120  22.216  0.00  0.00    +0.000 F 
ENDBRANCH  23  27
ENDBRANCH  19  20
ENDBRANCH  12  19
TORSDOF 4
ENDMDL
MODEL 5
REMARK VINA RESULT:      -7.9      2.925      4.364
REMARK  Name = 
REMARK  6 active torsions:
REMARK  status: ('A' for Active; 'I' for Inactive)
REMARK    1  A    between atoms: C_1  and  O_2
REMARK    2  A    between atoms: O_2  and  C_3
REMARK    3  A    between atoms: C_14  and  C_15
REMARK    4  A    between atoms: C_15  and  N_16
REMARK    5  A    between atoms: N_19  and  C_20
REMARK    6  A    between atoms: C_28  and  C_29
REMARK                            x       y       z     vdW  Elec       q    Type
REMARK                         _______ _______ _______ _____ _____    ______ ____
ROOT
ATOM      1  C   UNL     1       3.468   3.436  19.674  0.00  0.00    +0.000 A 
ATOM      2  C   UNL     1       2.637   3.125  20.759  0.00  0.00    +0.000 A 
ATOM      3  C   UNL     1       1.707   4.057  21.230  0.00  0.00    +0.000 A 
ATOM      4  C   UNL     1       1.601   5.314  20.634  0.00  0.00    +0.000 A 
ATOM      5  C   UNL     1       2.431   5.635  19.560  0.00  0.00    +0.000 A 
ATOM      6  C   UNL     1       3.371   4.698  19.054  0.00  0.00    +0.000 A 
ATOM      7  N   UNL     1       4.198   4.998  17.926  0.00  0.00    +0.000 NA
ATOM      8  C   UNL     1       4.116   6.168  17.353  0.00  0.00    +0.000 A 
ATOM      9  N   UNL     1       4.865   6.484  16.249  0.00  0.00    +0.000 N 
ATOM     10  N   UNL     1       3.241   7.140  17.862  0.00  0.00    +0.000 N 
ATOM     11  N   UNL     1       3.141   8.392  17.370  0.00  0.00    +0.000 NA
ATOM     12  C   UNL     1       2.123   8.868  18.109  0.00  0.00    +0.000 A 
ATOM     13  N   UNL     1       1.664   8.011  19.097  0.00  0.00    +0.000 NA
ATOM     14  C   UNL     1       2.393   6.930  18.909  0.00  0.00    +0.000 A 
ATOM     15  H   UNL     1       5.663   5.885  16.081  0.00  0.00    +0.000 HD
ATOM     16  H   UNL     1       4.986   7.473  16.061  0.00  0.00    +0.000 HD
ENDROOT
BRANCH   1  18
ATOM     17  C   UNL     1       3.996   1.366  18.609  0.00  0.00    +0.000 C 
ATOM     18  O   UNL     1       4.435   2.590  19.183  0.00  0.00    +0.000 OA
ENDBRANCH   1  18
BRANCH  12  19
ATOM     19  C   UNL     1       1.477  10.197  17.822  0.00  0.00    +0.000 C 
BRANCH  19  20
ATOM     20  N   UNL     1       1.474  11.051  19.031  0.00  0.00    +0.000 NA
ATOM     21  C   UNL     1       2.239  12.298  18.801  0.00  0.00    +0.000 C 
ATOM     22  C   UNL     1       2.231  13.282  19.988  0.00  0.00    +0.000 C 
ATOM     23  N   UNL     1       0.879  13.526  20.504  0.00  0.00    +0.000 N 
ATOM     24  C   UNL     1       0.127  12.290  20.789  0.00  0.00    +0.000 C 
ATOM     25  C   UNL     1       0.116  11.309  19.573  0.00  0.00    +0.000 C 
ATOM     26  C   UNL     1      -0.937  11.746  18.544  0.00  0.00    +0.000 C 
BRANCH  23  27
ATOM     27  C   UNL     1       0.171  14.680  20.186  0.00  0.00    +0.000 A 
ATOM     28  C   UNL     1       0.297  15.217  18.892  0.00  0.00    +0.000 A 
ATOM     29  C   UNL     1      -0.398  16.362  18.489  0.00  0.00    +0.000 A 
ATOM     30  C   UNL     1      -1.245  17.012  19.382  0.00  0.00    +0.000 A 
ATOM     31  C   UNL     1      -1.400  16.503  20.669  0.00  0.00    +0.000 A 
ATOM     32  C   UNL     1      -0.712  15.350  21.052  0.00  0.00    +0.000 A 
ATOM     33  F   UNL     1      -0.900  14.918  22.310  0.00  0.00    +0.000 F 
ENDBRANCH  23  27
ENDBRANCH  19  20
ENDBRANCH  12  19
TORSDOF 4
ENDMDL
MODEL 6
REMARK VINA RESULT:      -7.8      3.320      4.347
REMARK  Name = 
REMARK  6 active torsions:
REMARK  status: ('A' for Active; 'I' for Inactive)
REMARK    1  A    between atoms: C_1  and  O_2
REMARK    2  A    between atoms: O_2  and  C_3
REMARK    3  A    between atoms: C_14  and  C_15
REMARK    4  A    between atoms: C_15  and  N_16
REMARK    5  A    between atoms: N_19  and  C_20
REMARK    6  A    between atoms: C_28  and  C_29
REMARK                            x       y       z     vdW  Elec       q    Type
REMARK                         _______ _______ _______ _____ _____    ______ ____
ROOT
ATOM      1  C   UNL     1       4.969   4.504  18.319  0.00  0.00    +0.000 A 
ATOM      2  C   UNL     1       5.733   4.530  17.145  0.00  0.00    +0.000 A 
ATOM      3  C   UNL     1       5.614   5.593  16.244  0.00  0.00    +0.000 A 
ATOM      4  C   UNL     1       4.724   6.637  16.496  0.00  0.00    +0.000 A 
ATOM      5  C   UNL     1       3.952   6.614  17.658  0.00  0.00    +0.000 A 
ATOM      6  C   UNL     1       4.070   5.554  18.595  0.00  0.00    +0.000 A 
ATOM      7  N   UNL     1       3.316   5.539  19.811  0.00  0.00    +0.000 NA
ATOM      8  C   UNL     1       2.478   6.506  20.068  0.00  0.00    +0.000 A 
ATOM      9  N   UNL     1       1.762   6.549  21.236  0.00  0.00    +0.000 N 
ATOM     10  N   UNL     1       2.292   7.541  19.137  0.00  0.00    +0.000 N 
ATOM     11  N   UNL     1       1.401   8.541  19.295  0.00  0.00    +0.000 NA
ATOM     12  C   UNL     1       1.685   9.298  18.220  0.00  0.00    +0.000 A 
ATOM     13  N   UNL     1       2.629   8.761  17.358  0.00  0.00    +0.000 NA
ATOM     14  C   UNL     1       2.990   7.653  17.972  0.00  0.00    +0.000 A 
ATOM     15  H   UNL     1       1.709   5.675  21.744  0.00  0.00    +0.000 HD
ATOM     16  H   UNL     1       0.929   7.126  21.227  0.00  0.00    +0.000 HD
ENDROOT
BRANCH   1  18
ATOM     17  C   UNL     1       4.130   2.375  18.995  0.00  0.00    +0.000 C 
ATOM     18  O   UNL     1       4.999   3.474  19.230  0.00  0.00    +0.000 OA
ENDBRANCH   1  18
BRANCH  12  19
ATOM     19  C   UNL     1       1.085  10.663  18.019  0.00  0.00    +0.000 C 
BRANCH  19  20
ATOM     20  N   UNL     1       1.701  11.646  18.938  0.00  0.00    +0.000 NA
ATOM     21  C   UNL     1       2.304  12.770  18.187  0.00  0.00    +0.000 C 
ATOM     22  C   UNL     1       2.908  13.880  19.070  0.00  0.00    +0.000 C 
ATOM     23  N   UNL     1       1.985  14.324  20.122  0.00  0.00    +0.000 N 
ATOM     24  C   UNL     1       1.420  13.216  20.913  0.00  0.00    +0.000 C 
ATOM     25  C   UNL     1       0.786  12.107  20.013  0.00  0.00    +0.000 C 
ATOM     26  C   UNL     1      -0.617  12.532  19.554  0.00  0.00    +0.000 C 
BRANCH  23  27
ATOM     27  C   UNL     1       1.256  15.503  20.006  0.00  0.00    +0.000 A 
ATOM     28  C   UNL     1       0.635  15.796  18.779  0.00  0.00    +0.000 A 
ATOM     29  C   UNL     1      -0.134  16.950  18.590  0.00  0.00    +0.000 A 
ATOM     30  C   UNL     1      -0.300  17.854  19.634  0.00  0.00    +0.000 A 
ATOM     31  C   UNL     1       0.294  17.591  20.866  0.00  0.00    +0.000 A 
ATOM     32  C   UNL     1       1.046  16.427  21.045  0.00  0.00    +0.000 A 
ATOM     33  F   UNL     1       1.598  16.239  22.255  0.00  0.00    +0.000 F 
ENDBRANCH  23  27
ENDBRANCH  19  20
ENDBRANCH  12  19
TORSDOF 4
ENDMDL
MODEL 7
REMARK VINA RESULT:      -7.8      2.866      4.239
REMARK  Name = 
REMARK  6 active torsions:
REMARK  status: ('A' for Active; 'I' for Inactive)
REMARK    1  A    between atoms: C_1  and  O_2
REMARK    2  A    between atoms: O_2  and  C_3
REMARK    3  A    between atoms: C_14  and  C_15
REMARK    4  A    between atoms: C_15  and  N_16
REMARK    5  A    between atoms: N_19  and  C_20
REMARK    6  A    between atoms: C_28  and  C_29
REMARK                            x       y       z     vdW  Elec       q    Type
REMARK                         _______ _______ _______ _____ _____    ______ ____
ROOT
ATOM      1  C   UNL     1       3.469   3.266  19.797  0.00  0.00    +0.000 A 
ATOM      2  C   UNL     1       2.645   2.983  20.894  0.00  0.00    +0.000 A 
ATOM      3  C   UNL     1       1.720   3.929  21.350  0.00  0.00    +0.000 A 
ATOM      4  C   UNL     1       1.615   5.173  20.726  0.00  0.00    +0.000 A 
ATOM      5  C   UNL     1       2.440   5.466  19.640  0.00  0.00    +0.000 A 
ATOM      6  C   UNL     1       3.373   4.515  19.150  0.00  0.00    +0.000 A 
ATOM      7  N   UNL     1       4.195   4.786  18.011  0.00  0.00    +0.000 NA
ATOM      8  C   UNL     1       4.113   5.943  17.412  0.00  0.00    +0.000 A 
ATOM      9  N   UNL     1       4.857   6.231  16.296  0.00  0.00    +0.000 N 
ATOM     10  N   UNL     1       3.245   6.930  17.904  0.00  0.00    +0.000 N 
ATOM     11  N   UNL     1       3.147   8.171  17.385  0.00  0.00    +0.000 NA
ATOM     12  C   UNL     1       2.135   8.667  18.119  0.00  0.00    +0.000 A 
ATOM     13  N   UNL     1       1.679   7.834  19.128  0.00  0.00    +0.000 NA
ATOM     14  C   UNL     1       2.403   6.747  18.960  0.00  0.00    +0.000 A 
ATOM     15  H   UNL     1       5.652   5.626  16.137  0.00  0.00    +0.000 HD
ATOM     16  H   UNL     1       4.980   7.216  16.085  0.00  0.00    +0.000 HD
ENDROOT
BRANCH   1  18
ATOM     17  C   UNL     1       3.985   1.293  18.557  0.00  0.00    +0.000 C 
ATOM     18  O   UNL     1       4.430   2.406  19.319  0.00  0.00    +0.000 OA
ENDBRANCH   1  18
BRANCH  12  19
ATOM     19  C   UNL     1       1.491   9.991  17.806  0.00  0.00    +0.000 C 
BRANCH  19  20
ATOM     20  N   UNL     1       1.675  10.941  18.925  0.00  0.00    +0.000 NA
ATOM     21  C   UNL     1       2.274  12.210  18.452  0.00  0.00    +0.000 C 
ATOM     22  C   UNL     1       2.438  13.287  19.542  0.00  0.00    +0.000 C 
ATOM     23  N   UNL     1       1.209  13.489  20.319  0.00  0.00    +0.000 N 
ATOM     24  C   UNL     1       0.633  12.237  20.843  0.00  0.00    +0.000 C 
ATOM     25  C   UNL     1       0.445  11.158  19.728  0.00  0.00    +0.000 C 
ATOM     26  C   UNL     1      -0.832  11.442  18.922  0.00  0.00    +0.000 C 
BRANCH  23  27
ATOM     27  C   UNL     1       0.362  14.567  20.083  0.00  0.00    +0.000 A 
ATOM     28  C   UNL     1      -0.851  14.642  20.791  0.00  0.00    +0.000 A 
ATOM     29  C   UNL     1      -1.746  15.704  20.625  0.00  0.00    +0.000 A 
ATOM     30  C   UNL     1      -1.450  16.730  19.733  0.00  0.00    +0.000 A 
ATOM     31  C   UNL     1      -0.253  16.693  19.022  0.00  0.00    +0.000 A 
ATOM     32  C   UNL     1       0.638  15.633  19.209  0.00  0.00    +0.000 A 
ATOM     33  F   UNL     1       1.770  15.655  18.485  0.00  0.00    +0.000 F 
ENDBRANCH  23  27
ENDBRANCH  19  20
ENDBRANCH  12  19
TORSDOF 4
ENDMDL
MODEL 8
REMARK VINA RESULT:      -7.8      2.391      3.712
REMARK  Name = 
REMARK  6 active torsions:
REMARK  status: ('A' for Active; 'I' for Inactive)
REMARK    1  A    between atoms: C_1  and  O_2
REMARK    2  A    between atoms: O_2  and  C_3
REMARK    3  A    between atoms: C_14  and  C_15
REMARK    4  A    between atoms: C_15  and  N_16
REMARK    5  A    between atoms: N_19  and  C_20
REMARK    6  A    between atoms: C_28  and  C_29
REMARK                            x       y       z     vdW  Elec       q    Type
REMARK                         _______ _______ _______ _____ _____    ______ ____
ROOT
ATOM      1  C   UNL     1       4.641   4.260  18.104  0.00  0.00    +0.000 A 
ATOM      2  C   UNL     1       5.416   4.279  16.936  0.00  0.00    +0.000 A 
ATOM      3  C   UNL     1       5.425   5.406  16.108  0.00  0.00    +0.000 A 
ATOM      4  C   UNL     1       4.652   6.524  16.427  0.00  0.00    +0.000 A 
ATOM      5  C   UNL     1       3.870   6.509  17.582  0.00  0.00    +0.000 A 
ATOM      6  C   UNL     1       3.859   5.382  18.445  0.00  0.00    +0.000 A 
ATOM      7  N   UNL     1       3.095   5.370  19.655  0.00  0.00    +0.000 NA
ATOM      8  C   UNL     1       2.365   6.405  19.972  0.00  0.00    +0.000 A 
ATOM      9  N   UNL     1       1.646   6.449  21.139  0.00  0.00    +0.000 N 
ATOM     10  N   UNL     1       2.305   7.513  19.113  0.00  0.00    +0.000 N 
ATOM     11  N   UNL     1       1.528   8.593  19.334  0.00  0.00    +0.000 NA
ATOM     12  C   UNL     1       1.906   9.384  18.313  0.00  0.00    +0.000 A 
ATOM     13  N   UNL     1       2.795   8.804  17.421  0.00  0.00    +0.000 NA
ATOM     14  C   UNL     1       3.024   7.624  17.960  0.00  0.00    +0.000 A 
ATOM     15  H   UNL     1       1.490   5.555  21.587  0.00  0.00    +0.000 HD
ATOM     16  H   UNL     1       0.881   7.114  21.165  0.00  0.00    +0.000 HD
ENDROOT
BRANCH   1  18
ATOM     17  C   UNL     1       3.676   2.123  18.550  0.00  0.00    +0.000 C 
ATOM     18  O   UNL     1       4.546   3.175  18.943  0.00  0.00    +0.000 OA
ENDBRANCH   1  18
BRANCH  12  19
ATOM     19  C   UNL     1       1.463  10.818  18.202  0.00  0.00    +0.000 C 
BRANCH  19  20
ATOM     20  N   UNL     1       0.678  11.217  19.391  0.00  0.00    +0.000 NA
ATOM     21  C   UNL     1       1.308  12.365  20.082  0.00  0.00    +0.000 C 
ATOM     22  C   UNL     1       0.519  12.894  21.296  0.00  0.00    +0.000 C 
ATOM     23  N   UNL     1      -0.898  13.120  20.987  0.00  0.00    +0.000 N 
ATOM     24  C   UNL     1      -1.551  11.963  20.348  0.00  0.00    +0.000 C 
ATOM     25  C   UNL     1      -0.760  11.448  19.103  0.00  0.00    +0.000 C 
ATOM     26  C   UNL     1      -1.060  12.328  17.880  0.00  0.00    +0.000 C 
BRANCH  23  27
ATOM     27  C   UNL     1      -1.399  14.393  20.736  0.00  0.00    +0.000 A 
ATOM     28  C   UNL     1      -2.561  14.808  21.410  0.00  0.00    +0.000 A 
ATOM     29  C   UNL     1      -3.114  16.081  21.228  0.00  0.00    +0.000 A 
ATOM     30  C   UNL     1      -2.514  16.981  20.353  0.00  0.00    +0.000 A 
ATOM     31  C   UNL     1      -1.357  16.606  19.675  0.00  0.00    +0.000 A 
ATOM     32  C   UNL     1      -0.808  15.338  19.879  0.00  0.00    +0.000 A 
ATOM     33  F   UNL     1       0.304  15.039  19.187  0.00  0.00    +0.000 F 
ENDBRANCH  23  27
ENDBRANCH  19  20
ENDBRANCH  12  19
TORSDOF 4
ENDMDL
MODEL 9
REMARK VINA RESULT:      -7.7      2.434      3.824
REMARK  Name = 
REMARK  6 active torsions:
REMARK  status: ('A' for Active; 'I' for Inactive)
REMARK    1  A    between atoms: C_1  and  O_2
REMARK    2  A    between atoms: O_2  and  C_3
REMARK    3  A    between atoms: C_14  and  C_15
REMARK    4  A    between atoms: C_15  and  N_16
REMARK    5  A    between atoms: N_19  and  C_20
REMARK    6  A    between atoms: C_28  and  C_29
REMARK                            x       y       z     vdW  Elec       q    Type
REMARK                         _______ _______ _______ _____ _____    ______ ____
ROOT
ATOM      1  C   UNL     1       4.572   4.094  17.854  0.00  0.00    +0.000 A 
ATOM      2  C   UNL     1       5.354   4.187  16.695  0.00  0.00    +0.000 A 
ATOM      3  C   UNL     1       5.397   5.379  15.962  0.00  0.00    +0.000 A 
ATOM      4  C   UNL     1       4.652   6.486  16.369  0.00  0.00    +0.000 A 
ATOM      5  C   UNL     1       3.864   6.398  17.517  0.00  0.00    +0.000 A 
ATOM      6  C   UNL     1       3.819   5.204  18.285  0.00  0.00    +0.000 A 
ATOM      7  N   UNL     1       3.049   5.113  19.487  0.00  0.00    +0.000 NA
ATOM      8  C   UNL     1       2.345   6.137  19.887  0.00  0.00    +0.000 A 
ATOM      9  N   UNL     1       1.621   6.105  21.051  0.00  0.00    +0.000 N 
ATOM     10  N   UNL     1       2.318   7.314  19.121  0.00  0.00    +0.000 N 
ATOM     11  N   UNL     1       1.569   8.392  19.428  0.00  0.00    +0.000 NA
ATOM     12  C   UNL     1       1.973   9.254  18.477  0.00  0.00    +0.000 A 
ATOM     13  N   UNL     1       2.850   8.726  17.543  0.00  0.00    +0.000 NA
ATOM     14  C   UNL     1       3.046   7.500  17.984  0.00  0.00    +0.000 A 
ATOM     15  H   UNL     1       1.440   5.181  21.423  0.00  0.00    +0.000 HD
ATOM     16  H   UNL     1       0.874   6.785  21.130  0.00  0.00    +0.000 HD
ENDROOT
BRANCH   1  18
ATOM     17  C   UNL     1       3.591   1.931  18.093  0.00  0.00    +0.000 C 
ATOM     18  O   UNL     1       4.445   2.946  18.601  0.00  0.00    +0.000 OA
ENDBRANCH   1  18
BRANCH  12  19
ATOM     19  C   UNL     1       1.568  10.703  18.484  0.00  0.00    +0.000 C 
BRANCH  19  20
ATOM     20  N   UNL     1       0.396  10.916  19.361  0.00  0.00    +0.000 NA
ATOM     21  C   UNL     1       0.816  11.150  20.761  0.00  0.00    +0.000 C 
ATOM     22  C   UNL     1      -0.340  11.451  21.736  0.00  0.00    +0.000 C 
ATOM     23  N   UNL     1      -1.243  12.491  21.228  0.00  0.00    +0.000 N 
ATOM     24  C   UNL     1      -1.713  12.241  19.853  0.00  0.00    +0.000 C 
ATOM     25  C   UNL     1      -0.534  11.962  18.866  0.00  0.00    +0.000 C 
ATOM     26  C   UNL     1       0.121  13.282  18.432  0.00  0.00    +0.000 C 
BRANCH  23  27
ATOM     27  C   UNL     1      -1.178  13.803  21.684  0.00  0.00    +0.000 A 
ATOM     28  C   UNL     1       0.080  14.349  21.998  0.00  0.00    +0.000 A 
ATOM     29  C   UNL     1       0.230  15.668  22.441  0.00  0.00    +0.000 A 
ATOM     30  C   UNL     1      -0.887  16.484  22.588  0.00  0.00    +0.000 A 
ATOM     31  C   UNL     1      -2.147  15.979  22.278  0.00  0.00    +0.000 A 
ATOM     32  C   UNL     1      -2.281  14.665  21.822  0.00  0.00    +0.000 A 
ATOM     33  F   UNL     1      -3.525  14.239  21.550  0.00  0.00    +0.000 F 
ENDBRANCH  23  27
ENDBRANCH  19  20
ENDBRANCH  12  19
TORSDOF 4
ENDMDL
