MODEL 1
REMARK VINA RESULT:      -6.5      0.000      0.000
REMARK  Name = 
REMARK  10 active torsions:
REMARK  status: ('A' for Active; 'I' for Inactive)
REMARK    1  A    between atoms: C_1  and  O_2
REMARK    2  A    between atoms: O_2  and  C_3
REMARK    3  A    between atoms: C_6  and  O_7
REMARK    4  A    between atoms: O_7  and  C_8
REMARK    5  A    between atoms: C_8  and  C_9
REMARK    6  A    between atoms: C_9  and  C_10
REMARK    7  A    between atoms: C_10  and  N_11
REMARK    8  A    between atoms: N_14  and  C_15
REMARK    9  A    between atoms: C_15  and  C_16
REMARK   10  A    between atoms: C_19  and  C_20
REMARK                            x       y       z     vdW  Elec       q    Type
REMARK                         _______ _______ _______ _____ _____    ______ ____
ROOT
ATOM      1  N   UNL     1       2.070   3.913  17.934  0.00  0.00    +0.000 N 
ATOM      2  C   UNL     1       3.385   3.690  17.624  0.00  0.00    +0.000 C 
ATOM      3  O   UNL     1       4.020   2.720  18.016  0.00  0.00    +0.000 OA
ATOM      4  N   UNL     1       3.909   4.676  16.831  0.00  0.00    +0.000 N 
ATOM      5  H   UNL     1       1.711   4.844  17.781  0.00  0.00    +0.000 HD
ATOM      6  H   UNL     1       3.272   5.173  16.227  0.00  0.00    +0.000 HD
ENDROOT
BRANCH   1   7
ATOM      7  C   UNL     1       1.341   3.017  18.809  0.00  0.00    +0.000 C 
BRANCH   7   8
ATOM      8  C   UNL     1       1.578   3.308  20.291  0.00  0.00    +0.000 C 
BRANCH   8   9
ATOM      9  C   UNL     1       1.252   4.767  20.613  0.00  0.00    +0.000 C 
BRANCH   9  10
ATOM     10  O   UNL     1       2.377   5.588  20.282  0.00  0.00    +0.000 OA
BRANCH  10  14
ATOM     11  C   UNL     1       1.432   9.526  19.229  0.00  0.00    +0.000 A 
ATOM     12  C   UNL     1       1.116   8.998  20.482  0.00  0.00    +0.000 A 
ATOM     13  C   UNL     1       1.454   7.679  20.803  0.00  0.00    +0.000 A 
ATOM     14  C   UNL     1       2.078   6.859  19.864  0.00  0.00    +0.000 A 
ATOM     15  C   UNL     1       2.390   7.386  18.609  0.00  0.00    +0.000 A 
ATOM     16  C   UNL     1       2.067   8.712  18.292  0.00  0.00    +0.000 A 
BRANCH  11  18
ATOM     17  C   UNL     1      -0.353  11.040  18.875  0.00  0.00    +0.000 C 
ATOM     18  O   UNL     1       1.046  10.821  19.022  0.00  0.00    +0.000 OA
ENDBRANCH  11  18
ENDBRANCH  10  14
ENDBRANCH   9  10
ENDBRANCH   8   9
ENDBRANCH   7   8
ENDBRANCH   1   7
BRANCH   4  19
ATOM     19  C   UNL     1       5.252   4.524  16.312  0.00  0.00    +0.000 C 
BRANCH  19  20
ATOM     20  C   UNL     1       6.212   5.294  17.161  0.00  0.00    +0.000 A 
ATOM     21  C   UNL     1       6.862   4.809  18.281  0.00  0.00    +0.000 A 
ATOM     22  S   UNL     1       7.915   5.994  18.920  0.00  0.00    +0.000 S 
ATOM     23  C   UNL     1       7.440   7.073  17.668  0.00  0.00    +0.000 A 
ATOM     24  C   UNL     1       8.051   8.430  17.584  0.00  0.00    +0.000 C 
ATOM     25  N   UNL     1       6.545   6.606  16.825  0.00  0.00    +0.000 NA
ENDBRANCH  19  20
ENDBRANCH   4  19
TORSDOF 8
ENDMDL
MODEL 2
REMARK VINA RESULT:      -6.3      4.404      7.722
REMARK  Name = 
REMARK  10 active torsions:
REMARK  status: ('A' for Active; 'I' for Inactive)
REMARK    1  A    between atoms: C_1  and  O_2
REMARK    2  A    between atoms: O_2  and  C_3
REMARK    3  A    between atoms: C_6  and  O_7
REMARK    4  A    between atoms: O_7  and  C_8
REMARK    5  A    between atoms: C_8  and  C_9
REMARK    6  A    between atoms: C_9  and  C_10
REMARK    7  A    between atoms: C_10  and  N_11
REMARK    8  A    between atoms: N_14  and  C_15
REMARK    9  A    between atoms: C_15  and  C_16
REMARK   10  A    between atoms: C_19  and  C_20
REMARK                            x       y       z     vdW  Elec       q    Type
REMARK                         _______ _______ _______ _____ _____    ______ ____
ROOT
ATOM      1  N   UNL     1       7.101   5.713  19.043  0.00  0.00    +0.000 N 
ATOM      2  C   UNL     1       6.441   4.848  18.211  0.00  0.00    +0.000 C 
ATOM      3  O   UNL     1       6.613   4.805  17.000  0.00  0.00    +0.000 OA
ATOM      4  N   UNL     1       5.564   4.042  18.887  0.00  0.00    +0.000 N 
ATOM      5  H   UNL     1       6.719   5.847  19.967  0.00  0.00    +0.000 HD
ATOM      6  H   UNL     1       5.773   3.835  19.851  0.00  0.00    +0.000 HD
ENDROOT
BRANCH   1   7
ATOM      7  C   UNL     1       8.036   6.692  18.523  0.00  0.00    +0.000 C 
BRANCH   7   8
ATOM      8  C   UNL     1       7.358   7.769  17.675  0.00  0.00    +0.000 C 
BRANCH   8   9
ATOM      9  C   UNL     1       8.148   9.077  17.734  0.00  0.00    +0.000 C 
BRANCH   9  10
ATOM     10  O   UNL     1       8.732   9.220  19.032  0.00  0.00    +0.000 OA
BRANCH  10  14
ATOM     11  C   UNL     1      10.695  12.886  19.496  0.00  0.00    +0.000 A 
ATOM     12  C   UNL     1      10.400  12.359  18.238  0.00  0.00    +0.000 A 
ATOM     13  C   UNL     1       9.735  11.133  18.120  0.00  0.00    +0.000 A 
ATOM     14  C   UNL     1       9.391  10.401  19.257  0.00  0.00    +0.000 A 
ATOM     15  C   UNL     1       9.691  10.927  20.515  0.00  0.00    +0.000 A 
ATOM     16  C   UNL     1      10.342  12.163  20.634  0.00  0.00    +0.000 A 
BRANCH  11  18
ATOM     17  C   UNL     1      11.015  14.979  18.437  0.00  0.00    +0.000 C 
ATOM     18  O   UNL     1      11.354  14.084  19.491  0.00  0.00    +0.000 OA
ENDBRANCH  11  18
ENDBRANCH  10  14
ENDBRANCH   9  10
ENDBRANCH   8   9
ENDBRANCH   7   8
ENDBRANCH   1   7
BRANCH   4  19
ATOM     19  C   UNL     1       4.880   2.988  18.168  0.00  0.00    +0.000 C 
BRANCH  19  20
ATOM     20  C   UNL     1       3.481   2.853  18.677  0.00  0.00    +0.000 A 
ATOM     21  C   UNL     1       2.367   2.585  17.902  0.00  0.00    +0.000 A 
ATOM     22  S   UNL     1       0.974   2.455  18.885  0.00  0.00    +0.000 S 
ATOM     23  C   UNL     1       1.941   2.761  20.273  0.00  0.00    +0.000 A 
ATOM     24  C   UNL     1       1.318   2.766  21.627  0.00  0.00    +0.000 C 
ATOM     25  N   UNL     1       3.220   2.964  20.042  0.00  0.00    +0.000 NA
ENDBRANCH  19  20
ENDBRANCH   4  19
TORSDOF 8
ENDMDL
MODEL 3
REMARK VINA RESULT:      -6.2      4.350      7.539
REMARK  Name = 
REMARK  10 active torsions:
REMARK  status: ('A' for Active; 'I' for Inactive)
REMARK    1  A    between atoms: C_1  and  O_2
REMARK    2  A    between atoms: O_2  and  C_3
REMARK    3  A    between atoms: C_6  and  O_7
REMARK    4  A    between atoms: O_7  and  C_8
REMARK    5  A    between atoms: C_8  and  C_9
REMARK    6  A    between atoms: C_9  and  C_10
REMARK    7  A    between atoms: C_10  and  N_11
REMARK    8  A    between atoms: N_14  and  C_15
REMARK    9  A    between atoms: C_15  and  C_16
REMARK   10  A    between atoms: C_19  and  C_20
REMARK                            x       y       z     vdW  Elec       q    Type
REMARK                         _______ _______ _______ _____ _____    ______ ____
ROOT
ATOM      1  N   UNL     1       7.282   5.403  18.337  0.00  0.00    +0.000 N 
ATOM      2  C   UNL     1       5.982   5.226  17.945  0.00  0.00    +0.000 C 
ATOM      3  O   UNL     1       5.196   6.146  17.760  0.00  0.00    +0.000 OA
ATOM      4  N   UNL     1       5.659   3.904  17.790  0.00  0.00    +0.000 N 
ATOM      5  H   UNL     1       7.768   4.598  18.701  0.00  0.00    +0.000 HD
ATOM      6  H   UNL     1       6.404   3.270  17.545  0.00  0.00    +0.000 HD
ENDROOT
BRANCH   1   7
ATOM      7  C   UNL     1       7.812   6.724  18.610  0.00  0.00    +0.000 C 
BRANCH   7   8
ATOM      8  C   UNL     1       7.844   7.620  17.372  0.00  0.00    +0.000 C 
BRANCH   8   9
ATOM      9  C   UNL     1       7.972   9.090  17.772  0.00  0.00    +0.000 C 
BRANCH   9  10
ATOM     10  O   UNL     1       8.770   9.191  18.955  0.00  0.00    +0.000 OA
BRANCH  10  14
ATOM     11  C   UNL     1      10.791  12.778  19.707  0.00  0.00    +0.000 A 
ATOM     12  C   UNL     1      10.261  11.997  20.735  0.00  0.00    +0.000 A 
ATOM     13  C   UNL     1       9.598  10.799  20.448  0.00  0.00    +0.000 A 
ATOM     14  C   UNL     1       9.422  10.385  19.128  0.00  0.00    +0.000 A 
ATOM     15  C   UNL     1       9.949  11.168  18.099  0.00  0.00    +0.000 A 
ATOM     16  C   UNL     1      10.629  12.360  18.386  0.00  0.00    +0.000 A 
BRANCH  11  18
ATOM     17  C   UNL     1      10.912  15.135  19.528  0.00  0.00    +0.000 C 
ATOM     18  O   UNL     1      11.409  13.931  20.103  0.00  0.00    +0.000 OA
ENDBRANCH  11  18
ENDBRANCH  10  14
ENDBRANCH   9  10
ENDBRANCH   8   9
ENDBRANCH   7   8
ENDBRANCH   1   7
BRANCH   4  19
ATOM     19  C   UNL     1       4.358   3.554  17.259  0.00  0.00    +0.000 C 
BRANCH  19  20
ATOM     20  C   UNL     1       3.329   3.647  18.340  0.00  0.00    +0.000 A 
ATOM     21  C   UNL     1       2.110   4.291  18.235  0.00  0.00    +0.000 A 
ATOM     22  S   UNL     1       1.212   4.108  19.679  0.00  0.00    +0.000 S 
ATOM     23  C   UNL     1       2.499   3.185  20.347  0.00  0.00    +0.000 A 
ATOM     24  C   UNL     1       2.372   2.616  21.719  0.00  0.00    +0.000 C 
ATOM     25  N   UNL     1       3.547   3.023  19.568  0.00  0.00    +0.000 NA
ENDBRANCH  19  20
ENDBRANCH   4  19
TORSDOF 8
ENDMDL
MODEL 4
REMARK VINA RESULT:      -6.1      3.883      7.532
REMARK  Name = 
REMARK  10 active torsions:
REMARK  status: ('A' for Active; 'I' for Inactive)
REMARK    1  A    between atoms: C_1  and  O_2
REMARK    2  A    between atoms: O_2  and  C_3
REMARK    3  A    between atoms: C_6  and  O_7
REMARK    4  A    between atoms: O_7  and  C_8
REMARK    5  A    between atoms: C_8  and  C_9
REMARK    6  A    between atoms: C_9  and  C_10
REMARK    7  A    between atoms: C_10  and  N_11
REMARK    8  A    between atoms: N_14  and  C_15
REMARK    9  A    between atoms: C_15  and  C_16
REMARK   10  A    between atoms: C_19  and  C_20
REMARK                            x       y       z     vdW  Elec       q    Type
REMARK                         _______ _______ _______ _____ _____    ______ ____
ROOT
ATOM      1  N   UNL     1       1.947   7.570  19.889  0.00  0.00    +0.000 N 
ATOM      2  C   UNL     1       1.194   8.675  20.187  0.00  0.00    +0.000 C 
ATOM      3  O   UNL     1       0.525   8.786  21.206  0.00  0.00    +0.000 OA
ATOM      4  N   UNL     1       1.271   9.636  19.215  0.00  0.00    +0.000 N 
ATOM      5  H   UNL     1       2.254   7.465  18.934  0.00  0.00    +0.000 HD
ATOM      6  H   UNL     1       2.113   9.671  18.662  0.00  0.00    +0.000 HD
ENDROOT
BRANCH   1   7
ATOM      7  C   UNL     1       1.962   6.412  20.760  0.00  0.00    +0.000 C 
BRANCH   7   8
ATOM      8  C   UNL     1       1.878   5.091  19.996  0.00  0.00    +0.000 C 
BRANCH   8   9
ATOM      9  C   UNL     1       3.276   4.548  19.700  0.00  0.00    +0.000 C 
BRANCH   9  10
ATOM     10  O   UNL     1       4.183   5.643  19.532  0.00  0.00    +0.000 OA
BRANCH  10  14
ATOM     11  C   UNL     1       6.712   5.481  16.202  0.00  0.00    +0.000 A 
ATOM     12  C   UNL     1       5.460   6.096  16.152  0.00  0.00    +0.000 A 
ATOM     13  C   UNL     1       4.643   6.138  17.287  0.00  0.00    +0.000 A 
ATOM     14  C   UNL     1       5.051   5.534  18.476  0.00  0.00    +0.000 A 
ATOM     15  C   UNL     1       6.302   4.915  18.525  0.00  0.00    +0.000 A 
ATOM     16  C   UNL     1       7.128   4.887  17.392  0.00  0.00    +0.000 A 
BRANCH  11  18
ATOM     17  C   UNL     1       6.935   4.636  14.002  0.00  0.00    +0.000 C 
ATOM     18  O   UNL     1       7.419   5.491  15.032  0.00  0.00    +0.000 OA
ENDBRANCH  11  18
ENDBRANCH  10  14
ENDBRANCH   9  10
ENDBRANCH   8   9
ENDBRANCH   7   8
ENDBRANCH   1   7
BRANCH   4  19
ATOM     19  C   UNL     1       0.631  10.916  19.438  0.00  0.00    +0.000 C 
BRANCH  19  20
ATOM     20  C   UNL     1      -0.725  10.921  18.809  0.00  0.00    +0.000 A 
ATOM     21  C   UNL     1      -1.822  11.624  19.271  0.00  0.00    +0.000 A 
ATOM     22  S   UNL     1      -3.157  11.401  18.226  0.00  0.00    +0.000 S 
ATOM     23  C   UNL     1      -2.190  10.388  17.228  0.00  0.00    +0.000 A 
ATOM     24  C   UNL     1      -2.766   9.800  15.985  0.00  0.00    +0.000 C 
ATOM     25  N   UNL     1      -0.954  10.202  17.636  0.00  0.00    +0.000 NA
ENDBRANCH  19  20
ENDBRANCH   4  19
TORSDOF 8
ENDMDL
MODEL 5
REMARK VINA RESULT:      -6.0      3.559      6.122
REMARK  Name = 
REMARK  10 active torsions:
REMARK  status: ('A' for Active; 'I' for Inactive)
REMARK    1  A    between atoms: C_1  and  O_2
REMARK    2  A    between atoms: O_2  and  C_3
REMARK    3  A    between atoms: C_6  and  O_7
REMARK    4  A    between atoms: O_7  and  C_8
REMARK    5  A    between atoms: C_8  and  C_9
REMARK    6  A    between atoms: C_9  and  C_10
REMARK    7  A    between atoms: C_10  and  N_11
REMARK    8  A    between atoms: N_14  and  C_15
REMARK    9  A    between atoms: C_15  and  C_16
REMARK   10  A    between atoms: C_19  and  C_20
REMARK                            x       y       z     vdW  Elec       q    Type
REMARK                         _______ _______ _______ _____ _____    ______ ____
ROOT
ATOM      1  N   UNL     1       7.510   7.418  16.812  0.00  0.00    +0.000 N 
ATOM      2  C   UNL     1       8.086   7.829  17.984  0.00  0.00    +0.000 C 
ATOM      3  O   UNL     1       8.374   7.073  18.902  0.00  0.00    +0.000 OA
ATOM      4  N   UNL     1       8.297   9.183  18.016  0.00  0.00    +0.000 N 
ATOM      5  H   UNL     1       7.086   8.126  16.232  0.00  0.00    +0.000 HD
ATOM      6  H   UNL     1       8.437   9.651  17.134  0.00  0.00    +0.000 HD
ENDROOT
BRANCH   1   7
ATOM      7  C   UNL     1       7.153   6.030  16.596  0.00  0.00    +0.000 C 
BRANCH   7   8
ATOM      8  C   UNL     1       5.726   5.707  17.038  0.00  0.00    +0.000 C 
BRANCH   8   9
ATOM      9  C   UNL     1       4.781   6.860  16.694  0.00  0.00    +0.000 C 
BRANCH   9  10
ATOM     10  O   UNL     1       4.055   7.243  17.866  0.00  0.00    +0.000 OA
BRANCH  10  14
ATOM     11  C   UNL     1       1.749   4.137  19.461  0.00  0.00    +0.000 A 
ATOM     12  C   UNL     1       1.564   4.602  18.159  0.00  0.00    +0.000 A 
ATOM     13  C   UNL     1       2.358   5.638  17.655  0.00  0.00    +0.000 A 
ATOM     14  C   UNL     1       3.322   6.247  18.459  0.00  0.00    +0.000 A 
ATOM     15  C   UNL     1       3.504   5.784  19.763  0.00  0.00    +0.000 A 
ATOM     16  C   UNL     1       2.719   4.735  20.264  0.00  0.00    +0.000 A 
BRANCH  11  18
ATOM     17  C   UNL     1       0.688   2.098  18.894  0.00  0.00    +0.000 C 
ATOM     18  O   UNL     1       0.910   3.129  19.850  0.00  0.00    +0.000 OA
ENDBRANCH  11  18
ENDBRANCH  10  14
ENDBRANCH   9  10
ENDBRANCH   8   9
ENDBRANCH   7   8
ENDBRANCH   1   7
BRANCH   4  19
ATOM     19  C   UNL     1       9.011   9.758  19.135  0.00  0.00    +0.000 C 
BRANCH  19  20
ATOM     20  C   UNL     1       9.448  11.147  18.796  0.00  0.00    +0.000 A 
ATOM     21  C   UNL     1       9.149  12.284  19.526  0.00  0.00    +0.000 A 
ATOM     22  S   UNL     1       9.892  13.655  18.825  0.00  0.00    +0.000 S 
ATOM     23  C   UNL     1      10.563  12.650  17.602  0.00  0.00    +0.000 A 
ATOM     24  C   UNL     1      11.444  13.241  16.554  0.00  0.00    +0.000 C 
ATOM     25  N   UNL     1      10.255  11.374  17.682  0.00  0.00    +0.000 NA
ENDBRANCH  19  20
ENDBRANCH   4  19
TORSDOF 8
ENDMDL
MODEL 6
REMARK VINA RESULT:      -5.9      3.557      7.200
REMARK  Name = 
REMARK  10 active torsions:
REMARK  status: ('A' for Active; 'I' for Inactive)
REMARK    1  A    between atoms: C_1  and  O_2
REMARK    2  A    between atoms: O_2  and  C_3
REMARK    3  A    between atoms: C_6  and  O_7
REMARK    4  A    between atoms: O_7  and  C_8
REMARK    5  A    between atoms: C_8  and  C_9
REMARK    6  A    between atoms: C_9  and  C_10
REMARK    7  A    between atoms: C_10  and  N_11
REMARK    8  A    between atoms: N_14  and  C_15
REMARK    9  A    between atoms: C_15  and  C_16
REMARK   10  A    between atoms: C_19  and  C_20
REMARK                            x       y       z     vdW  Elec       q    Type
REMARK                         _______ _______ _______ _____ _____    ______ ____
ROOT
ATOM      1  N   UNL     1       1.997   6.816  19.912  0.00  0.00    +0.000 N 
ATOM      2  C   UNL     1       1.486   8.026  20.300  0.00  0.00    +0.000 C 
ATOM      3  O   UNL     1       1.094   8.266  21.434  0.00  0.00    +0.000 OA
ATOM      4  N   UNL     1       1.458   8.934  19.275  0.00  0.00    +0.000 N 
ATOM      5  H   UNL     1       2.057   6.637  18.921  0.00  0.00    +0.000 HD
ATOM      6  H   UNL     1       2.145   8.830  18.544  0.00  0.00    +0.000 HD
ENDROOT
BRANCH   1   7
ATOM      7  C   UNL     1       2.065   5.698  20.832  0.00  0.00    +0.000 C 
BRANCH   7   8
ATOM      8  C   UNL     1       1.404   4.435  20.280  0.00  0.00    +0.000 C 
BRANCH   8   9
ATOM      9  C   UNL     1       2.348   3.237  20.398  0.00  0.00    +0.000 C 
BRANCH   9  10
ATOM     10  O   UNL     1       2.690   2.773  19.088  0.00  0.00    +0.000 OA
BRANCH  10  14
ATOM     11  C   UNL     1       5.796   4.747  17.097  0.00  0.00    +0.000 A 
ATOM     12  C   UNL     1       4.662   4.286  16.427  0.00  0.00    +0.000 A 
ATOM     13  C   UNL     1       3.639   3.637  17.125  0.00  0.00    +0.000 A 
ATOM     14  C   UNL     1       3.753   3.406  18.497  0.00  0.00    +0.000 A 
ATOM     15  C   UNL     1       4.889   3.865  19.166  0.00  0.00    +0.000 A 
ATOM     16  C   UNL     1       5.907   4.530  18.470  0.00  0.00    +0.000 A 
BRANCH  11  18
ATOM     17  C   UNL     1       6.980   4.755  15.047  0.00  0.00    +0.000 C 
ATOM     18  O   UNL     1       6.734   5.358  16.313  0.00  0.00    +0.000 OA
ENDBRANCH  11  18
ENDBRANCH  10  14
ENDBRANCH   9  10
ENDBRANCH   8   9
ENDBRANCH   7   8
ENDBRANCH   1   7
BRANCH   4  19
ATOM     19  C   UNL     1       1.061  10.298  19.553  0.00  0.00    +0.000 C 
BRANCH  19  20
ATOM     20  C   UNL     1      -0.292  10.561  18.972  0.00  0.00    +0.000 A 
ATOM     21  C   UNL     1      -1.231  11.436  19.486  0.00  0.00    +0.000 A 
ATOM     22  S   UNL     1      -2.616  11.480  18.485  0.00  0.00    +0.000 S 
ATOM     23  C   UNL     1      -1.878  10.337  17.434  0.00  0.00    +0.000 A 
ATOM     24  C   UNL     1      -2.588   9.892  16.202  0.00  0.00    +0.000 C 
ATOM     25  N   UNL     1      -0.682   9.923  17.794  0.00  0.00    +0.000 NA
ENDBRANCH  19  20
ENDBRANCH   4  19
TORSDOF 8
ENDMDL
MODEL 7
REMARK VINA RESULT:      -5.9      4.505      7.828
REMARK  Name = 
REMARK  10 active torsions:
REMARK  status: ('A' for Active; 'I' for Inactive)
REMARK    1  A    between atoms: C_1  and  O_2
REMARK    2  A    between atoms: O_2  and  C_3
REMARK    3  A    between atoms: C_6  and  O_7
REMARK    4  A    between atoms: O_7  and  C_8
REMARK    5  A    between atoms: C_8  and  C_9
REMARK    6  A    between atoms: C_9  and  C_10
REMARK    7  A    between atoms: C_10  and  N_11
REMARK    8  A    between atoms: N_14  and  C_15
REMARK    9  A    between atoms: C_15  and  C_16
REMARK   10  A    between atoms: C_19  and  C_20
REMARK                            x       y       z     vdW  Elec       q    Type
REMARK                         _______ _______ _______ _____ _____    ______ ____
ROOT
ATOM      1  N   UNL     1       6.276   6.340  17.981  0.00  0.00    +0.000 N 
ATOM      2  C   UNL     1       6.078   5.004  17.753  0.00  0.00    +0.000 C 
ATOM      3  O   UNL     1       6.946   4.154  17.900  0.00  0.00    +0.000 OA
ATOM      4  N   UNL     1       4.802   4.728  17.337  0.00  0.00    +0.000 N 
ATOM      5  H   UNL     1       5.594   6.979  17.599  0.00  0.00    +0.000 HD
ATOM      6  H   UNL     1       4.071   5.354  17.637  0.00  0.00    +0.000 HD
ENDROOT
BRANCH   1   7
ATOM      7  C   UNL     1       7.573   6.852  18.376  0.00  0.00    +0.000 C 
BRANCH   7   8
ATOM      8  C   UNL     1       8.099   7.930  17.429  0.00  0.00    +0.000 C 
BRANCH   8   9
ATOM      9  C   UNL     1       7.993   9.313  18.074  0.00  0.00    +0.000 C 
BRANCH   9  10
ATOM     10  O   UNL     1       9.054   9.476  19.021  0.00  0.00    +0.000 OA
BRANCH  10  14
ATOM     11  C   UNL     1      11.093  13.128  19.125  0.00  0.00    +0.000 A 
ATOM     12  C   UNL     1      10.785  12.419  20.287  0.00  0.00    +0.000 A 
ATOM     13  C   UNL     1      10.109  11.197  20.215  0.00  0.00    +0.000 A 
ATOM     14  C   UNL     1       9.698  10.686  18.983  0.00  0.00    +0.000 A 
ATOM     15  C   UNL     1      10.003  11.398  17.821  0.00  0.00    +0.000 A 
ATOM     16  C   UNL     1      10.696  12.615  17.892  0.00  0.00    +0.000 A 
BRANCH  11  18
ATOM     17  C   UNL     1      12.332  14.898  18.156  0.00  0.00    +0.000 C 
ATOM     18  O   UNL     1      11.748  14.314  19.316  0.00  0.00    +0.000 OA
ENDBRANCH  11  18
ENDBRANCH  10  14
ENDBRANCH   9  10
ENDBRANCH   8   9
ENDBRANCH   7   8
ENDBRANCH   1   7
BRANCH   4  19
ATOM     19  C   UNL     1       4.398   3.348  17.174  0.00  0.00    +0.000 C 
BRANCH  19  20
ATOM     20  C   UNL     1       3.285   3.031  18.120  0.00  0.00    +0.000 A 
ATOM     21  C   UNL     1       2.064   2.484  17.770  0.00  0.00    +0.000 A 
ATOM     22  S   UNL     1       1.104   2.227  19.162  0.00  0.00    +0.000 S 
ATOM     23  C   UNL     1       2.372   2.858  20.137  0.00  0.00    +0.000 A 
ATOM     24  C   UNL     1       2.215   2.911  21.618  0.00  0.00    +0.000 C 
ATOM     25  N   UNL     1       3.446   3.253  19.488  0.00  0.00    +0.000 NA
ENDBRANCH  19  20
ENDBRANCH   4  19
TORSDOF 8
ENDMDL
MODEL 8
REMARK VINA RESULT:      -5.9      2.629      3.218
REMARK  Name = 
REMARK  10 active torsions:
REMARK  status: ('A' for Active; 'I' for Inactive)
REMARK    1  A    between atoms: C_1  and  O_2
REMARK    2  A    between atoms: O_2  and  C_3
REMARK    3  A    between atoms: C_6  and  O_7
REMARK    4  A    between atoms: O_7  and  C_8
REMARK    5  A    between atoms: C_8  and  C_9
REMARK    6  A    between atoms: C_9  and  C_10
REMARK    7  A    between atoms: C_10  and  N_11
REMARK    8  A    between atoms: N_14  and  C_15
REMARK    9  A    between atoms: C_15  and  C_16
REMARK   10  A    between atoms: C_19  and  C_20
REMARK                            x       y       z     vdW  Elec       q    Type
REMARK                         _______ _______ _______ _____ _____    ______ ____
ROOT
ATOM      1  N   UNL     1       4.430   4.130  19.412  0.00  0.00    +0.000 N 
ATOM      2  C   UNL     1       5.327   4.804  18.628  0.00  0.00    +0.000 C 
ATOM      3  O   UNL     1       5.315   6.018  18.472  0.00  0.00    +0.000 OA
ATOM      4  N   UNL     1       6.234   3.968  18.033  0.00  0.00    +0.000 N 
ATOM      5  H   UNL     1       4.362   3.132  19.282  0.00  0.00    +0.000 HD
ATOM      6  H   UNL     1       6.451   3.106  18.509  0.00  0.00    +0.000 HD
ENDROOT
BRANCH   1   7
ATOM      7  C   UNL     1       3.352   4.822  20.089  0.00  0.00    +0.000 C 
BRANCH   7   8
ATOM      8  C   UNL     1       2.072   4.887  19.256  0.00  0.00    +0.000 C 
BRANCH   8   9
ATOM      9  C   UNL     1       1.969   6.228  18.528  0.00  0.00    +0.000 C 
BRANCH   9  10
ATOM     10  O   UNL     1       2.573   7.249  19.329  0.00  0.00    +0.000 OA
BRANCH  10  14
ATOM     11  C   UNL     1      -0.114  10.070  20.853  0.00  0.00    +0.000 A 
ATOM     12  C   UNL     1       0.455  10.200  19.586  0.00  0.00    +0.000 A 
ATOM     13  C   UNL     1       1.344   9.233  19.104  0.00  0.00    +0.000 A 
ATOM     14  C   UNL     1       1.705   8.145  19.898  0.00  0.00    +0.000 A 
ATOM     15  C   UNL     1       1.138   8.018  21.168  0.00  0.00    +0.000 A 
ATOM     16  C   UNL     1       0.234   8.977  21.645  0.00  0.00    +0.000 A 
BRANCH  11  18
ATOM     17  C   UNL     1      -1.008  11.376  22.614  0.00  0.00    +0.000 C 
ATOM     18  O   UNL     1      -0.961  11.078  21.223  0.00  0.00    +0.000 OA
ENDBRANCH  11  18
ENDBRANCH  10  14
ENDBRANCH   9  10
ENDBRANCH   8   9
ENDBRANCH   7   8
ENDBRANCH   1   7
BRANCH   4  19
ATOM     19  C   UNL     1       7.325   4.538  17.271  0.00  0.00    +0.000 C 
BRANCH  19  20
ATOM     20  C   UNL     1       7.034   4.425  15.809  0.00  0.00    +0.000 A 
ATOM     21  C   UNL     1       6.034   3.652  15.247  0.00  0.00    +0.000 A 
ATOM     22  S   UNL     1       6.008   3.854  13.549  0.00  0.00    +0.000 S 
ATOM     23  C   UNL     1       7.324   4.954  13.673  0.00  0.00    +0.000 A 
ATOM     24  C   UNL     1       7.860   5.612  12.447  0.00  0.00    +0.000 C 
ATOM     25  N   UNL     1       7.779   5.162  14.889  0.00  0.00    +0.000 NA
ENDBRANCH  19  20
ENDBRANCH   4  19
TORSDOF 8
ENDMDL
MODEL 9
REMARK VINA RESULT:      -5.9      3.413      6.640
REMARK  Name = 
REMARK  10 active torsions:
REMARK  status: ('A' for Active; 'I' for Inactive)
REMARK    1  A    between atoms: C_1  and  O_2
REMARK    2  A    between atoms: O_2  and  C_3
REMARK    3  A    between atoms: C_6  and  O_7
REMARK    4  A    between atoms: O_7  and  C_8
REMARK    5  A    between atoms: C_8  and  C_9
REMARK    6  A    between atoms: C_9  and  C_10
REMARK    7  A    between atoms: C_10  and  N_11
REMARK    8  A    between atoms: N_14  and  C_15
REMARK    9  A    between atoms: C_15  and  C_16
REMARK   10  A    between atoms: C_19  and  C_20
REMARK                            x       y       z     vdW  Elec       q    Type
REMARK                         _______ _______ _______ _____ _____    ______ ____
ROOT
ATOM      1  N   UNL     1       2.046   6.390  19.603  0.00  0.00    +0.000 N 
ATOM      2  C   UNL     1       1.845   7.736  19.762  0.00  0.00    +0.000 C 
ATOM      3  O   UNL     1       1.591   8.262  20.837  0.00  0.00    +0.000 OA
ATOM      4  N   UNL     1       1.953   8.423  18.582  0.00  0.00    +0.000 N 
ATOM      5  H   UNL     1       1.999   6.025  18.664  0.00  0.00    +0.000 HD
ATOM      6  H   UNL     1       2.550   8.031  17.870  0.00  0.00    +0.000 HD
ENDROOT
BRANCH   1   7
ATOM      7  C   UNL     1       1.923   5.474  20.719  0.00  0.00    +0.000 C 
BRANCH   7   8
ATOM      8  C   UNL     1       1.849   4.011  20.282  0.00  0.00    +0.000 C 
BRANCH   8   9
ATOM      9  C   UNL     1       3.249   3.460  20.003  0.00  0.00    +0.000 C 
BRANCH   9  10
ATOM     10  O   UNL     1       3.519   3.543  18.601  0.00  0.00    +0.000 OA
BRANCH  10  14
ATOM     11  C   UNL     1       6.284   6.412  17.323  0.00  0.00    +0.000 A 
ATOM     12  C   UNL     1       5.199   6.027  16.534  0.00  0.00    +0.000 A 
ATOM     13  C   UNL     1       4.289   5.070  16.996  0.00  0.00    +0.000 A 
ATOM     14  C   UNL     1       4.473   4.458  18.236  0.00  0.00    +0.000 A 
ATOM     15  C   UNL     1       5.561   4.841  19.023  0.00  0.00    +0.000 A 
ATOM     16  C   UNL     1       6.464   5.813  18.568  0.00  0.00    +0.000 A 
BRANCH  11  18
ATOM     17  C   UNL     1       7.898   8.107  17.679  0.00  0.00    +0.000 C 
ATOM     18  O   UNL     1       7.112   7.347  16.767  0.00  0.00    +0.000 OA
ENDBRANCH  11  18
ENDBRANCH  10  14
ENDBRANCH   9  10
ENDBRANCH   8   9
ENDBRANCH   7   8
ENDBRANCH   1   7
BRANCH   4  19
ATOM     19  C   UNL     1       1.890   9.869  18.601  0.00  0.00    +0.000 C 
BRANCH  19  20
ATOM     20  C   UNL     1       0.463  10.314  18.556  0.00  0.00    +0.000 A 
ATOM     21  C   UNL     1      -0.070  11.374  19.266  0.00  0.00    +0.000 A 
ATOM     22  S   UNL     1      -1.724  11.578  18.881  0.00  0.00    +0.000 S 
ATOM     23  C   UNL     1      -1.622  10.248  17.796  0.00  0.00    +0.000 A 
ATOM     24  C   UNL     1      -2.819   9.839  17.007  0.00  0.00    +0.000 C 
ATOM     25  N   UNL     1      -0.446   9.665  17.721  0.00  0.00    +0.000 NA
ENDBRANCH  19  20
ENDBRANCH   4  19
TORSDOF 8
ENDMDL
