MODEL 1
REMARK VINA RESULT:      -7.1      0.000      0.000
REMARK  Name = 
REMARK  18 active torsions:
REMARK  status: ('A' for Active; 'I' for Inactive)
REMARK    1  A    between atoms: C_1  and  C_2
REMARK    2  A    between atoms: C_2  and  C_3
REMARK    3  A    between atoms: C_2  and  N_4
REMARK    4  A    between atoms: C_2  and  C_5
REMARK    5  A    between atoms: N_7  and  C_8
REMARK    6  A    between atoms: C_8  and  C_9
REMARK    7  A    between atoms: C_8  and  C_18
REMARK    8  A    between atoms: C_9  and  O_10
REMARK    9  A    between atoms: O_10  and  C_11
REMARK   10  A    between atoms: C_11  and  C_12
REMARK   11  A    between atoms: N_22  and  C_23
REMARK   12  A    between atoms: C_23  and  C_24
REMARK   13  A    between atoms: C_24  and  C_25
REMARK   14  A    between atoms: C_25  and  C_26
REMARK   15  A    between atoms: N_28  and  C_29
REMARK   16  A    between atoms: C_29  and  C_30
REMARK   17  A    between atoms: C_30  and  C_31
REMARK   18  A    between atoms: C_31  and  O_33
REMARK                            x       y       z     vdW  Elec       q    Type
REMARK                         _______ _______ _______ _____ _____    ______ ____
ROOT
ATOM      1  C   UNL     1       2.933   6.362  18.492  0.00  0.00    +0.000 C 
ENDROOT
BRANCH   1   2
ATOM      2  C   UNL     1       2.403   7.755  18.379  0.00  0.00    +0.000 A 
ATOM      3  N   UNL     1       2.535   8.575  17.351  0.00  0.00    +0.000 NA
ATOM      4  N   UNL     1       1.910   9.743  17.697  0.00  0.00    +0.000 NA
ATOM      5  N   UNL     1       1.416   9.670  18.925  0.00  0.00    +0.000 NA
ATOM      6  N   UNL     1       1.722   8.435  19.358  0.00  0.00    +0.000 N 
BRANCH   6   7
ATOM      7  C   UNL     1       1.433   8.080  20.734  0.00  0.00    +0.000 C 
BRANCH   7   8
ATOM      8  C   UNL     1       0.101   8.622  21.277  0.00  0.00    +0.000 C 
BRANCH   8   9
ATOM      9  C   UNL     1       0.224   9.483  22.537  0.00  0.00    +0.000 C 
BRANCH   9  10
ATOM     10  C   UNL     1      -0.360  10.871  22.348  0.00  0.00    +0.000 C 
ATOM     11  O   UNL     1      -1.033  11.434  23.200  0.00  0.00    +0.000 OA
ATOM     12  N   UNL     1      -0.049  11.447  21.141  0.00  0.00    +0.000 N 
ATOM     13  H   UNL     1       0.506  10.938  20.461  0.00  0.00    +0.000 HD
BRANCH  12  14
ATOM     14  C   UNL     1      -0.598  12.739  20.766  0.00  0.00    +0.000 C 
BRANCH  14  15
ATOM     15  C   UNL     1       0.442  13.845  20.823  0.00  0.00    +0.000 C 
BRANCH  15  16
ATOM     16  C   UNL     1       1.775  13.294  20.404  0.00  0.00    +0.000 C 
ATOM     17  O   UNL     1       2.079  13.068  19.242  0.00  0.00    +0.000 OA
BRANCH  16  18
ATOM     18  O   UNL     1       2.633  13.108  21.431  0.00  0.00    +0.000 OA
ATOM     19  H   UNL     1       3.487  12.708  21.174  0.00  0.00    +0.000 HD
ENDBRANCH  16  18
ENDBRANCH  15  16
ENDBRANCH  14  15
ENDBRANCH  12  14
ENDBRANCH   9  10
ENDBRANCH   8   9
ENDBRANCH   7   8
ENDBRANCH   6   7
ENDBRANCH   1   2
BRANCH   1  22
ATOM     20  C   UNL     1       5.344   5.741  18.267  0.00  0.00    +0.000 C 
ATOM     21  O   UNL     1       5.395   5.333  19.425  0.00  0.00    +0.000 OA
ATOM     22  N   UNL     1       4.201   6.314  17.752  0.00  0.00    +0.000 N 
ATOM     23  H   UNL     1       4.237   6.630  16.787  0.00  0.00    +0.000 HD
BRANCH  20  25
ATOM     24  C   UNL     1       7.484   6.816  17.417  0.00  0.00    +0.000 C 
ATOM     25  C   UNL     1       6.543   5.616  17.272  0.00  0.00    +0.000 C 
ATOM     26  C   UNL     1       6.018   5.545  15.832  0.00  0.00    +0.000 C 
BRANCH  25  27
ATOM     27  N   UNL     1       7.318   4.394  17.594  0.00  0.00    +0.000 NA
ATOM     28  H   UNL     1       8.315   4.638  17.613  0.00  0.00    +0.000 HD
ATOM     29  H   UNL     1       7.228   3.728  16.827  0.00  0.00    +0.000 HD
ENDBRANCH  25  27
ENDBRANCH  20  25
ENDBRANCH   1  22
BRANCH   1  30
ATOM     30  C   UNL     1       1.959   5.303  17.913  0.00  0.00    +0.000 C 
BRANCH  30  31
ATOM     31  O   UNL     1       2.582   4.281  17.107  0.00  0.00    +0.000 OA
BRANCH  31  32
ATOM     32  C   UNL     1       2.155   2.982  17.562  0.00  0.00    +0.000 C 
BRANCH  32  33
ATOM     33  C   UNL     1       2.227   2.802  19.063  0.00  0.00    +0.000 A 
ATOM     34  C   UNL     1       3.431   2.529  19.720  0.00  0.00    +0.000 A 
ATOM     35  C   UNL     1       3.466   2.390  21.115  0.00  0.00    +0.000 A 
ATOM     36  C   UNL     1       2.302   2.537  21.868  0.00  0.00    +0.000 A 
ATOM     37  C   UNL     1       1.104   2.856  21.232  0.00  0.00    +0.000 A 
ATOM     38  C   UNL     1       1.070   2.997  19.841  0.00  0.00    +0.000 A 
ENDBRANCH  32  33
ENDBRANCH  31  32
ENDBRANCH  30  31
ENDBRANCH   1  30
TORSDOF 16
ENDMDL
MODEL 2
REMARK VINA RESULT:      -6.9      1.135      1.399
REMARK  Name = 
REMARK  18 active torsions:
REMARK  status: ('A' for Active; 'I' for Inactive)
REMARK    1  A    between atoms: C_1  and  C_2
REMARK    2  A    between atoms: C_2  and  C_3
REMARK    3  A    between atoms: C_2  and  N_4
REMARK    4  A    between atoms: C_2  and  C_5
REMARK    5  A    between atoms: N_7  and  C_8
REMARK    6  A    between atoms: C_8  and  C_9
REMARK    7  A    between atoms: C_8  and  C_18
REMARK    8  A    between atoms: C_9  and  O_10
REMARK    9  A    between atoms: O_10  and  C_11
REMARK   10  A    between atoms: C_11  and  C_12
REMARK   11  A    between atoms: N_22  and  C_23
REMARK   12  A    between atoms: C_23  and  C_24
REMARK   13  A    between atoms: C_24  and  C_25
REMARK   14  A    between atoms: C_25  and  C_26
REMARK   15  A    between atoms: N_28  and  C_29
REMARK   16  A    between atoms: C_29  and  C_30
REMARK   17  A    between atoms: C_30  and  C_31
REMARK   18  A    between atoms: C_31  and  O_33
REMARK                            x       y       z     vdW  Elec       q    Type
REMARK                         _______ _______ _______ _____ _____    ______ ____
ROOT
ATOM      1  C   UNL     1       3.119   6.404  18.579  0.00  0.00    +0.000 C 
ENDROOT
BRANCH   1   2
ATOM      2  C   UNL     1       2.490   7.754  18.454  0.00  0.00    +0.000 A 
ATOM      3  N   UNL     1       2.614   8.599  17.445  0.00  0.00    +0.000 NA
ATOM      4  N   UNL     1       1.882   9.710  17.770  0.00  0.00    +0.000 NA
ATOM      5  N   UNL     1       1.331   9.580  18.968  0.00  0.00    +0.000 NA
ATOM      6  N   UNL     1       1.707   8.365  19.402  0.00  0.00    +0.000 N 
BRANCH   6   7
ATOM      7  C   UNL     1       1.372   7.967  20.756  0.00  0.00    +0.000 C 
BRANCH   7   8
ATOM      8  C   UNL     1       1.410   9.101  21.792  0.00  0.00    +0.000 C 
BRANCH   8   9
ATOM      9  C   UNL     1       0.108   9.299  22.574  0.00  0.00    +0.000 C 
BRANCH   9  10
ATOM     10  C   UNL     1      -0.511  10.663  22.330  0.00  0.00    +0.000 C 
ATOM     11  O   UNL     1      -0.946  11.369  23.229  0.00  0.00    +0.000 OA
ATOM     12  N   UNL     1      -0.520  11.043  21.010  0.00  0.00    +0.000 N 
ATOM     13  H   UNL     1      -0.155  10.419  20.298  0.00  0.00    +0.000 HD
BRANCH  12  14
ATOM     14  C   UNL     1      -1.152  12.282  20.594  0.00  0.00    +0.000 C 
BRANCH  14  15
ATOM     15  C   UNL     1      -1.219  12.416  19.082  0.00  0.00    +0.000 C 
BRANCH  15  16
ATOM     16  C   UNL     1      -0.206  13.427  18.629  0.00  0.00    +0.000 C 
ATOM     17  O   UNL     1       0.929  13.139  18.279  0.00  0.00    +0.000 OA
BRANCH  16  18
ATOM     18  O   UNL     1      -0.677  14.693  18.602  0.00  0.00    +0.000 OA
ATOM     19  H   UNL     1      -1.492  14.808  18.074  0.00  0.00    +0.000 HD
ENDBRANCH  16  18
ENDBRANCH  15  16
ENDBRANCH  14  15
ENDBRANCH  12  14
ENDBRANCH   9  10
ENDBRANCH   8   9
ENDBRANCH   7   8
ENDBRANCH   6   7
ENDBRANCH   1   2
BRANCH   1  22
ATOM     20  C   UNL     1       5.503   5.821  18.108  0.00  0.00    +0.000 C 
ATOM     21  O   UNL     1       5.668   5.378  19.243  0.00  0.00    +0.000 OA
ATOM     22  N   UNL     1       4.311   6.395  17.722  0.00  0.00    +0.000 N 
ATOM     23  H   UNL     1       4.253   6.741  16.768  0.00  0.00    +0.000 HD
BRANCH  20  25
ATOM     24  C   UNL     1       5.963   5.515  15.628  0.00  0.00    +0.000 C 
ATOM     25  C   UNL     1       6.604   5.742  17.001  0.00  0.00    +0.000 C 
ATOM     26  C   UNL     1       7.573   4.594  17.312  0.00  0.00    +0.000 C 
BRANCH  25  27
ATOM     27  N   UNL     1       7.337   7.030  16.950  0.00  0.00    +0.000 NA
ATOM     28  H   UNL     1       6.722   7.736  16.527  0.00  0.00    +0.000 HD
ATOM     29  H   UNL     1       8.118   6.945  16.300  0.00  0.00    +0.000 HD
ENDBRANCH  25  27
ENDBRANCH  20  25
ENDBRANCH   1  22
BRANCH   1  30
ATOM     30  C   UNL     1       2.166   5.259  18.148  0.00  0.00    +0.000 C 
BRANCH  30  31
ATOM     31  O   UNL     1       2.674   4.410  17.097  0.00  0.00    +0.000 OA
BRANCH  31  32
ATOM     32  C   UNL     1       2.868   3.076  17.608  0.00  0.00    +0.000 C 
BRANCH  32  33
ATOM     33  C   UNL     1       2.475   2.910  19.060  0.00  0.00    +0.000 A 
ATOM     34  C   UNL     1       3.427   2.757  20.072  0.00  0.00    +0.000 A 
ATOM     35  C   UNL     1       3.029   2.627  21.410  0.00  0.00    +0.000 A 
ATOM     36  C   UNL     1       1.678   2.664  21.751  0.00  0.00    +0.000 A 
ATOM     37  C   UNL     1       0.720   2.864  20.759  0.00  0.00    +0.000 A 
ATOM     38  C   UNL     1       1.118   2.995  19.425  0.00  0.00    +0.000 A 
ENDBRANCH  32  33
ENDBRANCH  31  32
ENDBRANCH  30  31
ENDBRANCH   1  30
TORSDOF 16
ENDMDL
MODEL 3
REMARK VINA RESULT:      -6.8      0.633      1.200
REMARK  Name = 
REMARK  18 active torsions:
REMARK  status: ('A' for Active; 'I' for Inactive)
REMARK    1  A    between atoms: C_1  and  C_2
REMARK    2  A    between atoms: C_2  and  C_3
REMARK    3  A    between atoms: C_2  and  N_4
REMARK    4  A    between atoms: C_2  and  C_5
REMARK    5  A    between atoms: N_7  and  C_8
REMARK    6  A    between atoms: C_8  and  C_9
REMARK    7  A    between atoms: C_8  and  C_18
REMARK    8  A    between atoms: C_9  and  O_10
REMARK    9  A    between atoms: O_10  and  C_11
REMARK   10  A    between atoms: C_11  and  C_12
REMARK   11  A    between atoms: N_22  and  C_23
REMARK   12  A    between atoms: C_23  and  C_24
REMARK   13  A    between atoms: C_24  and  C_25
REMARK   14  A    between atoms: C_25  and  C_26
REMARK   15  A    between atoms: N_28  and  C_29
REMARK   16  A    between atoms: C_29  and  C_30
REMARK   17  A    between atoms: C_30  and  C_31
REMARK   18  A    between atoms: C_31  and  O_33
REMARK                            x       y       z     vdW  Elec       q    Type
REMARK                         _______ _______ _______ _____ _____    ______ ____
ROOT
ATOM      1  C   UNL     1       3.099   6.439  18.619  0.00  0.00    +0.000 C 
ENDROOT
BRANCH   1   2
ATOM      2  C   UNL     1       2.492   7.793  18.437  0.00  0.00    +0.000 A 
ATOM      3  N   UNL     1       2.611   8.582  17.383  0.00  0.00    +0.000 NA
ATOM      4  N   UNL     1       1.906   9.721  17.663  0.00  0.00    +0.000 NA
ATOM      5  N   UNL     1       1.375   9.663  18.876  0.00  0.00    +0.000 NA
ATOM      6  N   UNL     1       1.738   8.466  19.366  0.00  0.00    +0.000 N 
BRANCH   6   7
ATOM      7  C   UNL     1       1.423   8.144  20.744  0.00  0.00    +0.000 C 
BRANCH   7   8
ATOM      8  C   UNL     1       1.488   9.332  21.718  0.00  0.00    +0.000 C 
BRANCH   8   9
ATOM      9  C   UNL     1       0.237   9.524  22.579  0.00  0.00    +0.000 C 
BRANCH   9  10
ATOM     10  C   UNL     1      -0.389  10.894  22.392  0.00  0.00    +0.000 C 
ATOM     11  O   UNL     1      -1.015  11.468  23.272  0.00  0.00    +0.000 OA
ATOM     12  N   UNL     1      -0.172  11.441  21.151  0.00  0.00    +0.000 N 
ATOM     13  H   UNL     1       0.347  10.923  20.449  0.00  0.00    +0.000 HD
BRANCH  12  14
ATOM     14  C   UNL     1      -0.772  12.709  20.778  0.00  0.00    +0.000 C 
BRANCH  14  15
ATOM     15  C   UNL     1       0.265  13.803  20.583  0.00  0.00    +0.000 C 
BRANCH  15  16
ATOM     16  C   UNL     1       1.618  13.176  20.411  0.00  0.00    +0.000 C 
ATOM     17  O   UNL     1       2.006  12.678  19.364  0.00  0.00    +0.000 OA
BRANCH  16  18
ATOM     18  O   UNL     1       2.395  13.248  21.514  0.00  0.00    +0.000 OA
ATOM     19  H   UNL     1       2.010  13.774  22.243  0.00  0.00    +0.000 HD
ENDBRANCH  16  18
ENDBRANCH  15  16
ENDBRANCH  14  15
ENDBRANCH  12  14
ENDBRANCH   9  10
ENDBRANCH   8   9
ENDBRANCH   7   8
ENDBRANCH   6   7
ENDBRANCH   1   2
BRANCH   1  22
ATOM     20  C   UNL     1       5.500   5.817  18.313  0.00  0.00    +0.000 C 
ATOM     21  O   UNL     1       5.579   5.371  19.455  0.00  0.00    +0.000 OA
ATOM     22  N   UNL     1       4.347   6.410  17.846  0.00  0.00    +0.000 N 
ATOM     23  H   UNL     1       4.360   6.758  16.891  0.00  0.00    +0.000 HD
BRANCH  20  25
ATOM     24  C   UNL     1       6.135   5.352  15.897  0.00  0.00    +0.000 C 
ATOM     25  C   UNL     1       6.673   5.719  17.283  0.00  0.00    +0.000 C 
ATOM     26  C   UNL     1       7.681   4.657  17.742  0.00  0.00    +0.000 C 
BRANCH  25  27
ATOM     27  N   UNL     1       7.336   7.040  17.174  0.00  0.00    +0.000 NA
ATOM     28  H   UNL     1       7.405   7.288  16.180  0.00  0.00    +0.000 HD
ATOM     29  H   UNL     1       8.303   6.957  17.489  0.00  0.00    +0.000 HD
ENDBRANCH  25  27
ENDBRANCH  20  25
ENDBRANCH   1  22
BRANCH   1  30
ATOM     30  C   UNL     1       2.168   5.296  18.138  0.00  0.00    +0.000 C 
BRANCH  30  31
ATOM     31  O   UNL     1       2.749   4.414  17.154  0.00  0.00    +0.000 OA
BRANCH  31  32
ATOM     32  C   UNL     1       2.609   3.048  17.591  0.00  0.00    +0.000 C 
BRANCH  32  33
ATOM     33  C   UNL     1       2.409   2.896  19.084  0.00  0.00    +0.000 A 
ATOM     34  C   UNL     1       1.151   3.034  19.680  0.00  0.00    +0.000 A 
ATOM     35  C   UNL     1       0.996   2.866  21.063  0.00  0.00    +0.000 A 
ATOM     36  C   UNL     1       2.093   2.544  21.861  0.00  0.00    +0.000 A 
ATOM     37  C   UNL     1       3.343   2.356  21.275  0.00  0.00    +0.000 A 
ATOM     38  C   UNL     1       3.496   2.522  19.896  0.00  0.00    +0.000 A 
ENDBRANCH  32  33
ENDBRANCH  31  32
ENDBRANCH  30  31
ENDBRANCH   1  30
TORSDOF 16
ENDMDL
MODEL 4
REMARK VINA RESULT:      -6.8      1.331      1.867
REMARK  Name = 
REMARK  18 active torsions:
REMARK  status: ('A' for Active; 'I' for Inactive)
REMARK    1  A    between atoms: C_1  and  C_2
REMARK    2  A    between atoms: C_2  and  C_3
REMARK    3  A    between atoms: C_2  and  N_4
REMARK    4  A    between atoms: C_2  and  C_5
REMARK    5  A    between atoms: N_7  and  C_8
REMARK    6  A    between atoms: C_8  and  C_9
REMARK    7  A    between atoms: C_8  and  C_18
REMARK    8  A    between atoms: C_9  and  O_10
REMARK    9  A    between atoms: O_10  and  C_11
REMARK   10  A    between atoms: C_11  and  C_12
REMARK   11  A    between atoms: N_22  and  C_23
REMARK   12  A    between atoms: C_23  and  C_24
REMARK   13  A    between atoms: C_24  and  C_25
REMARK   14  A    between atoms: C_25  and  C_26
REMARK   15  A    between atoms: N_28  and  C_29
REMARK   16  A    between atoms: C_29  and  C_30
REMARK   17  A    between atoms: C_30  and  C_31
REMARK   18  A    between atoms: C_31  and  O_33
REMARK                            x       y       z     vdW  Elec       q    Type
REMARK                         _______ _______ _______ _____ _____    ______ ____
ROOT
ATOM      1  C   UNL     1       2.747   6.701  19.414  0.00  0.00    +0.000 C 
ENDROOT
BRANCH   1   2
ATOM      2  C   UNL     1       2.102   8.022  19.142  0.00  0.00    +0.000 A 
ATOM      3  N   UNL     1       2.130   8.703  18.009  0.00  0.00    +0.000 NA
ATOM      4  N   UNL     1       1.423   9.855  18.226  0.00  0.00    +0.000 NA
ATOM      5  N   UNL     1       0.980   9.912  19.474  0.00  0.00    +0.000 NA
ATOM      6  N   UNL     1       1.401   8.774  20.052  0.00  0.00    +0.000 N 
BRANCH   6   7
ATOM      7  C   UNL     1       1.191   8.588  21.475  0.00  0.00    +0.000 C 
BRANCH   7   8
ATOM      8  C   UNL     1      -0.240   8.870  21.960  0.00  0.00    +0.000 C 
BRANCH   8   9
ATOM      9  C   UNL     1      -0.348   9.932  23.057  0.00  0.00    +0.000 C 
BRANCH   9  10
ATOM     10  C   UNL     1      -1.168  11.132  22.620  0.00  0.00    +0.000 C 
ATOM     11  O   UNL     1      -2.083  11.595  23.288  0.00  0.00    +0.000 OA
ATOM     12  N   UNL     1      -0.778  11.665  21.416  0.00  0.00    +0.000 N 
ATOM     13  H   UNL     1      -0.019  11.242  20.894  0.00  0.00    +0.000 HD
BRANCH  12  14
ATOM     14  C   UNL     1      -1.511  12.765  20.814  0.00  0.00    +0.000 C 
BRANCH  14  15
ATOM     15  C   UNL     1      -0.718  14.061  20.826  0.00  0.00    +0.000 C 
BRANCH  15  16
ATOM     16  C   UNL     1       0.749  13.744  20.876  0.00  0.00    +0.000 C 
ATOM     17  O   UNL     1       1.384  13.329  19.918  0.00  0.00    +0.000 OA
BRANCH  16  18
ATOM     18  O   UNL     1       1.320  14.000  22.073  0.00  0.00    +0.000 OA
ATOM     19  H   UNL     1       1.891  13.280  22.409  0.00  0.00    +0.000 HD
ENDBRANCH  16  18
ENDBRANCH  15  16
ENDBRANCH  14  15
ENDBRANCH  12  14
ENDBRANCH   9  10
ENDBRANCH   8   9
ENDBRANCH   7   8
ENDBRANCH   6   7
ENDBRANCH   1   2
BRANCH   1  22
ATOM     20  C   UNL     1       4.867   5.758  18.484  0.00  0.00    +0.000 C 
ATOM     21  O   UNL     1       5.268   5.435  19.600  0.00  0.00    +0.000 OA
ATOM     22  N   UNL     1       3.678   6.433  18.310  0.00  0.00    +0.000 N 
ATOM     23  H   UNL     1       3.416   6.669  17.357  0.00  0.00    +0.000 HD
BRANCH  20  25
ATOM     24  C   UNL     1       4.816   4.438  16.313  0.00  0.00    +0.000 C 
ATOM     25  C   UNL     1       5.639   5.403  17.172  0.00  0.00    +0.000 C 
ATOM     26  C   UNL     1       6.988   4.759  17.520  0.00  0.00    +0.000 C 
BRANCH  25  27
ATOM     27  N   UNL     1       5.852   6.640  16.383  0.00  0.00    +0.000 NA
ATOM     28  H   UNL     1       6.689   7.114  16.743  0.00  0.00    +0.000 HD
ATOM     29  H   UNL     1       5.088   7.289  16.565  0.00  0.00    +0.000 HD
ENDBRANCH  25  27
ENDBRANCH  20  25
ENDBRANCH   1  22
BRANCH   1  30
ATOM     30  C   UNL     1       1.721   5.543  19.515  0.00  0.00    +0.000 C 
BRANCH  30  31
ATOM     31  O   UNL     1       1.423   5.112  20.859  0.00  0.00    +0.000 OA
BRANCH  31  32
ATOM     32  C   UNL     1       1.230   3.684  20.874  0.00  0.00    +0.000 C 
BRANCH  32  33
ATOM     33  C   UNL     1       2.160   2.927  19.950  0.00  0.00    +0.000 A 
ATOM     34  C   UNL     1       3.464   2.591  20.326  0.00  0.00    +0.000 A 
ATOM     35  C   UNL     1       4.293   1.870  19.454  0.00  0.00    +0.000 A 
ATOM     36  C   UNL     1       3.821   1.465  18.206  0.00  0.00    +0.000 A 
ATOM     37  C   UNL     1       2.508   1.751  17.838  0.00  0.00    +0.000 A 
ATOM     38  C   UNL     1       1.682   2.468  18.709  0.00  0.00    +0.000 A 
ENDBRANCH  32  33
ENDBRANCH  31  32
ENDBRANCH  30  31
ENDBRANCH   1  30
TORSDOF 16
ENDMDL
MODEL 5
REMARK VINA RESULT:      -6.8      1.372      1.993
REMARK  Name = 
REMARK  18 active torsions:
REMARK  status: ('A' for Active; 'I' for Inactive)
REMARK    1  A    between atoms: C_1  and  C_2
REMARK    2  A    between atoms: C_2  and  C_3
REMARK    3  A    between atoms: C_2  and  N_4
REMARK    4  A    between atoms: C_2  and  C_5
REMARK    5  A    between atoms: N_7  and  C_8
REMARK    6  A    between atoms: C_8  and  C_9
REMARK    7  A    between atoms: C_8  and  C_18
REMARK    8  A    between atoms: C_9  and  O_10
REMARK    9  A    between atoms: O_10  and  C_11
REMARK   10  A    between atoms: C_11  and  C_12
REMARK   11  A    between atoms: N_22  and  C_23
REMARK   12  A    between atoms: C_23  and  C_24
REMARK   13  A    between atoms: C_24  and  C_25
REMARK   14  A    between atoms: C_25  and  C_26
REMARK   15  A    between atoms: N_28  and  C_29
REMARK   16  A    between atoms: C_29  and  C_30
REMARK   17  A    between atoms: C_30  and  C_31
REMARK   18  A    between atoms: C_31  and  O_33
REMARK                            x       y       z     vdW  Elec       q    Type
REMARK                         _______ _______ _______ _____ _____    ______ ____
ROOT
ATOM      1  C   UNL     1       3.094   6.272  18.401  0.00  0.00    +0.000 C 
ENDROOT
BRANCH   1   2
ATOM      2  C   UNL     1       2.510   7.646  18.323  0.00  0.00    +0.000 A 
ATOM      3  N   UNL     1       2.595   8.490  17.309  0.00  0.00    +0.000 NA
ATOM      4  N   UNL     1       1.930   9.625  17.685  0.00  0.00    +0.000 NA
ATOM      5  N   UNL     1       1.457   9.510  18.918  0.00  0.00    +0.000 NA
ATOM      6  N   UNL     1       1.816   8.281  19.323  0.00  0.00    +0.000 N 
BRANCH   6   7
ATOM      7  C   UNL     1       1.560   7.889  20.696  0.00  0.00    +0.000 C 
BRANCH   7   8
ATOM      8  C   UNL     1       0.305   8.514  21.324  0.00  0.00    +0.000 C 
BRANCH   8   9
ATOM      9  C   UNL     1       0.582   9.579  22.388  0.00  0.00    +0.000 C 
BRANCH   9  10
ATOM     10  C   UNL     1       0.119  10.959  21.959  0.00  0.00    +0.000 C 
ATOM     11  O   UNL     1       0.882  11.819  21.539  0.00  0.00    +0.000 OA
ATOM     12  N   UNL     1      -1.237  11.150  22.065  0.00  0.00    +0.000 N 
ATOM     13  H   UNL     1      -1.829  10.410  22.427  0.00  0.00    +0.000 HD
BRANCH  12  14
ATOM     14  C   UNL     1      -1.834  12.441  21.774  0.00  0.00    +0.000 C 
BRANCH  14  15
ATOM     15  C   UNL     1      -2.542  13.034  22.981  0.00  0.00    +0.000 C 
BRANCH  15  16
ATOM     16  C   UNL     1      -1.657  14.068  23.616  0.00  0.00    +0.000 C 
ATOM     17  O   UNL     1      -2.028  14.827  24.499  0.00  0.00    +0.000 OA
BRANCH  16  18
ATOM     18  O   UNL     1      -0.390  14.060  23.148  0.00  0.00    +0.000 OA
ATOM     19  H   UNL     1       0.221  14.652  23.631  0.00  0.00    +0.000 HD
ENDBRANCH  16  18
ENDBRANCH  15  16
ENDBRANCH  14  15
ENDBRANCH  12  14
ENDBRANCH   9  10
ENDBRANCH   8   9
ENDBRANCH   7   8
ENDBRANCH   6   7
ENDBRANCH   1   2
BRANCH   1  22
ATOM     20  C   UNL     1       5.521   5.717  18.172  0.00  0.00    +0.000 C 
ATOM     21  O   UNL     1       5.565   5.236  19.302  0.00  0.00    +0.000 OA
ATOM     22  N   UNL     1       4.372   6.298  17.679  0.00  0.00    +0.000 N 
ATOM     23  H   UNL     1       4.414   6.677  16.736  0.00  0.00    +0.000 HD
BRANCH  20  25
ATOM     24  C   UNL     1       6.264   5.333  15.773  0.00  0.00    +0.000 C 
ATOM     25  C   UNL     1       6.735   5.681  17.188  0.00  0.00    +0.000 C 
ATOM     26  C   UNL     1       7.756   4.638  17.662  0.00  0.00    +0.000 C 
BRANCH  25  27
ATOM     27  N   UNL     1       7.361   7.024  17.138  0.00  0.00    +0.000 NA
ATOM     28  H   UNL     1       6.727   7.694  17.589  0.00  0.00    +0.000 HD
ATOM     29  H   UNL     1       7.417   7.331  16.168  0.00  0.00    +0.000 HD
ENDBRANCH  25  27
ENDBRANCH  20  25
ENDBRANCH   1  22
BRANCH   1  30
ATOM     30  C   UNL     1       2.172   5.193  17.778  0.00  0.00    +0.000 C 
BRANCH  30  31
ATOM     31  O   UNL     1       2.862   4.128  17.090  0.00  0.00    +0.000 OA
BRANCH  31  32
ATOM     32  C   UNL     1       2.366   2.856  17.552  0.00  0.00    +0.000 C 
BRANCH  32  33
ATOM     33  C   UNL     1       2.324   2.722  19.059  0.00  0.00    +0.000 A 
ATOM     34  C   UNL     1       3.473   2.463  19.812  0.00  0.00    +0.000 A 
ATOM     35  C   UNL     1       3.403   2.367  21.208  0.00  0.00    +0.000 A 
ATOM     36  C   UNL     1       2.187   2.544  21.867  0.00  0.00    +0.000 A 
ATOM     37  C   UNL     1       1.042   2.850  21.135  0.00  0.00    +0.000 A 
ATOM     38  C   UNL     1       1.114   2.948  19.742  0.00  0.00    +0.000 A 
ENDBRANCH  32  33
ENDBRANCH  31  32
ENDBRANCH  30  31
ENDBRANCH   1  30
TORSDOF 16
ENDMDL
MODEL 6
REMARK VINA RESULT:      -6.7      3.392      7.166
REMARK  Name = 
REMARK  18 active torsions:
REMARK  status: ('A' for Active; 'I' for Inactive)
REMARK    1  A    between atoms: C_1  and  C_2
REMARK    2  A    between atoms: C_2  and  C_3
REMARK    3  A    between atoms: C_2  and  N_4
REMARK    4  A    between atoms: C_2  and  C_5
REMARK    5  A    between atoms: N_7  and  C_8
REMARK    6  A    between atoms: C_8  and  C_9
REMARK    7  A    between atoms: C_8  and  C_18
REMARK    8  A    between atoms: C_9  and  O_10
REMARK    9  A    between atoms: O_10  and  C_11
REMARK   10  A    between atoms: C_11  and  C_12
REMARK   11  A    between atoms: N_22  and  C_23
REMARK   12  A    between atoms: C_23  and  C_24
REMARK   13  A    between atoms: C_24  and  C_25
REMARK   14  A    between atoms: C_25  and  C_26
REMARK   15  A    between atoms: N_28  and  C_29
REMARK   16  A    between atoms: C_29  and  C_30
REMARK   17  A    between atoms: C_30  and  C_31
REMARK   18  A    between atoms: C_31  and  O_33
REMARK                            x       y       z     vdW  Elec       q    Type
REMARK                         _______ _______ _______ _____ _____    ______ ____
ROOT
ATOM      1  C   UNL     1       4.504   5.901  17.607  0.00  0.00    +0.000 C 
ENDROOT
BRANCH   1   2
ATOM      2  C   UNL     1       5.443   5.534  16.504  0.00  0.00    +0.000 A 
ATOM      3  N   UNL     1       5.188   5.539  15.207  0.00  0.00    +0.000 NA
ATOM      4  N   UNL     1       6.330   5.117  14.580  0.00  0.00    +0.000 NA
ATOM      5  N   UNL     1       7.276   4.828  15.463  0.00  0.00    +0.000 NA
ATOM      6  N   UNL     1       6.730   5.083  16.664  0.00  0.00    +0.000 N 
BRANCH   6   7
ATOM      7  C   UNL     1       7.473   4.739  17.861  0.00  0.00    +0.000 C 
BRANCH   7   8
ATOM      8  C   UNL     1       7.330   5.737  19.021  0.00  0.00    +0.000 C 
BRANCH   8   9
ATOM      9  C   UNL     1       8.497   6.716  19.173  0.00  0.00    +0.000 C 
BRANCH   9  10
ATOM     10  C   UNL     1       8.279   8.002  18.398  0.00  0.00    +0.000 C 
ATOM     11  O   UNL     1       7.584   8.065  17.392  0.00  0.00    +0.000 OA
ATOM     12  N   UNL     1       8.915   9.093  18.937  0.00  0.00    +0.000 N 
ATOM     13  H   UNL     1       9.488   8.990  19.768  0.00  0.00    +0.000 HD
BRANCH  12  14
ATOM     14  C   UNL     1       8.878  10.383  18.271  0.00  0.00    +0.000 C 
BRANCH  14  15
ATOM     15  C   UNL     1       9.501  11.484  19.113  0.00  0.00    +0.000 C 
BRANCH  15  16
ATOM     16  C   UNL     1      10.132  12.502  18.208  0.00  0.00    +0.000 C 
ATOM     17  O   UNL     1       9.923  13.703  18.290  0.00  0.00    +0.000 OA
BRANCH  16  18
ATOM     18  O   UNL     1      10.992  11.973  17.311  0.00  0.00    +0.000 OA
ATOM     19  H   UNL     1      10.649  11.189  16.838  0.00  0.00    +0.000 HD
ENDBRANCH  16  18
ENDBRANCH  15  16
ENDBRANCH  14  15
ENDBRANCH  12  14
ENDBRANCH   9  10
ENDBRANCH   8   9
ENDBRANCH   7   8
ENDBRANCH   6   7
ENDBRANCH   1   2
BRANCH   1  22
ATOM     20  C   UNL     1       3.638   3.861  18.763  0.00  0.00    +0.000 C 
ATOM     21  O   UNL     1       4.592   3.837  19.538  0.00  0.00    +0.000 OA
ATOM     22  N   UNL     1       3.548   4.795  17.754  0.00  0.00    +0.000 N 
ATOM     23  H   UNL     1       2.731   4.749  17.152  0.00  0.00    +0.000 HD
BRANCH  20  25
ATOM     24  C   UNL     1       1.177   3.488  18.254  0.00  0.00    +0.000 C 
ATOM     25  C   UNL     1       2.434   2.870  18.874  0.00  0.00    +0.000 C 
ATOM     26  C   UNL     1       2.169   2.535  20.347  0.00  0.00    +0.000 C 
BRANCH  25  27
ATOM     27  N   UNL     1       2.749   1.634  18.117  0.00  0.00    +0.000 NA
ATOM     28  H   UNL     1       1.911   1.042  18.100  0.00  0.00    +0.000 HD
ATOM     29  H   UNL     1       3.440   1.092  18.636  0.00  0.00    +0.000 HD
ENDBRANCH  25  27
ENDBRANCH  20  25
ENDBRANCH   1  22
BRANCH   1  30
ATOM     30  C   UNL     1       3.731   7.215  17.323  0.00  0.00    +0.000 C 
BRANCH  30  31
ATOM     31  O   UNL     1       2.465   7.335  18.006  0.00  0.00    +0.000 OA
BRANCH  31  32
ATOM     32  C   UNL     1       1.928   8.655  17.795  0.00  0.00    +0.000 C 
BRANCH  32  33
ATOM     33  C   UNL     1       1.360   9.295  19.043  0.00  0.00    +0.000 A 
ATOM     34  C   UNL     1       1.258   8.599  20.251  0.00  0.00    +0.000 A 
ATOM     35  C   UNL     1       0.747   9.229  21.395  0.00  0.00    +0.000 A 
ATOM     36  C   UNL     1       0.347  10.564  21.346  0.00  0.00    +0.000 A 
ATOM     37  C   UNL     1       0.488  11.284  20.162  0.00  0.00    +0.000 A 
ATOM     38  C   UNL     1       0.999  10.656  19.022  0.00  0.00    +0.000 A 
ENDBRANCH  32  33
ENDBRANCH  31  32
ENDBRANCH  30  31
ENDBRANCH   1  30
TORSDOF 16
ENDMDL
MODEL 7
REMARK VINA RESULT:      -6.7      3.654      9.039
REMARK  Name = 
REMARK  18 active torsions:
REMARK  status: ('A' for Active; 'I' for Inactive)
REMARK    1  A    between atoms: C_1  and  C_2
REMARK    2  A    between atoms: C_2  and  C_3
REMARK    3  A    between atoms: C_2  and  N_4
REMARK    4  A    between atoms: C_2  and  C_5
REMARK    5  A    between atoms: N_7  and  C_8
REMARK    6  A    between atoms: C_8  and  C_9
REMARK    7  A    between atoms: C_8  and  C_18
REMARK    8  A    between atoms: C_9  and  O_10
REMARK    9  A    between atoms: O_10  and  C_11
REMARK   10  A    between atoms: C_11  and  C_12
REMARK   11  A    between atoms: N_22  and  C_23
REMARK   12  A    between atoms: C_23  and  C_24
REMARK   13  A    between atoms: C_24  and  C_25
REMARK   14  A    between atoms: C_25  and  C_26
REMARK   15  A    between atoms: N_28  and  C_29
REMARK   16  A    between atoms: C_29  and  C_30
REMARK   17  A    between atoms: C_30  and  C_31
REMARK   18  A    between atoms: C_31  and  O_33
REMARK                            x       y       z     vdW  Elec       q    Type
REMARK                         _______ _______ _______ _____ _____    ______ ____
ROOT
ATOM      1  C   UNL     1       4.643   5.384  19.606  0.00  0.00    +0.000 C 
ENDROOT
BRANCH   1   2
ATOM      2  C   UNL     1       6.068   5.574  19.197  0.00  0.00    +0.000 A 
ATOM      3  N   UNL     1       7.145   5.306  19.916  0.00  0.00    +0.000 NA
ATOM      4  N   UNL     1       8.225   5.652  19.151  0.00  0.00    +0.000 NA
ATOM      5  N   UNL     1       7.840   6.151  17.985  0.00  0.00    +0.000 NA
ATOM      6  N   UNL     1       6.497   6.109  18.008  0.00  0.00    +0.000 N 
BRANCH   6   7
ATOM      7  C   UNL     1       5.755   6.713  16.918  0.00  0.00    +0.000 C 
BRANCH   7   8
ATOM      8  C   UNL     1       5.292   5.733  15.828  0.00  0.00    +0.000 C 
BRANCH   8   9
ATOM      9  C   UNL     1       6.235   4.552  15.585  0.00  0.00    +0.000 C 
BRANCH   9  10
ATOM     10  C   UNL     1       6.906   4.619  14.225  0.00  0.00    +0.000 C 
ATOM     11  O   UNL     1       7.809   5.402  13.964  0.00  0.00    +0.000 OA
ATOM     12  N   UNL     1       6.422   3.708  13.319  0.00  0.00    +0.000 N 
ATOM     13  H   UNL     1       5.666   3.083  13.579  0.00  0.00    +0.000 HD
BRANCH  12  14
ATOM     14  C   UNL     1       6.897   3.694  11.947  0.00  0.00    +0.000 C 
BRANCH  14  15
ATOM     15  C   UNL     1       7.322   2.306  11.497  0.00  0.00    +0.000 C 
BRANCH  15  16
ATOM     16  C   UNL     1       6.099   1.482  11.216  0.00  0.00    +0.000 C 
ATOM     17  O   UNL     1       6.136   0.299  10.909  0.00  0.00    +0.000 OA
BRANCH  16  18
ATOM     18  O   UNL     1       4.940   2.157  11.374  0.00  0.00    +0.000 OA
ATOM     19  H   UNL     1       4.158   1.586  11.514  0.00  0.00    +0.000 HD
ENDBRANCH  16  18
ENDBRANCH  15  16
ENDBRANCH  14  15
ENDBRANCH  12  14
ENDBRANCH   9  10
ENDBRANCH   8   9
ENDBRANCH   7   8
ENDBRANCH   6   7
ENDBRANCH   1   2
BRANCH   1  22
ATOM     20  C   UNL     1       3.536   3.149  19.446  0.00  0.00    +0.000 C 
ATOM     21  O   UNL     1       3.523   3.016  20.668  0.00  0.00    +0.000 OA
ATOM     22  N   UNL     1       4.118   4.244  18.844  0.00  0.00    +0.000 N 
ATOM     23  H   UNL     1       4.092   4.281  17.829  0.00  0.00    +0.000 HD
BRANCH  20  25
ATOM     24  C   UNL     1       2.750   2.715  17.069  0.00  0.00    +0.000 C 
ATOM     25  C   UNL     1       2.869   2.121  18.475  0.00  0.00    +0.000 C 
ATOM     26  C   UNL     1       1.474   1.745  18.994  0.00  0.00    +0.000 C 
BRANCH  25  27
ATOM     27  N   UNL     1       3.723   0.913  18.384  0.00  0.00    +0.000 NA
ATOM     28  H   UNL     1       3.849   0.532  19.330  0.00  0.00    +0.000 HD
ATOM     29  H   UNL     1       4.659   1.186  18.087  0.00  0.00    +0.000 HD
ENDBRANCH  25  27
ENDBRANCH  20  25
ENDBRANCH   1  22
BRANCH   1  30
ATOM     30  C   UNL     1       3.769   6.635  19.330  0.00  0.00    +0.000 C 
BRANCH  30  31
ATOM     31  O   UNL     1       2.364   6.364  19.142  0.00  0.00    +0.000 OA
BRANCH  31  32
ATOM     32  C   UNL     1       1.834   7.252  18.138  0.00  0.00    +0.000 C 
BRANCH  32  33
ATOM     33  C   UNL     1       1.566   8.655  18.637  0.00  0.00    +0.000 A 
ATOM     34  C   UNL     1       0.972   8.898  19.880  0.00  0.00    +0.000 A 
ATOM     35  C   UNL     1       0.757  10.211  20.322  0.00  0.00    +0.000 A 
ATOM     36  C   UNL     1       1.148  11.293  19.534  0.00  0.00    +0.000 A 
ATOM     37  C   UNL     1       1.784  11.067  18.316  0.00  0.00    +0.000 A 
ATOM     38  C   UNL     1       1.999   9.757  17.876  0.00  0.00    +0.000 A 
ENDBRANCH  32  33
ENDBRANCH  31  32
ENDBRANCH  30  31
ENDBRANCH   1  30
TORSDOF 16
ENDMDL
MODEL 8
REMARK VINA RESULT:      -6.7      4.010      7.272
REMARK  Name = 
REMARK  18 active torsions:
REMARK  status: ('A' for Active; 'I' for Inactive)
REMARK    1  A    between atoms: C_1  and  C_2
REMARK    2  A    between atoms: C_2  and  C_3
REMARK    3  A    between atoms: C_2  and  N_4
REMARK    4  A    between atoms: C_2  and  C_5
REMARK    5  A    between atoms: N_7  and  C_8
REMARK    6  A    between atoms: C_8  and  C_9
REMARK    7  A    between atoms: C_8  and  C_18
REMARK    8  A    between atoms: C_9  and  O_10
REMARK    9  A    between atoms: O_10  and  C_11
REMARK   10  A    between atoms: C_11  and  C_12
REMARK   11  A    between atoms: N_22  and  C_23
REMARK   12  A    between atoms: C_23  and  C_24
REMARK   13  A    between atoms: C_24  and  C_25
REMARK   14  A    between atoms: C_25  and  C_26
REMARK   15  A    between atoms: N_28  and  C_29
REMARK   16  A    between atoms: C_29  and  C_30
REMARK   17  A    between atoms: C_30  and  C_31
REMARK   18  A    between atoms: C_31  and  O_33
REMARK                            x       y       z     vdW  Elec       q    Type
REMARK                         _______ _______ _______ _____ _____    ______ ____
ROOT
ATOM      1  C   UNL     1       0.144  10.970  19.852  0.00  0.00    +0.000 C 
ENDROOT
BRANCH   1   2
ATOM      2  C   UNL     1      -0.182  10.474  21.224  0.00  0.00    +0.000 A 
ATOM      3  N   UNL     1      -0.244   9.214  21.620  0.00  0.00    +0.000 NA
ATOM      4  N   UNL     1      -0.592   9.235  22.944  0.00  0.00    +0.000 NA
ATOM      5  N   UNL     1      -0.770  10.478  23.367  0.00  0.00    +0.000 NA
ATOM      6  N   UNL     1      -0.519  11.256  22.301  0.00  0.00    +0.000 N 
BRANCH   6   7
ATOM      7  C   UNL     1      -0.758  12.683  22.398  0.00  0.00    +0.000 C 
BRANCH   7   8
ATOM      8  C   UNL     1      -1.983  13.079  23.239  0.00  0.00    +0.000 C 
BRANCH   8   9
ATOM      9  C   UNL     1      -3.323  12.984  22.504  0.00  0.00    +0.000 C 
BRANCH   9  10
ATOM     10  C   UNL     1      -4.484  12.743  23.450  0.00  0.00    +0.000 C 
ATOM     11  O   UNL     1      -4.390  12.066  24.465  0.00  0.00    +0.000 OA
ATOM     12  N   UNL     1      -5.647  13.370  23.076  0.00  0.00    +0.000 N 
ATOM     13  H   UNL     1      -5.680  13.915  22.221  0.00  0.00    +0.000 HD
BRANCH  12  14
ATOM     14  C   UNL     1      -6.876  13.176  23.826  0.00  0.00    +0.000 C 
BRANCH  14  15
ATOM     15  C   UNL     1      -7.715  12.037  23.272  0.00  0.00    +0.000 C 
BRANCH  15  16
ATOM     16  C   UNL     1      -7.537  11.970  21.782  0.00  0.00    +0.000 C 
ATOM     17  O   UNL     1      -7.124  10.981  21.194  0.00  0.00    +0.000 OA
BRANCH  16  18
ATOM     18  O   UNL     1      -7.916  13.095  21.139  0.00  0.00    +0.000 OA
ATOM     19  H   UNL     1      -8.720  13.516  21.503  0.00  0.00    +0.000 HD
ENDBRANCH  16  18
ENDBRANCH  15  16
ENDBRANCH  14  15
ENDBRANCH  12  14
ENDBRANCH   9  10
ENDBRANCH   8   9
ENDBRANCH   7   8
ENDBRANCH   6   7
ENDBRANCH   1   2
BRANCH   1  22
ATOM     20  C   UNL     1      -1.908  11.593  18.569  0.00  0.00    +0.000 C 
ATOM     21  O   UNL     1      -1.878  12.747  18.990  0.00  0.00    +0.000 OA
ATOM     22  N   UNL     1      -0.997  10.647  18.986  0.00  0.00    +0.000 N 
ATOM     23  H   UNL     1      -1.089   9.713  18.596  0.00  0.00    +0.000 HD
BRANCH  20  25
ATOM     24  C   UNL     1      -4.309  11.763  17.752  0.00  0.00    +0.000 C 
ATOM     25  C   UNL     1      -2.946  11.107  17.506  0.00  0.00    +0.000 C 
ATOM     26  C   UNL     1      -3.089   9.581  17.579  0.00  0.00    +0.000 C 
BRANCH  25  27
ATOM     27  N   UNL     1      -2.488  11.513  16.156  0.00  0.00    +0.000 NA
ATOM     28  H   UNL     1      -3.310  11.777  15.600  0.00  0.00    +0.000 HD
ATOM     29  H   UNL     1      -2.099  10.702  15.676  0.00  0.00    +0.000 HD
ENDBRANCH  25  27
ENDBRANCH  20  25
ENDBRANCH   1  22
BRANCH   1  30
ATOM     30  C   UNL     1       1.430  10.325  19.272  0.00  0.00    +0.000 C 
BRANCH  30  31
ATOM     31  O   UNL     1       1.210   9.134  18.488  0.00  0.00    +0.000 OA
BRANCH  31  32
ATOM     32  C   UNL     1       2.392   8.842  17.716  0.00  0.00    +0.000 C 
BRANCH  32  33
ATOM     33  C   UNL     1       2.970   7.466  17.972  0.00  0.00    +0.000 A 
ATOM     34  C   UNL     1       2.330   6.536  18.797  0.00  0.00    +0.000 A 
ATOM     35  C   UNL     1       2.881   5.263  18.995  0.00  0.00    +0.000 A 
ATOM     36  C   UNL     1       4.068   4.901  18.359  0.00  0.00    +0.000 A 
ATOM     37  C   UNL     1       4.691   5.800  17.496  0.00  0.00    +0.000 A 
ATOM     38  C   UNL     1       4.140   7.069  17.298  0.00  0.00    +0.000 A 
ENDBRANCH  32  33
ENDBRANCH  31  32
ENDBRANCH  30  31
ENDBRANCH   1  30
TORSDOF 16
ENDMDL
MODEL 9
REMARK VINA RESULT:      -6.7      4.319      7.653
REMARK  Name = 
REMARK  18 active torsions:
REMARK  status: ('A' for Active; 'I' for Inactive)
REMARK    1  A    between atoms: C_1  and  C_2
REMARK    2  A    between atoms: C_2  and  C_3
REMARK    3  A    between atoms: C_2  and  N_4
REMARK    4  A    between atoms: C_2  and  C_5
REMARK    5  A    between atoms: N_7  and  C_8
REMARK    6  A    between atoms: C_8  and  C_9
REMARK    7  A    between atoms: C_8  and  C_18
REMARK    8  A    between atoms: C_9  and  O_10
REMARK    9  A    between atoms: O_10  and  C_11
REMARK   10  A    between atoms: C_11  and  C_12
REMARK   11  A    between atoms: N_22  and  C_23
REMARK   12  A    between atoms: C_23  and  C_24
REMARK   13  A    between atoms: C_24  and  C_25
REMARK   14  A    between atoms: C_25  and  C_26
REMARK   15  A    between atoms: N_28  and  C_29
REMARK   16  A    between atoms: C_29  and  C_30
REMARK   17  A    between atoms: C_30  and  C_31
REMARK   18  A    between atoms: C_31  and  O_33
REMARK                            x       y       z     vdW  Elec       q    Type
REMARK                         _______ _______ _______ _____ _____    ______ ____
ROOT
ATOM      1  C   UNL     1       4.493   5.951  18.402  0.00  0.00    +0.000 C 
ENDROOT
BRANCH   1   2
ATOM      2  C   UNL     1       5.760   5.715  17.646  0.00  0.00    +0.000 A 
ATOM      3  N   UNL     1       6.241   4.552  17.242  0.00  0.00    +0.000 NA
ATOM      4  N   UNL     1       7.426   4.814  16.609  0.00  0.00    +0.000 NA
ATOM      5  N   UNL     1       7.700   6.110  16.634  0.00  0.00    +0.000 NA
ATOM      6  N   UNL     1       6.668   6.678  17.281  0.00  0.00    +0.000 N 
BRANCH   6   7
ATOM      7  C   UNL     1       6.728   8.093  17.596  0.00  0.00    +0.000 C 
BRANCH   7   8
ATOM      8  C   UNL     1       8.129   8.620  17.944  0.00  0.00    +0.000 C 
BRANCH   8   9
ATOM      9  C   UNL     1       8.327  10.120  17.709  0.00  0.00    +0.000 C 
BRANCH   9  10
ATOM     10  C   UNL     1       9.538  10.665  18.444  0.00  0.00    +0.000 C 
ATOM     11  O   UNL     1       9.733  10.482  19.638  0.00  0.00    +0.000 OA
ATOM     12  N   UNL     1      10.406  11.366  17.643  0.00  0.00    +0.000 N 
ATOM     13  H   UNL     1      10.197  11.499  16.659  0.00  0.00    +0.000 HD
BRANCH  12  14
ATOM     14  C   UNL     1      11.572  12.025  18.204  0.00  0.00    +0.000 C 
BRANCH  14  15
ATOM     15  C   UNL     1      11.353  13.515  18.403  0.00  0.00    +0.000 C 
BRANCH  15  16
ATOM     16  C   UNL     1      11.667  14.237  17.124  0.00  0.00    +0.000 C 
ATOM     17  O   UNL     1      12.221  15.325  17.079  0.00  0.00    +0.000 OA
BRANCH  16  18
ATOM     18  O   UNL     1      11.318  13.552  16.013  0.00  0.00    +0.000 OA
ATOM     19  H   UNL     1      11.770  13.849  15.198  0.00  0.00    +0.000 HD
ENDBRANCH  16  18
ENDBRANCH  15  16
ENDBRANCH  14  15
ENDBRANCH  12  14
ENDBRANCH   9  10
ENDBRANCH   8   9
ENDBRANCH   7   8
ENDBRANCH   6   7
ENDBRANCH   1   2
BRANCH   1  22
ATOM     20  C   UNL     1       3.022   4.478  19.786  0.00  0.00    +0.000 C 
ATOM     21  O   UNL     1       2.649   5.422  20.479  0.00  0.00    +0.000 OA
ATOM     22  N   UNL     1       3.965   4.638  18.793  0.00  0.00    +0.000 N 
ATOM     23  H   UNL     1       4.225   3.810  18.264  0.00  0.00    +0.000 HD
BRANCH  20  25
ATOM     24  C   UNL     1       0.939   3.031  19.646  0.00  0.00    +0.000 C 
ATOM     25  C   UNL     1       2.442   3.035  19.939  0.00  0.00    +0.000 C 
ATOM     26  C   UNL     1       2.690   2.523  21.364  0.00  0.00    +0.000 C 
BRANCH  25  27
ATOM     27  N   UNL     1       3.096   2.140  18.954  0.00  0.00    +0.000 NA
ATOM     28  H   UNL     1       2.438   1.970  18.184  0.00  0.00    +0.000 HD
ATOM     29  H   UNL     1       3.241   1.224  19.378  0.00  0.00    +0.000 HD
ENDBRANCH  25  27
ENDBRANCH  20  25
ENDBRANCH   1  22
BRANCH   1  30
ATOM     30  C   UNL     1       3.428   6.707  17.565  0.00  0.00    +0.000 C 
BRANCH  30  31
ATOM     31  O   UNL     1       3.235   8.088  17.933  0.00  0.00    +0.000 OA
BRANCH  31  32
ATOM     32  C   UNL     1       1.834   8.417  17.848  0.00  0.00    +0.000 C 
BRANCH  32  33
ATOM     33  C   UNL     1       1.284   9.094  19.085  0.00  0.00    +0.000 A 
ATOM     34  C   UNL     1       1.362   8.502  20.350  0.00  0.00    +0.000 A 
ATOM     35  C   UNL     1       0.863   9.166  21.479  0.00  0.00    +0.000 A 
ATOM     36  C   UNL     1       0.295  10.434  21.358  0.00  0.00    +0.000 A 
ATOM     37  C   UNL     1       0.255  11.057  20.112  0.00  0.00    +0.000 A 
ATOM     38  C   UNL     1       0.754  10.394  18.987  0.00  0.00    +0.000 A 
ENDBRANCH  32  33
ENDBRANCH  31  32
ENDBRANCH  30  31
ENDBRANCH   1  30
TORSDOF 16
ENDMDL
