MODEL 1
REMARK VINA RESULT:      -9.1      0.000      0.000
REMARK  Name = 
REMARK  7 active torsions:
REMARK  status: ('A' for Active; 'I' for Inactive)
REMARK    1  A    between atoms: C_1  and  C_2
REMARK    2  A    between atoms: C_2  and  C_3
REMARK    3  A    between atoms: C_4  and  C_5
REMARK    4  A    between atoms: C_5  and  C_6
REMARK    5  A    between atoms: C_10  and  O_11
REMARK    6  A    between atoms: C_15  and  C_16
REMARK    7  A    between atoms: C_16  and  C_17
REMARK                            x       y       z     vdW  Elec       q    Type
REMARK                         _______ _______ _______ _____ _____    ______ ____
ROOT
ATOM      1  C   UNK A   1       5.818   4.742  15.105  0.00  0.00    +0.000 A 
ATOM      2  N   UNK A   1       6.617   5.848  15.248  0.00  0.00    +0.000 N 
ATOM      3  C   UNK A   1       7.017   5.992  16.554  0.00  0.00    +0.000 A 
ATOM      4  C   UNK A   1       7.791   7.000  17.148  0.00  0.00    +0.000 A 
ATOM      5  C   UNK A   1       7.988   6.918  18.525  0.00  0.00    +0.000 A 
ATOM      6  C   UNK A   1       7.457   5.881  19.278  0.00  0.00    +0.000 A 
ATOM      7  C   UNK A   1       6.706   4.869  18.662  0.00  0.00    +0.000 A 
ATOM      8  C   UNK A   1       6.478   4.920  17.268  0.00  0.00    +0.000 A 
ATOM      9  C   UNK A   1       5.753   4.096  16.336  0.00  0.00    +0.000 A 
ATOM     10  H   UNK A   1       6.833   6.503  14.508  0.00  0.00    +0.000 HD
ENDROOT
BRANCH   5  11
ATOM     11  O   UNK A   1       8.716   7.868  19.185  0.00  0.00    +0.000 OA
ATOM     12  H   UNK A   1       9.610   7.891  18.805  0.00  0.00    +0.000 HD
ENDBRANCH   5  11
BRANCH   1  13
ATOM     13  C   UNK A   1       5.163   4.445  13.793  0.00  0.00    +0.000 C 
BRANCH  13  17
ATOM     14  C   UNK A   1       6.351   1.826  11.153  0.00  0.00    +0.000 C 
ATOM     15  C   UNK A   1       5.461   2.813  11.858  0.00  0.00    +0.000 C 
ATOM     16  C   UNK A   1       4.124   3.103  11.242  0.00  0.00    +0.000 C 
ATOM     17  C   UNK A   1       5.890   3.403  12.990  0.00  0.00    +0.000 C 
ENDBRANCH  13  17
ENDBRANCH   1  13
BRANCH   9  18
ATOM     18  C   UNK A   1       4.999   2.826  16.642  0.00  0.00    +0.000 C 
BRANCH  18  19
ATOM     19  C   UNK A   1       3.696   3.053  17.428  0.00  0.00    +0.000 C 
ATOM     20  N   UNK A   1       3.319   4.474  17.528  0.00  0.00    +0.000 N 
ATOM     21  C   PRO A   2       2.246   4.872  18.301  0.00  0.00    +0.000 C 
ATOM     22  O   PRO A   2       1.719   5.968  18.143  0.00  0.00    +0.000 OA
ATOM     23  CA  PRO A   2       1.704   3.765  19.207  0.00  0.00    +0.000 C 
ATOM     24  CB  PRO A   2       0.987   4.243  20.463  0.00  0.00    +0.000 C 
ATOM     25  CG  PRO A   2       1.268   3.116  21.458  0.00  0.00    +0.000 C 
ATOM     26  CD  PRO A   2       2.697   2.698  21.128  0.00  0.00    +0.000 C 
ATOM     27  N   PRO A   2       2.817   2.969  19.712  0.00  0.00    +0.000 N 
ATOM     28  C   UNK A   1       3.815   2.497  18.876  0.00  0.00    +0.000 C 
ATOM     29  O   UNK A   1       4.642   1.664  19.228  0.00  0.00    +0.000 OA
ATOM     30  H   UNK A   1       3.524   5.099  16.760  0.00  0.00    +0.000 HD
ENDBRANCH  18  19
ENDBRANCH   9  18
TORSDOF 5
ENDMDL
MODEL 2
REMARK VINA RESULT:      -8.8      2.343      5.181
REMARK  Name = 
REMARK  7 active torsions:
REMARK  status: ('A' for Active; 'I' for Inactive)
REMARK    1  A    between atoms: C_1  and  C_2
REMARK    2  A    between atoms: C_2  and  C_3
REMARK    3  A    between atoms: C_4  and  C_5
REMARK    4  A    between atoms: C_5  and  C_6
REMARK    5  A    between atoms: C_10  and  O_11
REMARK    6  A    between atoms: C_15  and  C_16
REMARK    7  A    between atoms: C_16  and  C_17
REMARK                            x       y       z     vdW  Elec       q    Type
REMARK                         _______ _______ _______ _____ _____    ______ ____
ROOT
ATOM      1  C   UNK A   1       7.530   6.733  17.560  0.00  0.00    +0.000 A 
ATOM      2  N   UNK A   1       7.809   6.644  16.220  0.00  0.00    +0.000 N 
ATOM      3  C   UNK A   1       7.131   5.593  15.652  0.00  0.00    +0.000 A 
ATOM      4  C   UNK A   1       7.161   5.114  14.334  0.00  0.00    +0.000 A 
ATOM      5  C   UNK A   1       6.406   3.978  14.056  0.00  0.00    +0.000 A 
ATOM      6  C   UNK A   1       5.644   3.350  15.031  0.00  0.00    +0.000 A 
ATOM      7  C   UNK A   1       5.607   3.859  16.339  0.00  0.00    +0.000 A 
ATOM      8  C   UNK A   1       6.365   5.007  16.662  0.00  0.00    +0.000 A 
ATOM      9  C   UNK A   1       6.582   5.763  17.868  0.00  0.00    +0.000 A 
ATOM     10  H   UNK A   1       8.470   7.231  15.728  0.00  0.00    +0.000 HD
ENDROOT
BRANCH   5  11
ATOM     11  O   UNK A   1       6.393   3.436  12.801  0.00  0.00    +0.000 OA
ATOM     12  H   UNK A   1       5.536   3.001  12.661  0.00  0.00    +0.000 HD
ENDBRANCH   5  11
BRANCH   1  13
ATOM     13  C   UNK A   1       8.245   7.730  18.418  0.00  0.00    +0.000 C 
BRANCH  13  17
ATOM     14  C   UNK A   1       8.651  11.545  17.692  0.00  0.00    +0.000 C 
ATOM     15  C   UNK A   1       8.743  10.229  18.418  0.00  0.00    +0.000 C 
ATOM     16  C   UNK A   1       9.458  10.216  19.737  0.00  0.00    +0.000 C 
ATOM     17  C   UNK A   1       8.202   9.127  17.865  0.00  0.00    +0.000 C 
ENDBRANCH  13  17
ENDBRANCH   1  13
BRANCH   9  18
ATOM     18  C   UNK A   1       5.970   5.507  19.223  0.00  0.00    +0.000 C 
BRANCH  18  19
ATOM     19  C   UNK A   1       4.466   5.189  19.173  0.00  0.00    +0.000 C 
ATOM     20  N   UNK A   1       3.654   6.090  20.012  0.00  0.00    +0.000 N 
ATOM     21  C   PRO A   2       2.300   5.875  20.182  0.00  0.00    +0.000 C 
ATOM     22  O   PRO A   2       1.560   6.764  20.586  0.00  0.00    +0.000 OA
ATOM     23  CA  PRO A   2       1.829   4.516  19.660  0.00  0.00    +0.000 C 
ATOM     24  CB  PRO A   2       0.575   3.962  20.324  0.00  0.00    +0.000 C 
ATOM     25  CG  PRO A   2       0.790   2.450  20.237  0.00  0.00    +0.000 C 
ATOM     26  CD  PRO A   2       2.289   2.291  20.468  0.00  0.00    +0.000 C 
ATOM     27  N   PRO A   2       2.851   3.514  19.936  0.00  0.00    +0.000 N 
ATOM     28  C   UNK A   1       4.187   3.733  19.644  0.00  0.00    +0.000 C 
ATOM     29  O   UNK A   1       5.032   2.846  19.672  0.00  0.00    +0.000 OA
ATOM     30  H   UNK A   1       3.931   7.057  20.116  0.00  0.00    +0.000 HD
ENDBRANCH  18  19
ENDBRANCH   9  18
TORSDOF 5
ENDMDL
MODEL 3
REMARK VINA RESULT:      -8.7      1.139      1.947
REMARK  Name = 
REMARK  7 active torsions:
REMARK  status: ('A' for Active; 'I' for Inactive)
REMARK    1  A    between atoms: C_1  and  C_2
REMARK    2  A    between atoms: C_2  and  C_3
REMARK    3  A    between atoms: C_4  and  C_5
REMARK    4  A    between atoms: C_5  and  C_6
REMARK    5  A    between atoms: C_10  and  O_11
REMARK    6  A    between atoms: C_15  and  C_16
REMARK    7  A    between atoms: C_16  and  C_17
REMARK                            x       y       z     vdW  Elec       q    Type
REMARK                         _______ _______ _______ _____ _____    ______ ____
ROOT
ATOM      1  C   UNK A   1       5.929   4.989  15.242  0.00  0.00    +0.000 A 
ATOM      2  N   UNK A   1       6.711   6.115  15.273  0.00  0.00    +0.000 N 
ATOM      3  C   UNK A   1       7.146   6.371  16.550  0.00  0.00    +0.000 A 
ATOM      4  C   UNK A   1       7.917   7.435  17.039  0.00  0.00    +0.000 A 
ATOM      5  C   UNK A   1       8.155   7.467  18.411  0.00  0.00    +0.000 A 
ATOM      6  C   UNK A   1       7.665   6.485  19.260  0.00  0.00    +0.000 A 
ATOM      7  C   UNK A   1       6.915   5.415  18.749  0.00  0.00    +0.000 A 
ATOM      8  C   UNK A   1       6.647   5.350  17.363  0.00  0.00    +0.000 A 
ATOM      9  C   UNK A   1       5.912   4.443  16.521  0.00  0.00    +0.000 A 
ATOM     10  H   UNK A   1       6.894   6.712  14.476  0.00  0.00    +0.000 HD
ENDROOT
BRANCH   5  11
ATOM     11  O   UNK A   1       8.884   8.478  18.971  0.00  0.00    +0.000 OA
ATOM     12  H   UNK A   1       9.797   8.170  19.093  0.00  0.00    +0.000 HD
ENDBRANCH   5  11
BRANCH   1  13
ATOM     13  C   UNK A   1       5.243   4.576  13.978  0.00  0.00    +0.000 C 
BRANCH  13  17
ATOM     14  C   UNK A   1       6.607   2.076  11.308  0.00  0.00    +0.000 C 
ATOM     15  C   UNK A   1       5.655   3.001  12.017  0.00  0.00    +0.000 C 
ATOM     16  C   UNK A   1       4.314   3.232  11.386  0.00  0.00    +0.000 C 
ATOM     17  C   UNK A   1       6.036   3.591  13.167  0.00  0.00    +0.000 C 
ENDBRANCH  13  17
ENDBRANCH   1  13
BRANCH   9  18
ATOM     18  C   UNK A   1       5.190   3.189  16.950  0.00  0.00    +0.000 C 
BRANCH  18  19
ATOM     19  C   UNK A   1       4.485   3.315  18.312  0.00  0.00    +0.000 C 
ATOM     20  N   UNK A   1       4.931   2.307  19.292  0.00  0.00    +0.000 N 
ATOM     21  C   PRO A   2       4.318   2.195  20.524  0.00  0.00    +0.000 C 
ATOM     22  O   PRO A   2       4.864   1.615  21.456  0.00  0.00    +0.000 OA
ATOM     23  CA  PRO A   2       3.021   2.998  20.636  0.00  0.00    +0.000 C 
ATOM     24  CB  PRO A   2       2.016   2.476  21.654  0.00  0.00    +0.000 C 
ATOM     25  CG  PRO A   2       0.675   2.884  21.040  0.00  0.00    +0.000 C 
ATOM     26  CD  PRO A   2       0.894   2.683  19.544  0.00  0.00    +0.000 C 
ATOM     27  N   PRO A   2       2.307   2.937  19.366  0.00  0.00    +0.000 N 
ATOM     28  C   UNK A   1       2.944   3.167  18.157  0.00  0.00    +0.000 C 
ATOM     29  O   UNK A   1       2.340   3.325  17.103  0.00  0.00    +0.000 OA
ATOM     30  H   UNK A   1       5.893   1.996  19.283  0.00  0.00    +0.000 HD
ENDBRANCH  18  19
ENDBRANCH   9  18
TORSDOF 5
ENDMDL
MODEL 4
REMARK VINA RESULT:      -8.3      3.568      6.022
REMARK  Name = 
REMARK  7 active torsions:
REMARK  status: ('A' for Active; 'I' for Inactive)
REMARK    1  A    between atoms: C_1  and  C_2
REMARK    2  A    between atoms: C_2  and  C_3
REMARK    3  A    between atoms: C_4  and  C_5
REMARK    4  A    between atoms: C_5  and  C_6
REMARK    5  A    between atoms: C_10  and  O_11
REMARK    6  A    between atoms: C_15  and  C_16
REMARK    7  A    between atoms: C_16  and  C_17
REMARK                            x       y       z     vdW  Elec       q    Type
REMARK                         _______ _______ _______ _____ _____    ______ ____
ROOT
ATOM      1  C   UNK A   1       2.734   4.461  17.783  0.00  0.00    +0.000 A 
ATOM      2  N   UNK A   1       3.487   3.926  16.768  0.00  0.00    +0.000 N 
ATOM      3  C   UNK A   1       4.665   4.617  16.622  0.00  0.00    +0.000 A 
ATOM      4  C   UNK A   1       5.695   4.444  15.686  0.00  0.00    +0.000 A 
ATOM      5  C   UNK A   1       6.756   5.344  15.739  0.00  0.00    +0.000 A 
ATOM      6  C   UNK A   1       6.806   6.360  16.681  0.00  0.00    +0.000 A 
ATOM      7  C   UNK A   1       5.777   6.502  17.625  0.00  0.00    +0.000 A 
ATOM      8  C   UNK A   1       4.679   5.613  17.601  0.00  0.00    +0.000 A 
ATOM      9  C   UNK A   1       3.471   5.484  18.372  0.00  0.00    +0.000 A 
ATOM     10  H   UNK A   1       3.190   3.166  16.169  0.00  0.00    +0.000 HD
ENDROOT
BRANCH   5  11
ATOM     11  O   UNK A   1       7.793   5.255  14.852  0.00  0.00    +0.000 OA
ATOM     12  H   UNK A   1       7.897   6.115  14.412  0.00  0.00    +0.000 HD
ENDBRANCH   5  11
BRANCH   1  13
ATOM     13  C   UNK A   1       1.354   3.950  18.053  0.00  0.00    +0.000 C 
BRANCH  13  17
ATOM     14  C   UNK A   1       1.474   2.656  21.735  0.00  0.00    +0.000 C 
ATOM     15  C   UNK A   1       1.831   2.807  20.281  0.00  0.00    +0.000 C 
ATOM     16  C   UNK A   1       3.001   2.019  19.770  0.00  0.00    +0.000 C 
ATOM     17  C   UNK A   1       1.111   3.638  19.503  0.00  0.00    +0.000 C 
ENDBRANCH  13  17
ENDBRANCH   1  13
BRANCH   9  18
ATOM     18  C   UNK A   1       3.042   6.340  19.538  0.00  0.00    +0.000 C 
BRANCH  18  19
ATOM     19  C   UNK A   1       2.052   7.454  19.158  0.00  0.00    +0.000 C 
ATOM     20  N   UNK A   1       2.672   8.541  18.380  0.00  0.00    +0.000 N 
ATOM     21  C   PRO A   2       1.961   9.680  18.058  0.00  0.00    +0.000 C 
ATOM     22  O   PRO A   2       2.328  10.427  17.159  0.00  0.00    +0.000 OA
ATOM     23  CA  PRO A   2       0.628   9.796  18.800  0.00  0.00    +0.000 C 
ATOM     24  CB  PRO A   2       0.105  11.215  18.983  0.00  0.00    +0.000 C 
ATOM     25  CG  PRO A   2      -0.670  11.119  20.298  0.00  0.00    +0.000 C 
ATOM     26  CD  PRO A   2       0.174  10.167  21.140  0.00  0.00    +0.000 C 
ATOM     27  N   PRO A   2       0.791   9.298  20.161  0.00  0.00    +0.000 N 
ATOM     28  C   UNK A   1       1.416   8.090  20.427  0.00  0.00    +0.000 C 
ATOM     29  O   UNK A   1       1.386   7.551  21.527  0.00  0.00    +0.000 OA
ATOM     30  H   UNK A   1       3.416   8.326  17.729  0.00  0.00    +0.000 HD
ENDBRANCH  18  19
ENDBRANCH   9  18
TORSDOF 5
ENDMDL
MODEL 5
REMARK VINA RESULT:      -8.2      2.323      5.524
REMARK  Name = 
REMARK  7 active torsions:
REMARK  status: ('A' for Active; 'I' for Inactive)
REMARK    1  A    between atoms: C_1  and  C_2
REMARK    2  A    between atoms: C_2  and  C_3
REMARK    3  A    between atoms: C_4  and  C_5
REMARK    4  A    between atoms: C_5  and  C_6
REMARK    5  A    between atoms: C_10  and  O_11
REMARK    6  A    between atoms: C_15  and  C_16
REMARK    7  A    between atoms: C_16  and  C_17
REMARK                            x       y       z     vdW  Elec       q    Type
REMARK                         _______ _______ _______ _____ _____    ______ ____
ROOT
ATOM      1  C   UNK A   1       7.157   6.971  17.196  0.00  0.00    +0.000 A 
ATOM      2  N   UNK A   1       7.832   6.350  16.175  0.00  0.00    +0.000 N 
ATOM      3  C   UNK A   1       6.989   5.532  15.463  0.00  0.00    +0.000 A 
ATOM      4  C   UNK A   1       7.266   4.682  14.383  0.00  0.00    +0.000 A 
ATOM      5  C   UNK A   1       6.212   3.915  13.895  0.00  0.00    +0.000 A 
ATOM      6  C   UNK A   1       4.938   3.992  14.439  0.00  0.00    +0.000 A 
ATOM      7  C   UNK A   1       4.675   4.867  15.504  0.00  0.00    +0.000 A 
ATOM      8  C   UNK A   1       5.720   5.658  16.033  0.00  0.00    +0.000 A 
ATOM      9  C   UNK A   1       5.816   6.612  17.107  0.00  0.00    +0.000 A 
ATOM     10  H   UNK A   1       8.826   6.435  16.006  0.00  0.00    +0.000 HD
ENDROOT
BRANCH   5  11
ATOM     11  O   UNK A   1       6.401   3.048  12.854  0.00  0.00    +0.000 OA
ATOM     12  H   UNK A   1       6.739   3.549  12.093  0.00  0.00    +0.000 HD
ENDBRANCH   5  11
BRANCH   1  13
ATOM     13  C   UNK A   1       7.893   7.822  18.183  0.00  0.00    +0.000 C 
BRANCH  13  17
ATOM     14  C   UNK A   1       8.803  11.595  17.758  0.00  0.00    +0.000 C 
ATOM     15  C   UNK A   1       8.709  10.228  18.381  0.00  0.00    +0.000 C 
ATOM     16  C   UNK A   1       9.387  10.023  19.704  0.00  0.00    +0.000 C 
ATOM     17  C   UNK A   1       8.043   9.250  17.739  0.00  0.00    +0.000 C 
ENDBRANCH  13  17
ENDBRANCH   1  13
BRANCH   9  18
ATOM     18  C   UNK A   1       4.703   7.072  18.015  0.00  0.00    +0.000 C 
BRANCH  18  19
ATOM     19  C   UNK A   1       4.094   5.946  18.868  0.00  0.00    +0.000 C 
ATOM     20  N   UNK A   1       4.924   4.728  18.901  0.00  0.00    +0.000 N 
ATOM     21  C   PRO A   2       4.474   3.578  19.517  0.00  0.00    +0.000 C 
ATOM     22  O   PRO A   2       5.249   2.686  19.843  0.00  0.00    +0.000 OA
ATOM     23  CA  PRO A   2       2.991   3.627  19.891  0.00  0.00    +0.000 C 
ATOM     24  CB  PRO A   2       2.299   2.274  19.990  0.00  0.00    +0.000 C 
ATOM     25  CG  PRO A   2       0.861   2.603  19.587  0.00  0.00    +0.000 C 
ATOM     26  CD  PRO A   2       1.030   3.647  18.487  0.00  0.00    +0.000 C 
ATOM     27  N   PRO A   2       2.255   4.329  18.846  0.00  0.00    +0.000 N 
ATOM     28  C   UNK A   1       2.690   5.541  18.335  0.00  0.00    +0.000 C 
ATOM     29  O   UNK A   1       1.996   6.249  17.614  0.00  0.00    +0.000 OA
ATOM     30  H   UNK A   1       5.932   4.813  18.876  0.00  0.00    +0.000 HD
ENDBRANCH  18  19
ENDBRANCH   9  18
TORSDOF 5
ENDMDL
MODEL 6
REMARK VINA RESULT:      -8.1      1.338      2.212
REMARK  Name = 
REMARK  7 active torsions:
REMARK  status: ('A' for Active; 'I' for Inactive)
REMARK    1  A    between atoms: C_1  and  C_2
REMARK    2  A    between atoms: C_2  and  C_3
REMARK    3  A    between atoms: C_4  and  C_5
REMARK    4  A    between atoms: C_5  and  C_6
REMARK    5  A    between atoms: C_10  and  O_11
REMARK    6  A    between atoms: C_15  and  C_16
REMARK    7  A    between atoms: C_16  and  C_17
REMARK                            x       y       z     vdW  Elec       q    Type
REMARK                         _______ _______ _______ _____ _____    ______ ____
ROOT
ATOM      1  C   UNK A   1       6.360   4.341  14.875  0.00  0.00    +0.000 A 
ATOM      2  N   UNK A   1       7.355   5.282  14.940  0.00  0.00    +0.000 N 
ATOM      3  C   UNK A   1       7.156   6.127  16.005  0.00  0.00    +0.000 A 
ATOM      4  C   UNK A   1       7.895   7.247  16.410  0.00  0.00    +0.000 A 
ATOM      5  C   UNK A   1       7.415   7.958  17.508  0.00  0.00    +0.000 A 
ATOM      6  C   UNK A   1       6.266   7.573  18.183  0.00  0.00    +0.000 A 
ATOM      7  C   UNK A   1       5.554   6.434  17.777  0.00  0.00    +0.000 A 
ATOM      8  C   UNK A   1       6.004   5.689  16.663  0.00  0.00    +0.000 A 
ATOM      9  C   UNK A   1       5.524   4.522  15.972  0.00  0.00    +0.000 A 
ATOM     10  H   UNK A   1       8.101   5.380  14.263  0.00  0.00    +0.000 HD
ENDROOT
BRANCH   5  11
ATOM     11  O   UNK A   1       8.066   9.073  17.958  0.00  0.00    +0.000 OA
ATOM     12  H   UNK A   1       8.503   8.857  18.798  0.00  0.00    +0.000 HD
ENDBRANCH   5  11
BRANCH   1  13
ATOM     13  C   UNK A   1       6.297   3.382  13.728  0.00  0.00    +0.000 C 
BRANCH  13  17
ATOM     14  C   UNK A   1       3.714   3.443  10.801  0.00  0.00    +0.000 C 
ATOM     15  C   UNK A   1       4.865   2.988  11.657  0.00  0.00    +0.000 C 
ATOM     16  C   UNK A   1       5.564   1.721  11.259  0.00  0.00    +0.000 C 
ATOM     17  C   UNK A   1       5.216   3.711  12.737  0.00  0.00    +0.000 C 
ENDBRANCH  13  17
ENDBRANCH   1  13
BRANCH   9  18
ATOM     18  C   UNK A   1       4.305   3.701  16.314  0.00  0.00    +0.000 C 
BRANCH  18  19
ATOM     19  C   UNK A   1       3.971   3.685  17.816  0.00  0.00    +0.000 C 
ATOM     20  N   UNK A   1       4.646   2.598  18.549  0.00  0.00    +0.000 N 
ATOM     21  C   PRO A   2       4.367   2.358  19.880  0.00  0.00    +0.000 C 
ATOM     22  O   PRO A   2       5.129   1.703  20.581  0.00  0.00    +0.000 OA
ATOM     23  CA  PRO A   2       3.146   3.123  20.394  0.00  0.00    +0.000 C 
ATOM     24  CB  PRO A   2       2.431   2.488  21.580  0.00  0.00    +0.000 C 
ATOM     25  CG  PRO A   2       0.981   2.926  21.370  0.00  0.00    +0.000 C 
ATOM     26  CD  PRO A   2       0.809   2.872  19.855  0.00  0.00    +0.000 C 
ATOM     27  N   PRO A   2       2.132   3.168  19.348  0.00  0.00    +0.000 N 
ATOM     28  C   UNK A   1       2.441   3.524  18.045  0.00  0.00    +0.000 C 
ATOM     29  O   UNK A   1       1.589   3.769  17.199  0.00  0.00    +0.000 OA
ATOM     30  H   UNK A   1       5.572   2.307  18.265  0.00  0.00    +0.000 HD
ENDBRANCH  18  19
ENDBRANCH   9  18
TORSDOF 5
ENDMDL
MODEL 7
REMARK VINA RESULT:      -8.1      2.229      5.354
REMARK  Name = 
REMARK  7 active torsions:
REMARK  status: ('A' for Active; 'I' for Inactive)
REMARK    1  A    between atoms: C_1  and  C_2
REMARK    2  A    between atoms: C_2  and  C_3
REMARK    3  A    between atoms: C_4  and  C_5
REMARK    4  A    between atoms: C_5  and  C_6
REMARK    5  A    between atoms: C_10  and  O_11
REMARK    6  A    between atoms: C_15  and  C_16
REMARK    7  A    between atoms: C_16  and  C_17
REMARK                            x       y       z     vdW  Elec       q    Type
REMARK                         _______ _______ _______ _____ _____    ______ ____
ROOT
ATOM      1  C   UNK A   1       7.005   6.555  16.724  0.00  0.00    +0.000 A 
ATOM      2  N   UNK A   1       7.783   6.097  15.691  0.00  0.00    +0.000 N 
ATOM      3  C   UNK A   1       7.051   5.294  14.850  0.00  0.00    +0.000 A 
ATOM      4  C   UNK A   1       7.456   4.585  13.711  0.00  0.00    +0.000 A 
ATOM      5  C   UNK A   1       6.497   3.793  13.084  0.00  0.00    +0.000 A 
ATOM      6  C   UNK A   1       5.193   3.716  13.553  0.00  0.00    +0.000 A 
ATOM      7  C   UNK A   1       4.800   4.453  14.681  0.00  0.00    +0.000 A 
ATOM      8  C   UNK A   1       5.746   5.263  15.349  0.00  0.00    +0.000 A 
ATOM      9  C   UNK A   1       5.705   6.105  16.516  0.00  0.00    +0.000 A 
ATOM     10  H   UNK A   1       8.774   6.275  15.593  0.00  0.00    +0.000 HD
ENDROOT
BRANCH   5  11
ATOM     11  O   UNK A   1       6.813   3.056  11.977  0.00  0.00    +0.000 OA
ATOM     12  H   UNK A   1       7.700   2.681  12.099  0.00  0.00    +0.000 HD
ENDBRANCH   5  11
BRANCH   1  13
ATOM     13  C   UNK A   1       7.612   7.354  17.834  0.00  0.00    +0.000 C 
BRANCH  13  17
ATOM     14  C   UNK A   1       8.479  11.158  17.708  0.00  0.00    +0.000 C 
ATOM     15  C   UNK A   1       8.429   9.739  18.206  0.00  0.00    +0.000 C 
ATOM     16  C   UNK A   1       9.186   9.419  19.461  0.00  0.00    +0.000 C 
ATOM     17  C   UNK A   1       7.729   8.818  17.516  0.00  0.00    +0.000 C 
ENDBRANCH  13  17
ENDBRANCH   1  13
BRANCH   9  18
ATOM     18  C   UNK A   1       4.509   6.382  17.393  0.00  0.00    +0.000 C 
BRANCH  18  19
ATOM     19  C   UNK A   1       4.189   5.247  18.381  0.00  0.00    +0.000 C 
ATOM     20  N   UNK A   1       3.950   3.952  17.718  0.00  0.00    +0.000 N 
ATOM     21  C   PRO A   2       3.530   2.851  18.439  0.00  0.00    +0.000 C 
ATOM     22  O   PRO A   2       3.642   1.716  17.991  0.00  0.00    +0.000 OA
ATOM     23  CA  PRO A   2       3.098   3.187  19.868  0.00  0.00    +0.000 C 
ATOM     24  CB  PRO A   2       2.096   2.223  20.489  0.00  0.00    +0.000 C 
ATOM     25  CG  PRO A   2       1.304   3.128  21.436  0.00  0.00    +0.000 C 
ATOM     26  CD  PRO A   2       1.199   4.441  20.667  0.00  0.00    +0.000 C 
ATOM     27  N   PRO A   2       2.407   4.472  19.871  0.00  0.00    +0.000 N 
ATOM     28  C   UNK A   1       2.925   5.582  19.224  0.00  0.00    +0.000 C 
ATOM     29  O   UNK A   1       2.481   6.713  19.378  0.00  0.00    +0.000 OA
ATOM     30  H   UNK A   1       4.465   3.720  16.879  0.00  0.00    +0.000 HD
ENDBRANCH  18  19
ENDBRANCH   9  18
TORSDOF 5
ENDMDL
MODEL 8
REMARK VINA RESULT:      -7.9      4.513      7.102
REMARK  Name = 
REMARK  7 active torsions:
REMARK  status: ('A' for Active; 'I' for Inactive)
REMARK    1  A    between atoms: C_1  and  C_2
REMARK    2  A    between atoms: C_2  and  C_3
REMARK    3  A    between atoms: C_4  and  C_5
REMARK    4  A    between atoms: C_5  and  C_6
REMARK    5  A    between atoms: C_10  and  O_11
REMARK    6  A    between atoms: C_15  and  C_16
REMARK    7  A    between atoms: C_16  and  C_17
REMARK                            x       y       z     vdW  Elec       q    Type
REMARK                         _______ _______ _______ _____ _____    ______ ____
ROOT
ATOM      1  C   UNK A   1       2.979   6.049  19.475  0.00  0.00    +0.000 A 
ATOM      2  N   UNK A   1       4.077   5.229  19.519  0.00  0.00    +0.000 N 
ATOM      3  C   UNK A   1       4.883   5.437  18.426  0.00  0.00    +0.000 A 
ATOM      4  C   UNK A   1       6.067   4.788  18.050  0.00  0.00    +0.000 A 
ATOM      5  C   UNK A   1       6.643   5.172  16.841  0.00  0.00    +0.000 A 
ATOM      6  C   UNK A   1       6.083   6.162  16.047  0.00  0.00    +0.000 A 
ATOM      7  C   UNK A   1       4.910   6.817  16.453  0.00  0.00    +0.000 A 
ATOM      8  C   UNK A   1       4.292   6.451  17.670  0.00  0.00    +0.000 A 
ATOM      9  C   UNK A   1       3.103   6.875  18.363  0.00  0.00    +0.000 A 
ATOM     10  H   UNK A   1       4.243   4.524  20.226  0.00  0.00    +0.000 HD
ENDROOT
BRANCH   5  11
ATOM     11  O   UNK A   1       7.790   4.578  16.392  0.00  0.00    +0.000 OA
ATOM     12  H   UNK A   1       7.597   3.648  16.190  0.00  0.00    +0.000 HD
ENDBRANCH   5  11
BRANCH   1  13
ATOM     13  C   UNK A   1       1.895   5.921  20.499  0.00  0.00    +0.000 C 
BRANCH  13  17
ATOM     14  C   UNK A   1       1.705   2.256  21.833  0.00  0.00    +0.000 C 
ATOM     15  C   UNK A   1       1.482   3.444  20.936  0.00  0.00    +0.000 C 
ATOM     16  C   UNK A   1       0.720   3.217  19.663  0.00  0.00    +0.000 C 
ATOM     17  C   UNK A   1       1.975   4.646  21.291  0.00  0.00    +0.000 C 
ENDBRANCH  13  17
ENDBRANCH   1  13
BRANCH   9  18
ATOM     18  C   UNK A   1       2.133   7.947  17.929  0.00  0.00    +0.000 C 
BRANCH  18  19
ATOM     19  C   UNK A   1       1.935   9.061  18.971  0.00  0.00    +0.000 C 
ATOM     20  N   UNK A   1       0.680   8.926  19.734  0.00  0.00    +0.000 N 
ATOM     21  C   PRO A   2       0.281   9.903  20.624  0.00  0.00    +0.000 C 
ATOM     22  O   PRO A   2      -0.555   9.673  21.490  0.00  0.00    +0.000 OA
ATOM     23  CA  PRO A   2       1.101  11.191  20.523  0.00  0.00    +0.000 C 
ATOM     24  CB  PRO A   2       0.387  12.456  20.983  0.00  0.00    +0.000 C 
ATOM     25  CG  PRO A   2       1.019  13.536  20.103  0.00  0.00    +0.000 C 
ATOM     26  CD  PRO A   2       1.209  12.835  18.761  0.00  0.00    +0.000 C 
ATOM     27  N   PRO A   2       1.419  11.450  19.124  0.00  0.00    +0.000 N 
ATOM     28  C   UNK A   1       1.924  10.461  18.294  0.00  0.00    +0.000 C 
ATOM     29  O   UNK A   1       2.389  10.693  17.185  0.00  0.00    +0.000 OA
ATOM     30  H   UNK A   1       0.328   8.004  19.952  0.00  0.00    +0.000 HD
ENDBRANCH  18  19
ENDBRANCH   9  18
TORSDOF 5
ENDMDL
MODEL 9
REMARK VINA RESULT:      -7.7      4.086      6.370
REMARK  Name = 
REMARK  7 active torsions:
REMARK  status: ('A' for Active; 'I' for Inactive)
REMARK    1  A    between atoms: C_1  and  C_2
REMARK    2  A    between atoms: C_2  and  C_3
REMARK    3  A    between atoms: C_4  and  C_5
REMARK    4  A    between atoms: C_5  and  C_6
REMARK    5  A    between atoms: C_10  and  O_11
REMARK    6  A    between atoms: C_15  and  C_16
REMARK    7  A    between atoms: C_16  and  C_17
REMARK                            x       y       z     vdW  Elec       q    Type
REMARK                         _______ _______ _______ _____ _____    ______ ____
ROOT
ATOM      1  C   UNK A   1       4.204   5.936  18.087  0.00  0.00    +0.000 A 
ATOM      2  N   UNK A   1       4.628   4.784  18.698  0.00  0.00    +0.000 N 
ATOM      3  C   UNK A   1       3.674   4.316  19.569  0.00  0.00    +0.000 A 
ATOM      4  C   UNK A   1       3.710   3.209  20.428  0.00  0.00    +0.000 A 
ATOM      5  C   UNK A   1       2.605   3.010  21.252  0.00  0.00    +0.000 A 
ATOM      6  C   UNK A   1       1.508   3.859  21.219  0.00  0.00    +0.000 A 
ATOM      7  C   UNK A   1       1.480   4.948  20.335  0.00  0.00    +0.000 A 
ATOM      8  C   UNK A   1       2.585   5.187  19.487  0.00  0.00    +0.000 A 
ATOM      9  C   UNK A   1       2.903   6.192  18.507  0.00  0.00    +0.000 A 
ATOM     10  H   UNK A   1       5.542   4.367  18.573  0.00  0.00    +0.000 HD
ENDROOT
BRANCH   5  11
ATOM     11  O   UNK A   1       2.567   1.964  22.131  0.00  0.00    +0.000 OA
ATOM     12  H   UNK A   1       3.477   1.671  22.302  0.00  0.00    +0.000 HD
ENDBRANCH   5  11
BRANCH   1  13
ATOM     13  C   UNK A   1       5.122   6.697  17.182  0.00  0.00    +0.000 C 
BRANCH  13  17
ATOM     14  C   UNK A   1       6.269   4.524  14.148  0.00  0.00    +0.000 C 
ATOM     15  C   UNK A   1       6.254   5.121  15.529  0.00  0.00    +0.000 C 
ATOM     16  C   UNK A   1       7.293   4.644  16.501  0.00  0.00    +0.000 C 
ATOM     17  C   UNK A   1       5.319   6.038  15.846  0.00  0.00    +0.000 C 
ENDBRANCH  13  17
ENDBRANCH   1  13
BRANCH   9  18
ATOM     18  C   UNK A   1       2.033   7.348  18.077  0.00  0.00    +0.000 C 
BRANCH  18  19
ATOM     19  C   UNK A   1       1.864   8.431  19.157  0.00  0.00    +0.000 C 
ATOM     20  N   UNK A   1       0.728   8.176  20.061  0.00  0.00    +0.000 N 
ATOM     21  C   PRO A   2       0.354   9.105  21.012  0.00  0.00    +0.000 C 
ATOM     22  O   PRO A   2      -0.347   8.793  21.967  0.00  0.00    +0.000 OA
ATOM     23  CA  PRO A   2       1.037  10.464  20.837  0.00  0.00    +0.000 C 
ATOM     24  CB  PRO A   2       0.274  11.654  21.404  0.00  0.00    +0.000 C 
ATOM     25  CG  PRO A   2       0.695  12.794  20.475  0.00  0.00    +0.000 C 
ATOM     26  CD  PRO A   2       0.783  12.125  19.107  0.00  0.00    +0.000 C 
ATOM     27  N   PRO A   2       1.158  10.762  19.415  0.00  0.00    +0.000 N 
ATOM     28  C   UNK A   1       1.645   9.830  18.513  0.00  0.00    +0.000 C 
ATOM     29  O   UNK A   1       1.951  10.113  17.360  0.00  0.00    +0.000 OA
ATOM     30  H   UNK A   1       0.489   7.224  20.303  0.00  0.00    +0.000 HD
ENDBRANCH  18  19
ENDBRANCH   9  18
TORSDOF 5
ENDMDL
