MODEL 1
REMARK VINA RESULT:      -7.1      0.000      0.000
REMARK  Name = 
REMARK  4 active torsions:
REMARK  status: ('A' for Active; 'I' for Inactive)
REMARK    1  A    between atoms: C_1  and  C_2
REMARK    2  A    between atoms: C_4  and  S_5
REMARK    3  A    between atoms: S_5  and  C_6
REMARK    4  A    between atoms: N_10  and  C_11
REMARK                            x       y       z     vdW  Elec       q    Type
REMARK                         _______ _______ _______ _____ _____    ______ ____
ROOT
ATOM      1  C   UNL     1       2.124   9.480  17.863  0.00  0.00    +0.000 C 
ATOM      2  C   UNL     1       2.598   8.100  18.203  0.00  0.00    +0.000 A 
ATOM      3  N   UNL     1       3.615   7.600  17.476  0.00  0.00    +0.000 NA
ATOM      4  C   UNL     1       4.056   6.354  17.754  0.00  0.00    +0.000 A 
ATOM      5  C   UNL     1       3.475   5.606  18.780  0.00  0.00    +0.000 A 
ATOM      6  C   UNL     1       3.676   4.317  19.344  0.00  0.00    +0.000 A 
ATOM      7  C   UNL     1       2.815   4.052  20.373  0.00  0.00    +0.000 A 
ATOM      8  S   UNL     1       1.752   5.295  20.715  0.00  0.00    +0.000 S 
ATOM      9  C   UNL     1       2.438   6.248  19.456  0.00  0.00    +0.000 A 
ATOM     10  N   UNL     1       1.965   7.480  19.207  0.00  0.00    +0.000 NA
ATOM     11  C   UNL     1       2.999   2.715  20.989  0.00  0.00    +0.000 C 
ATOM     12  C   UNL     1       3.895   2.026  19.916  0.00  0.00    +0.000 C 
ATOM     13  C   UNL     1       4.592   3.169  19.119  0.00  0.00    +0.000 C 
ENDROOT
BRANCH   4  14
ATOM     14  S   UNL     1       5.362   5.695  16.763  0.00  0.00    +0.000 S 
BRANCH  14  15
ATOM     15  C   UNL     1       6.605   6.753  17.314  0.00  0.00    +0.000 A 
ATOM     16  N   UNL     1       6.909   7.933  16.823  0.00  0.00    +0.000 NA
ATOM     17  N   UNL     1       7.949   8.398  17.592  0.00  0.00    +0.000 NA
ATOM     18  N   UNL     1       8.269   7.529  18.543  0.00  0.00    +0.000 NA
ATOM     19  N   UNL     1       7.424   6.495  18.371  0.00  0.00    +0.000 N 
ATOM     20  C   UNL     1       7.467   5.361  19.250  0.00  0.00    +0.000 C 
ENDBRANCH  14  15
ENDBRANCH   4  14
TORSDOF 2
ENDMDL
MODEL 2
REMARK VINA RESULT:      -7.0      2.144      4.327
REMARK  Name = 
REMARK  4 active torsions:
REMARK  status: ('A' for Active; 'I' for Inactive)
REMARK    1  A    between atoms: C_1  and  C_2
REMARK    2  A    between atoms: C_4  and  S_5
REMARK    3  A    between atoms: S_5  and  C_6
REMARK    4  A    between atoms: N_10  and  C_11
REMARK                            x       y       z     vdW  Elec       q    Type
REMARK                         _______ _______ _______ _____ _____    ______ ____
ROOT
ATOM      1  C   UNL     1       2.669   2.799  21.407  0.00  0.00    +0.000 C 
ATOM      2  C   UNL     1       2.597   4.093  20.655  0.00  0.00    +0.000 A 
ATOM      3  N   UNL     1       3.258   4.164  19.485  0.00  0.00    +0.000 NA
ATOM      4  C   UNL     1       3.219   5.322  18.790  0.00  0.00    +0.000 A 
ATOM      5  C   UNL     1       2.498   6.416  19.272  0.00  0.00    +0.000 A 
ATOM      6  C   UNL     1       2.231   7.739  18.827  0.00  0.00    +0.000 A 
ATOM      7  C   UNL     1       1.436   8.437  19.696  0.00  0.00    +0.000 A 
ATOM      8  S   UNL     1       0.976   7.573  21.049  0.00  0.00    +0.000 S 
ATOM      9  C   UNL     1       1.855   6.202  20.491  0.00  0.00    +0.000 A 
ATOM     10  N   UNL     1       1.875   5.071  21.216  0.00  0.00    +0.000 NA
ATOM     11  C   UNL     1       1.133   9.822  19.260  0.00  0.00    +0.000 C 
ATOM     12  C   UNL     1       2.189  10.006  18.129  0.00  0.00    +0.000 C 
ATOM     13  C   UNL     1       2.579   8.575  17.649  0.00  0.00    +0.000 C 
ENDROOT
BRANCH   4  14
ATOM     14  S   UNL     1       4.128   5.414  17.278  0.00  0.00    +0.000 S 
BRANCH  14  15
ATOM     15  C   UNL     1       5.695   5.176  17.953  0.00  0.00    +0.000 A 
ATOM     16  N   UNL     1       6.066   5.425  19.189  0.00  0.00    +0.000 NA
ATOM     17  N   UNL     1       7.391   5.066  19.257  0.00  0.00    +0.000 NA
ATOM     18  N   UNL     1       7.822   4.593  18.094  0.00  0.00    +0.000 NA
ATOM     19  N   UNL     1       6.757   4.660  17.273  0.00  0.00    +0.000 N 
ATOM     20  C   UNL     1       6.849   4.203  15.915  0.00  0.00    +0.000 C 
ENDBRANCH  14  15
ENDBRANCH   4  14
TORSDOF 2
ENDMDL
MODEL 3
REMARK VINA RESULT:      -7.0      1.144      1.651
REMARK  Name = 
REMARK  4 active torsions:
REMARK  status: ('A' for Active; 'I' for Inactive)
REMARK    1  A    between atoms: C_1  and  C_2
REMARK    2  A    between atoms: C_4  and  S_5
REMARK    3  A    between atoms: S_5  and  C_6
REMARK    4  A    between atoms: N_10  and  C_11
REMARK                            x       y       z     vdW  Elec       q    Type
REMARK                         _______ _______ _______ _____ _____    ______ ____
ROOT
ATOM      1  C   UNL     1       2.366   9.382  18.102  0.00  0.00    +0.000 C 
ATOM      2  C   UNL     1       2.709   7.923  18.119  0.00  0.00    +0.000 A 
ATOM      3  N   UNL     1       3.771   7.531  17.390  0.00  0.00    +0.000 NA
ATOM      4  C   UNL     1       4.098   6.220  17.378  0.00  0.00    +0.000 A 
ATOM      5  C   UNL     1       3.355   5.296  18.116  0.00  0.00    +0.000 A 
ATOM      6  C   UNL     1       3.408   3.895  18.345  0.00  0.00    +0.000 A 
ATOM      7  C   UNL     1       2.417   3.460  19.183  0.00  0.00    +0.000 A 
ATOM      8  S   UNL     1       1.402   4.669  19.729  0.00  0.00    +0.000 S 
ATOM      9  C   UNL     1       2.289   5.840  18.831  0.00  0.00    +0.000 A 
ATOM     10  N   UNL     1       1.926   7.133  18.864  0.00  0.00    +0.000 NA
ATOM     11  C   UNL     1       2.444   2.001  19.448  0.00  0.00    +0.000 C 
ATOM     12  C   UNL     1       3.414   1.522  18.326  0.00  0.00    +0.000 C 
ATOM     13  C   UNL     1       4.270   2.761  17.922  0.00  0.00    +0.000 C 
ENDROOT
BRANCH   4  14
ATOM     14  S   UNL     1       5.466   5.714  16.383  0.00  0.00    +0.000 S 
BRANCH  14  15
ATOM     15  C   UNL     1       6.649   5.694  17.636  0.00  0.00    +0.000 A 
ATOM     16  N   UNL     1       6.986   4.668  18.383  0.00  0.00    +0.000 NA
ATOM     17  N   UNL     1       7.971   5.129  19.223  0.00  0.00    +0.000 NA
ATOM     18  N   UNL     1       8.243   6.407  18.989  0.00  0.00    +0.000 NA
ATOM     19  N   UNL     1       7.414   6.764  17.990  0.00  0.00    +0.000 N 
ATOM     20  C   UNL     1       7.445   8.095  17.453  0.00  0.00    +0.000 C 
ENDBRANCH  14  15
ENDBRANCH   4  14
TORSDOF 2
ENDMDL
MODEL 4
REMARK VINA RESULT:      -6.9      2.999      5.195
REMARK  Name = 
REMARK  4 active torsions:
REMARK  status: ('A' for Active; 'I' for Inactive)
REMARK    1  A    between atoms: C_1  and  C_2
REMARK    2  A    between atoms: C_4  and  S_5
REMARK    3  A    between atoms: S_5  and  C_6
REMARK    4  A    between atoms: N_10  and  C_11
REMARK                            x       y       z     vdW  Elec       q    Type
REMARK                         _______ _______ _______ _____ _____    ______ ____
ROOT
ATOM      1  C   UNL     1       1.652   8.046  20.094  0.00  0.00    +0.000 C 
ATOM      2  C   UNL     1       2.382   7.111  19.178  0.00  0.00    +0.000 A 
ATOM      3  N   UNL     1       1.921   5.850  19.090  0.00  0.00    +0.000 NA
ATOM      4  C   UNL     1       2.567   4.982  18.280  0.00  0.00    +0.000 A 
ATOM      5  C   UNL     1       3.681   5.391  17.544  0.00  0.00    +0.000 A 
ATOM      6  C   UNL     1       4.571   4.784  16.617  0.00  0.00    +0.000 A 
ATOM      7  C   UNL     1       5.530   5.648  16.164  0.00  0.00    +0.000 A 
ATOM      8  S   UNL     1       5.419   7.189  16.798  0.00  0.00    +0.000 S 
ATOM      9  C   UNL     1       4.044   6.725  17.725  0.00  0.00    +0.000 A 
ATOM     10  N   UNL     1       3.435   7.616  18.524  0.00  0.00    +0.000 NA
ATOM     11  C   UNL     1       6.476   5.049  15.190  0.00  0.00    +0.000 C 
ATOM     12  C   UNL     1       6.169   3.534  15.388  0.00  0.00    +0.000 C 
ATOM     13  C   UNL     1       4.735   3.446  15.992  0.00  0.00    +0.000 C 
ENDROOT
BRANCH   4  14
ATOM     14  S   UNL     1       1.978   3.318  18.207  0.00  0.00    +0.000 S 
BRANCH  14  15
ATOM     15  C   UNL     1       2.040   2.993  19.898  0.00  0.00    +0.000 A 
ATOM     16  N   UNL     1       1.040   3.049  20.748  0.00  0.00    +0.000 NA
ATOM     17  N   UNL     1       1.569   2.697  21.966  0.00  0.00    +0.000 NA
ATOM     18  N   UNL     1       2.863   2.417  21.866  0.00  0.00    +0.000 NA
ATOM     19  N   UNL     1       3.161   2.600  20.566  0.00  0.00    +0.000 N 
ATOM     20  C   UNL     1       4.490   2.363  20.078  0.00  0.00    +0.000 C 
ENDBRANCH  14  15
ENDBRANCH   4  14
TORSDOF 2
ENDMDL
MODEL 5
REMARK VINA RESULT:      -6.8      1.994      4.617
REMARK  Name = 
REMARK  4 active torsions:
REMARK  status: ('A' for Active; 'I' for Inactive)
REMARK    1  A    between atoms: C_1  and  C_2
REMARK    2  A    between atoms: C_4  and  S_5
REMARK    3  A    between atoms: S_5  and  C_6
REMARK    4  A    between atoms: N_10  and  C_11
REMARK                            x       y       z     vdW  Elec       q    Type
REMARK                         _______ _______ _______ _____ _____    ______ ____
ROOT
ATOM      1  C   UNL     1       7.829   6.092  18.999  0.00  0.00    +0.000 C 
ATOM      2  C   UNL     1       6.434   5.571  18.826  0.00  0.00    +0.000 A 
ATOM      3  N   UNL     1       5.542   6.383  18.228  0.00  0.00    +0.000 NA
ATOM      4  C   UNL     1       4.275   5.943  18.069  0.00  0.00    +0.000 A 
ATOM      5  C   UNL     1       3.904   4.670  18.505  0.00  0.00    +0.000 A 
ATOM      6  C   UNL     1       2.713   3.894  18.496  0.00  0.00    +0.000 A 
ATOM      7  C   UNL     1       2.883   2.661  19.065  0.00  0.00    +0.000 A 
ATOM      8  S   UNL     1       4.431   2.370  19.620  0.00  0.00    +0.000 S 
ATOM      9  C   UNL     1       4.928   3.933  19.099  0.00  0.00    +0.000 A 
ATOM     10  N   UNL     1       6.197   4.335  19.283  0.00  0.00    +0.000 NA
ATOM     11  C   UNL     1       1.660   1.822  19.069  0.00  0.00    +0.000 C 
ATOM     12  C   UNL     1       0.577   2.890  18.732  0.00  0.00    +0.000 C 
ATOM     13  C   UNL     1       1.316   4.063  18.018  0.00  0.00    +0.000 C 
ENDROOT
BRANCH   4  14
ATOM     14  S   UNL     1       3.104   7.036  17.323  0.00  0.00    +0.000 S 
BRANCH  14  15
ATOM     15  C   UNL     1       2.369   7.591  18.779  0.00  0.00    +0.000 A 
ATOM     16  N   UNL     1       2.360   6.976  19.940  0.00  0.00    +0.000 NA
ATOM     17  N   UNL     1       1.670   7.805  20.793  0.00  0.00    +0.000 NA
ATOM     18  N   UNL     1       1.276   8.911  20.173  0.00  0.00    +0.000 NA
ATOM     19  N   UNL     1       1.716   8.780  18.908  0.00  0.00    +0.000 N 
ATOM     20  C   UNL     1       1.486   9.816  17.941  0.00  0.00    +0.000 C 
ENDBRANCH  14  15
ENDBRANCH   4  14
TORSDOF 2
ENDMDL
MODEL 6
REMARK VINA RESULT:      -6.7      3.058      5.734
REMARK  Name = 
REMARK  4 active torsions:
REMARK  status: ('A' for Active; 'I' for Inactive)
REMARK    1  A    between atoms: C_1  and  C_2
REMARK    2  A    between atoms: C_4  and  S_5
REMARK    3  A    between atoms: S_5  and  C_6
REMARK    4  A    between atoms: N_10  and  C_11
REMARK                            x       y       z     vdW  Elec       q    Type
REMARK                         _______ _______ _______ _____ _____    ______ ____
ROOT
ATOM      1  C   UNL     1       4.905   5.904  16.418  0.00  0.00    +0.000 C 
ATOM      2  C   UNL     1       3.973   6.458  17.452  0.00  0.00    +0.000 A 
ATOM      3  N   UNL     1       3.705   5.682  18.519  0.00  0.00    +0.000 NA
ATOM      4  C   UNL     1       2.859   6.152  19.463  0.00  0.00    +0.000 A 
ATOM      5  C   UNL     1       2.286   7.419  19.337  0.00  0.00    +0.000 A 
ATOM      6  C   UNL     1       1.397   8.218  20.105  0.00  0.00    +0.000 A 
ATOM      7  C   UNL     1       1.142   9.430  19.524  0.00  0.00    +0.000 A 
ATOM      8  S   UNL     1       1.932   9.674  18.073  0.00  0.00    +0.000 S 
ATOM      9  C   UNL     1       2.657   8.117  18.188  0.00  0.00    +0.000 A 
ATOM     10  N   UNL     1       3.486   7.684  17.224  0.00  0.00    +0.000 NA
ATOM     11  C   UNL     1       0.220  10.294  20.301  0.00  0.00    +0.000 C 
ATOM     12  C   UNL     1      -0.363   9.258  21.309  0.00  0.00    +0.000 C 
ATOM     13  C   UNL     1       0.670   8.092  21.395  0.00  0.00    +0.000 C 
ENDROOT
BRANCH   4  14
ATOM     14  S   UNL     1       2.483   5.105  20.835  0.00  0.00    +0.000 S 
BRANCH  14  15
ATOM     15  C   UNL     1       2.011   3.719  19.927  0.00  0.00    +0.000 A 
ATOM     16  N   UNL     1       0.862   3.531  19.318  0.00  0.00    +0.000 NA
ATOM     17  N   UNL     1       0.957   2.296  18.721  0.00  0.00    +0.000 NA
ATOM     18  N   UNL     1       2.143   1.744  18.946  0.00  0.00    +0.000 NA
ATOM     19  N   UNL     1       2.808   2.637  19.702  0.00  0.00    +0.000 N 
ATOM     20  C   UNL     1       4.156   2.381  20.125  0.00  0.00    +0.000 C 
ENDBRANCH  14  15
ENDBRANCH   4  14
TORSDOF 2
ENDMDL
MODEL 7
REMARK VINA RESULT:      -6.7      1.969      2.321
REMARK  Name = 
REMARK  4 active torsions:
REMARK  status: ('A' for Active; 'I' for Inactive)
REMARK    1  A    between atoms: C_1  and  C_2
REMARK    2  A    between atoms: C_4  and  S_5
REMARK    3  A    between atoms: S_5  and  C_6
REMARK    4  A    between atoms: N_10  and  C_11
REMARK                            x       y       z     vdW  Elec       q    Type
REMARK                         _______ _______ _______ _____ _____    ______ ____
ROOT
ATOM      1  C   UNL     1       1.329   8.576  21.094  0.00  0.00    +0.000 C 
ATOM      2  C   UNL     1       1.808   7.326  20.422  0.00  0.00    +0.000 A 
ATOM      3  N   UNL     1       2.698   7.466  19.422  0.00  0.00    +0.000 NA
ATOM      4  C   UNL     1       3.140   6.356  18.791  0.00  0.00    +0.000 A 
ATOM      5  C   UNL     1       2.690   5.091  19.176  0.00  0.00    +0.000 A 
ATOM      6  C   UNL     1       2.933   3.753  18.767  0.00  0.00    +0.000 A 
ATOM      7  C   UNL     1       2.218   2.841  19.495  0.00  0.00    +0.000 A 
ATOM      8  S   UNL     1       1.249   3.516  20.676  0.00  0.00    +0.000 S 
ATOM      9  C   UNL     1       1.776   5.092  20.230  0.00  0.00    +0.000 A 
ATOM     10  N   UNL     1       1.307   6.171  20.878  0.00  0.00    +0.000 NA
ATOM     11  C   UNL     1       2.451   1.431  19.098  0.00  0.00    +0.000 C 
ATOM     12  C   UNL     1       3.167   1.633  17.729  0.00  0.00    +0.000 C 
ATOM     13  C   UNL     1       3.776   3.068  17.754  0.00  0.00    +0.000 C 
ENDROOT
BRANCH   4  14
ATOM     14  S   UNL     1       4.275   6.558  17.452  0.00  0.00    +0.000 S 
BRANCH  14  15
ATOM     15  C   UNL     1       5.647   5.861  18.225  0.00  0.00    +0.000 A 
ATOM     16  N   UNL     1       5.850   5.750  19.519  0.00  0.00    +0.000 NA
ATOM     17  N   UNL     1       7.065   5.120  19.650  0.00  0.00    +0.000 NA
ATOM     18  N   UNL     1       7.591   4.838  18.465  0.00  0.00    +0.000 NA
ATOM     19  N   UNL     1       6.701   5.301  17.568  0.00  0.00    +0.000 N 
ATOM     20  C   UNL     1       6.933   5.147  16.159  0.00  0.00    +0.000 C 
ENDBRANCH  14  15
ENDBRANCH   4  14
TORSDOF 2
ENDMDL
MODEL 8
REMARK VINA RESULT:      -6.6      1.862      2.164
REMARK  Name = 
REMARK  4 active torsions:
REMARK  status: ('A' for Active; 'I' for Inactive)
REMARK    1  A    between atoms: C_1  and  C_2
REMARK    2  A    between atoms: C_4  and  S_5
REMARK    3  A    between atoms: S_5  and  C_6
REMARK    4  A    between atoms: N_10  and  C_11
REMARK                            x       y       z     vdW  Elec       q    Type
REMARK                         _______ _______ _______ _____ _____    ______ ____
ROOT
ATOM      1  C   UNL     1       2.934   9.131  17.597  0.00  0.00    +0.000 C 
ATOM      2  C   UNL     1       2.895   7.712  18.075  0.00  0.00    +0.000 A 
ATOM      3  N   UNL     1       3.477   6.782  17.294  0.00  0.00    +0.000 NA
ATOM      4  C   UNL     1       3.448   5.492  17.695  0.00  0.00    +0.000 A 
ATOM      5  C   UNL     1       2.837   5.135  18.899  0.00  0.00    +0.000 A 
ATOM      6  C   UNL     1       2.631   3.929  19.620  0.00  0.00    +0.000 A 
ATOM      7  C   UNL     1       1.952   4.125  20.793  0.00  0.00    +0.000 A 
ATOM      8  S   UNL     1       1.541   5.716  21.088  0.00  0.00    +0.000 S 
ATOM      9  C   UNL     1       2.281   6.198  19.610  0.00  0.00    +0.000 A 
ATOM     10  N   UNL     1       2.282   7.490  19.244  0.00  0.00    +0.000 NA
ATOM     11  C   UNL     1       1.723   2.886  21.575  0.00  0.00    +0.000 C 
ATOM     12  C   UNL     1       2.055   1.804  20.504  0.00  0.00    +0.000 C 
ATOM     13  C   UNL     1       2.969   2.492  19.446  0.00  0.00    +0.000 C 
ENDROOT
BRANCH   4  14
ATOM     14  S   UNL     1       4.178   4.278  16.639  0.00  0.00    +0.000 S 
BRANCH  14  15
ATOM     15  C   UNL     1       5.788   4.413  17.236  0.00  0.00    +0.000 A 
ATOM     16  N   UNL     1       6.170   4.358  18.492  0.00  0.00    +0.000 NA
ATOM     17  N   UNL     1       7.537   4.500  18.471  0.00  0.00    +0.000 NA
ATOM     18  N   UNL     1       7.988   4.626  17.229  0.00  0.00    +0.000 NA
ATOM     19  N   UNL     1       6.891   4.570  16.451  0.00  0.00    +0.000 N 
ATOM     20  C   UNL     1       7.001   4.652  15.022  0.00  0.00    +0.000 C 
ENDBRANCH  14  15
ENDBRANCH   4  14
TORSDOF 2
ENDMDL
MODEL 9
REMARK VINA RESULT:      -6.6      1.709      4.194
REMARK  Name = 
REMARK  4 active torsions:
REMARK  status: ('A' for Active; 'I' for Inactive)
REMARK    1  A    between atoms: C_1  and  C_2
REMARK    2  A    between atoms: C_4  and  S_5
REMARK    3  A    between atoms: S_5  and  C_6
REMARK    4  A    between atoms: N_10  and  C_11
REMARK                            x       y       z     vdW  Elec       q    Type
REMARK                         _______ _______ _______ _____ _____    ______ ____
ROOT
ATOM      1  C   UNL     1       2.759   2.553  21.404  0.00  0.00    +0.000 C 
ATOM      2  C   UNL     1       2.719   3.834  20.629  0.00  0.00    +0.000 A 
ATOM      3  N   UNL     1       3.447   3.894  19.498  0.00  0.00    +0.000 NA
ATOM      4  C   UNL     1       3.438   5.041  18.784  0.00  0.00    +0.000 A 
ATOM      5  C   UNL     1       2.680   6.135  19.206  0.00  0.00    +0.000 A 
ATOM      6  C   UNL     1       2.428   7.448  18.726  0.00  0.00    +0.000 A 
ATOM      7  C   UNL     1       1.577   8.152  19.535  0.00  0.00    +0.000 A 
ATOM      8  S   UNL     1       1.047   7.304  20.872  0.00  0.00    +0.000 S 
ATOM      9  C   UNL     1       1.969   5.933  20.389  0.00  0.00    +0.000 A 
ATOM     10  N   UNL     1       1.957   4.814  21.131  0.00  0.00    +0.000 NA
ATOM     11  C   UNL     1       1.287   9.527  19.061  0.00  0.00    +0.000 C 
ATOM     12  C   UNL     1       2.406   9.704  17.991  0.00  0.00    +0.000 C 
ATOM     13  C   UNL     1       2.837   8.269  17.557  0.00  0.00    +0.000 C 
ENDROOT
BRANCH   4  14
ATOM     14  S   UNL     1       4.433   5.120  17.326  0.00  0.00    +0.000 S 
BRANCH  14  15
ATOM     15  C   UNL     1       5.953   5.319  18.113  0.00  0.00    +0.000 A 
ATOM     16  N   UNL     1       6.539   4.465  18.921  0.00  0.00    +0.000 NA
ATOM     17  N   UNL     1       7.727   5.053  19.283  0.00  0.00    +0.000 NA
ATOM     18  N   UNL     1       7.875   6.236  18.701  0.00  0.00    +0.000 NA
ATOM     19  N   UNL     1       6.761   6.405  17.963  0.00  0.00    +0.000 N 
ATOM     20  C   UNL     1       6.583   7.585  17.165  0.00  0.00    +0.000 C 
ENDBRANCH  14  15
ENDBRANCH   4  14
TORSDOF 2
ENDMDL
