MODEL 1
REMARK VINA RESULT:      -9.5      0.000      0.000
REMARK  Name = 
REMARK  6 active torsions:
REMARK  status: ('A' for Active; 'I' for Inactive)
REMARK    1  A    between atoms: C_2  and  C_4
REMARK    2  A    between atoms: N_10  and  C_11
REMARK    3  A    between atoms: C_15  and  C_16
REMARK    4  A    between atoms: C_16  and  N_17
REMARK    5  A    between atoms: C_18  and  C_20
REMARK    6  A    between atoms: C_23  and  C_24
REMARK                            x       y       z     vdW  Elec       q    Type
REMARK                         _______ _______ _______ _____ _____    ______ ____
ROOT
ATOM      1  C   UNL     1      -0.078  10.584  19.459  0.00  0.00    +0.000 A 
ATOM      2  C   UNL     1      -0.109  11.429  20.572  0.00  0.00    +0.000 A 
ATOM      3  C   UNL     1       0.471  11.038  21.782  0.00  0.00    +0.000 A 
ATOM      4  C   UNL     1       1.028   9.767  21.913  0.00  0.00    +0.000 A 
ATOM      5  C   UNL     1       1.009   8.875  20.836  0.00  0.00    +0.000 A 
ATOM      6  C   UNL     1       0.494   9.310  19.605  0.00  0.00    +0.000 A 
ENDROOT
BRANCH   1  13
ATOM      7  C   UNL     1      -5.327  12.145  18.558  0.00  0.00    +0.000 A 
ATOM      8  C   UNL     1      -5.157  12.732  19.825  0.00  0.00    +0.000 A 
ATOM      9  C   UNL     1      -3.893  12.846  20.372  0.00  0.00    +0.000 A 
ATOM     10  C   UNL     1      -2.812  12.341  19.665  0.00  0.00    +0.000 A 
ATOM     11  C   UNL     1      -2.980  11.633  18.445  0.00  0.00    +0.000 A 
ATOM     12  C   UNL     1      -1.940  10.985  17.747  0.00  0.00    +0.000 A 
ATOM     13  N   UNL     1      -0.609  10.928  18.195  0.00  0.00    +0.000 N 
ATOM     14  N   UNL     1      -2.127  10.390  16.555  0.00  0.00    +0.000 NA
ATOM     15  C   UNL     1      -3.367  10.400  16.074  0.00  0.00    +0.000 A 
ATOM     16  N   UNL     1      -4.432  10.957  16.659  0.00  0.00    +0.000 NA
ATOM     17  C   UNL     1      -4.254  11.563  17.856  0.00  0.00    +0.000 A 
ATOM     18  H   UNL     1      -0.096  10.436  17.464  0.00  0.00    +0.000 HD
BRANCH   7  20
ATOM     19  N   UNL     1      -6.854  12.683  16.731  0.00  0.00    +0.000 N 
ATOM     20  C   UNL     1      -6.707  12.208  18.002  0.00  0.00    +0.000 C 
ATOM     21  O   UNL     1      -7.684  11.901  18.676  0.00  0.00    +0.000 OA
ATOM     22  H   UNL     1      -7.777  12.661  16.321  0.00  0.00    +0.000 HD
ATOM     23  H   UNL     1      -6.047  12.748  16.118  0.00  0.00    +0.000 HD
ENDBRANCH   7  20
ENDBRANCH   1  13
BRANCH   5  24
ATOM     24  C   UNL     1       1.491   7.458  20.999  0.00  0.00    +0.000 C 
BRANCH  24  25
ATOM     25  N   UNL     1       2.326   7.030  19.908  0.00  0.00    +0.000 N 
ATOM     26  C   UNL     1       2.373   5.691  19.565  0.00  0.00    +0.000 C 
ATOM     27  O   UNL     1       1.747   4.817  20.144  0.00  0.00    +0.000 OA
ATOM     28  H   UNL     1       2.653   7.726  19.255  0.00  0.00    +0.000 HD
BRANCH  26  29
ATOM     29  C   UNL     1       3.227   5.357  18.392  0.00  0.00    +0.000 A 
ATOM     30  C   UNL     1       3.308   4.045  17.911  0.00  0.00    +0.000 A 
ATOM     31  C   UNL     1       4.123   3.748  16.817  0.00  0.00    +0.000 A 
ATOM     32  C   UNL     1       4.861   4.757  16.182  0.00  0.00    +0.000 A 
ATOM     33  C   UNL     1       4.754   6.076  16.652  0.00  0.00    +0.000 A 
ATOM     34  C   UNL     1       3.937   6.376  17.747  0.00  0.00    +0.000 A 
BRANCH  32  35
ATOM     35  C   UNL     1       5.754   4.434  15.006  0.00  0.00    +0.000 C 
ATOM     36  F   UNL     1       5.070   4.254  13.842  0.00  0.00    +0.000 F 
ATOM     37  F   UNL     1       6.665   5.414  14.755  0.00  0.00    +0.000 F 
ATOM     38  F   UNL     1       6.471   3.292  15.195  0.00  0.00    +0.000 F 
ENDBRANCH  32  35
ENDBRANCH  26  29
ENDBRANCH  24  25
ENDBRANCH   5  24
TORSDOF 6
ENDMDL
MODEL 2
REMARK VINA RESULT:      -9.4      2.639      3.373
REMARK  Name = 
REMARK  6 active torsions:
REMARK  status: ('A' for Active; 'I' for Inactive)
REMARK    1  A    between atoms: C_2  and  C_4
REMARK    2  A    between atoms: N_10  and  C_11
REMARK    3  A    between atoms: C_15  and  C_16
REMARK    4  A    between atoms: C_16  and  N_17
REMARK    5  A    between atoms: C_18  and  C_20
REMARK    6  A    between atoms: C_23  and  C_24
REMARK                            x       y       z     vdW  Elec       q    Type
REMARK                         _______ _______ _______ _____ _____    ______ ____
ROOT
ATOM      1  C   UNL     1      -0.669  12.297  18.658  0.00  0.00    +0.000 A 
ATOM      2  C   UNL     1       0.412  13.145  18.398  0.00  0.00    +0.000 A 
ATOM      3  C   UNL     1       1.722  12.659  18.411  0.00  0.00    +0.000 A 
ATOM      4  C   UNL     1       1.972  11.331  18.755  0.00  0.00    +0.000 A 
ATOM      5  C   UNL     1       0.915  10.479  19.090  0.00  0.00    +0.000 A 
ATOM      6  C   UNL     1      -0.401  10.961  18.994  0.00  0.00    +0.000 A 
ENDROOT
BRANCH   1  13
ATOM      7  C   UNL     1      -3.869  13.013  23.135  0.00  0.00    +0.000 A 
ATOM      8  C   UNL     1      -2.650  13.442  23.689  0.00  0.00    +0.000 A 
ATOM      9  C   UNL     1      -1.569  13.703  22.867  0.00  0.00    +0.000 A 
ATOM     10  C   UNL     1      -1.705  13.499  21.502  0.00  0.00    +0.000 A 
ATOM     11  C   UNL     1      -2.886  12.944  20.941  0.00  0.00    +0.000 A 
ATOM     12  C   UNL     1      -3.037  12.592  19.585  0.00  0.00    +0.000 A 
ATOM     13  N   UNL     1      -2.020  12.711  18.623  0.00  0.00    +0.000 N 
ATOM     14  N   UNL     1      -4.199  12.141  19.077  0.00  0.00    +0.000 NA
ATOM     15  C   UNL     1      -5.206  11.997  19.935  0.00  0.00    +0.000 A 
ATOM     16  N   UNL     1      -5.169  12.272  21.243  0.00  0.00    +0.000 NA
ATOM     17  C   UNL     1      -4.007  12.731  21.762  0.00  0.00    +0.000 A 
ATOM     18  H   UNL     1      -2.442  12.421  17.741  0.00  0.00    +0.000 HD
BRANCH   7  20
ATOM     19  N   UNL     1      -5.897  13.938  24.131  0.00  0.00    +0.000 N 
ATOM     20  C   UNL     1      -5.006  12.905  24.092  0.00  0.00    +0.000 C 
ATOM     21  O   UNL     1      -5.110  11.955  24.859  0.00  0.00    +0.000 OA
ATOM     22  H   UNL     1      -6.708  13.841  24.723  0.00  0.00    +0.000 HD
ATOM     23  H   UNL     1      -5.920  14.616  23.375  0.00  0.00    +0.000 HD
ENDBRANCH   7  20
ENDBRANCH   1  13
BRANCH   5  24
ATOM     24  C   UNL     1       1.177   9.081  19.585  0.00  0.00    +0.000 C 
BRANCH  24  25
ATOM     25  N   UNL     1       2.089   8.358  18.739  0.00  0.00    +0.000 N 
ATOM     26  C   UNL     1       2.431   7.056  19.055  0.00  0.00    +0.000 C 
ATOM     27  O   UNL     1       2.011   6.460  20.035  0.00  0.00    +0.000 OA
ATOM     28  H   UNL     1       2.257   8.708  17.808  0.00  0.00    +0.000 HD
BRANCH  26  29
ATOM     29  C   UNL     1       3.341   6.377  18.092  0.00  0.00    +0.000 A 
ATOM     30  C   UNL     1       3.383   4.981  18.003  0.00  0.00    +0.000 A 
ATOM     31  C   UNL     1       4.251   4.361  17.102  0.00  0.00    +0.000 A 
ATOM     32  C   UNL     1       5.082   5.126  16.271  0.00  0.00    +0.000 A 
ATOM     33  C   UNL     1       5.016   6.527  16.347  0.00  0.00    +0.000 A 
ATOM     34  C   UNL     1       4.146   7.150  17.247  0.00  0.00    +0.000 A 
BRANCH  32  35
ATOM     35  C   UNL     1       6.033   4.457  15.305  0.00  0.00    +0.000 C 
ATOM     36  F   UNL     1       7.322   4.878  15.437  0.00  0.00    +0.000 F 
ATOM     37  F   UNL     1       6.066   3.105  15.454  0.00  0.00    +0.000 F 
ATOM     38  F   UNL     1       5.699   4.685  14.005  0.00  0.00    +0.000 F 
ENDBRANCH  32  35
ENDBRANCH  26  29
ENDBRANCH  24  25
ENDBRANCH   5  24
TORSDOF 6
ENDMDL
MODEL 3
REMARK VINA RESULT:      -9.4      0.440      1.129
REMARK  Name = 
REMARK  6 active torsions:
REMARK  status: ('A' for Active; 'I' for Inactive)
REMARK    1  A    between atoms: C_2  and  C_4
REMARK    2  A    between atoms: N_10  and  C_11
REMARK    3  A    between atoms: C_15  and  C_16
REMARK    4  A    between atoms: C_16  and  N_17
REMARK    5  A    between atoms: C_18  and  C_20
REMARK    6  A    between atoms: C_23  and  C_24
REMARK                            x       y       z     vdW  Elec       q    Type
REMARK                         _______ _______ _______ _____ _____    ______ ____
ROOT
ATOM      1  C   UNL     1      -0.032  10.399  19.357  0.00  0.00    +0.000 A 
ATOM      2  C   UNL     1      -0.113  11.169  20.521  0.00  0.00    +0.000 A 
ATOM      3  C   UNL     1       0.472  10.729  21.711  0.00  0.00    +0.000 A 
ATOM      4  C   UNL     1       1.085   9.478  21.769  0.00  0.00    +0.000 A 
ATOM      5  C   UNL     1       1.118   8.657  20.638  0.00  0.00    +0.000 A 
ATOM      6  C   UNL     1       0.597   9.146  19.429  0.00  0.00    +0.000 A 
ENDROOT
BRANCH   1  13
ATOM      7  C   UNL     1      -5.246  12.126  18.560  0.00  0.00    +0.000 A 
ATOM      8  C   UNL     1      -5.049  12.665  19.844  0.00  0.00    +0.000 A 
ATOM      9  C   UNL     1      -3.777  12.729  20.382  0.00  0.00    +0.000 A 
ATOM     10  C   UNL     1      -2.716  12.220  19.648  0.00  0.00    +0.000 A 
ATOM     11  C   UNL     1      -2.914  11.557  18.407  0.00  0.00    +0.000 A 
ATOM     12  C   UNL     1      -1.898  10.906  17.678  0.00  0.00    +0.000 A 
ATOM     13  N   UNL     1      -0.565  10.800  18.111  0.00  0.00    +0.000 N 
ATOM     14  N   UNL     1      -2.111  10.356  16.469  0.00  0.00    +0.000 NA
ATOM     15  C   UNL     1      -3.355  10.415  16.001  0.00  0.00    +0.000 A 
ATOM     16  N   UNL     1      -4.399  10.979  16.614  0.00  0.00    +0.000 NA
ATOM     17  C   UNL     1      -4.195  11.540  17.828  0.00  0.00    +0.000 A 
ATOM     18  H   UNL     1      -0.072  10.319  17.358  0.00  0.00    +0.000 HD
BRANCH   7  20
ATOM     19  N   UNL     1      -6.772  12.736  16.756  0.00  0.00    +0.000 N 
ATOM     20  C   UNL     1      -6.629  12.243  18.020  0.00  0.00    +0.000 C 
ATOM     21  O   UNL     1      -7.608  11.964  18.702  0.00  0.00    +0.000 OA
ATOM     22  H   UNL     1      -7.699  12.751  16.356  0.00  0.00    +0.000 HD
ATOM     23  H   UNL     1      -5.970  12.779  16.135  0.00  0.00    +0.000 HD
ENDBRANCH   7  20
ENDBRANCH   1  13
BRANCH   5  24
ATOM     24  C   UNL     1       1.663   7.256  20.717  0.00  0.00    +0.000 C 
BRANCH  24  25
ATOM     25  N   UNL     1       2.410   6.887  19.544  0.00  0.00    +0.000 N 
ATOM     26  C   UNL     1       3.130   5.706  19.532  0.00  0.00    +0.000 C 
ATOM     27  O   UNL     1       3.189   4.936  20.478  0.00  0.00    +0.000 OA
ATOM     28  H   UNL     1       2.193   7.349  18.674  0.00  0.00    +0.000 HD
BRANCH  26  29
ATOM     29  C   UNL     1       3.829   5.390  18.256  0.00  0.00    +0.000 A 
ATOM     30  C   UNL     1       4.549   6.373  17.567  0.00  0.00    +0.000 A 
ATOM     31  C   UNL     1       5.187   6.061  16.365  0.00  0.00    +0.000 A 
ATOM     32  C   UNL     1       5.125   4.763  15.840  0.00  0.00    +0.000 A 
ATOM     33  C   UNL     1       4.424   3.774  16.551  0.00  0.00    +0.000 A 
ATOM     34  C   UNL     1       3.785   4.084  17.755  0.00  0.00    +0.000 A 
BRANCH  32  35
ATOM     35  C   UNL     1       5.805   4.427  14.532  0.00  0.00    +0.000 C 
ATOM     36  F   UNL     1       6.628   5.416  14.083  0.00  0.00    +0.000 F 
ATOM     37  F   UNL     1       6.575   3.309  14.613  0.00  0.00    +0.000 F 
ATOM     38  F   UNL     1       4.915   4.201  13.526  0.00  0.00    +0.000 F 
ENDBRANCH  32  35
ENDBRANCH  26  29
ENDBRANCH  24  25
ENDBRANCH   5  24
TORSDOF 6
ENDMDL
MODEL 4
REMARK VINA RESULT:      -9.1      2.631      3.418
REMARK  Name = 
REMARK  6 active torsions:
REMARK  status: ('A' for Active; 'I' for Inactive)
REMARK    1  A    between atoms: C_2  and  C_4
REMARK    2  A    between atoms: N_10  and  C_11
REMARK    3  A    between atoms: C_15  and  C_16
REMARK    4  A    between atoms: C_16  and  N_17
REMARK    5  A    between atoms: C_18  and  C_20
REMARK    6  A    between atoms: C_23  and  C_24
REMARK                            x       y       z     vdW  Elec       q    Type
REMARK                         _______ _______ _______ _____ _____    ______ ____
ROOT
ATOM      1  C   UNL     1      -0.605  12.188  18.622  0.00  0.00    +0.000 A 
ATOM      2  C   UNL     1       0.485  13.043  18.427  0.00  0.00    +0.000 A 
ATOM      3  C   UNL     1       1.792  12.552  18.455  0.00  0.00    +0.000 A 
ATOM      4  C   UNL     1       2.030  11.210  18.748  0.00  0.00    +0.000 A 
ATOM      5  C   UNL     1       0.962  10.347  19.018  0.00  0.00    +0.000 A 
ATOM      6  C   UNL     1      -0.349  10.838  18.908  0.00  0.00    +0.000 A 
ENDROOT
BRANCH   1  13
ATOM      7  C   UNL     1      -3.790  13.152  23.063  0.00  0.00    +0.000 A 
ATOM      8  C   UNL     1      -2.566  13.602  23.592  0.00  0.00    +0.000 A 
ATOM      9  C   UNL     1      -1.486  13.814  22.756  0.00  0.00    +0.000 A 
ATOM     10  C   UNL     1      -1.626  13.540  21.403  0.00  0.00    +0.000 A 
ATOM     11  C   UNL     1      -2.812  12.965  20.874  0.00  0.00    +0.000 A 
ATOM     12  C   UNL     1      -2.969  12.545  19.538  0.00  0.00    +0.000 A 
ATOM     13  N   UNL     1      -1.953  12.608  18.569  0.00  0.00    +0.000 N 
ATOM     14  N   UNL     1      -4.135  12.075  19.057  0.00  0.00    +0.000 NA
ATOM     15  C   UNL     1      -5.140  11.982  19.923  0.00  0.00    +0.000 A 
ATOM     16  N   UNL     1      -5.098  12.323  21.214  0.00  0.00    +0.000 NA
ATOM     17  C   UNL     1      -3.932  12.802  21.707  0.00  0.00    +0.000 A 
ATOM     18  H   UNL     1      -2.380  12.276  17.704  0.00  0.00    +0.000 HD
BRANCH   7  20
ATOM     19  N   UNL     1      -5.013  12.007  24.839  0.00  0.00    +0.000 N 
ATOM     20  C   UNL     1      -4.924  13.101  24.027  0.00  0.00    +0.000 C 
ATOM     21  O   UNL     1      -5.782  13.976  24.055  0.00  0.00    +0.000 OA
ATOM     22  H   UNL     1      -5.736  11.999  25.544  0.00  0.00    +0.000 HD
ATOM     23  H   UNL     1      -4.212  11.393  24.951  0.00  0.00    +0.000 HD
ENDBRANCH   7  20
ENDBRANCH   1  13
BRANCH   5  24
ATOM     24  C   UNL     1       1.207   8.929  19.459  0.00  0.00    +0.000 C 
BRANCH  24  25
ATOM     25  N   UNL     1       2.177   8.255  18.637  0.00  0.00    +0.000 N 
ATOM     26  C   UNL     1       2.575   6.970  18.960  0.00  0.00    +0.000 C 
ATOM     27  O   UNL     1       2.159   6.352  19.927  0.00  0.00    +0.000 OA
ATOM     28  H   UNL     1       2.352   8.616  17.712  0.00  0.00    +0.000 HD
BRANCH  26  29
ATOM     29  C   UNL     1       3.544   6.341  18.021  0.00  0.00    +0.000 A 
ATOM     30  C   UNL     1       4.414   7.124  17.253  0.00  0.00    +0.000 A 
ATOM     31  C   UNL     1       5.308   6.517  16.369  0.00  0.00    +0.000 A 
ATOM     32  C   UNL     1       5.352   5.121  16.245  0.00  0.00    +0.000 A 
ATOM     33  C   UNL     1       4.495   4.340  17.039  0.00  0.00    +0.000 A 
ATOM     34  C   UNL     1       3.600   4.946  17.926  0.00  0.00    +0.000 A 
BRANCH  32  35
ATOM     35  C   UNL     1       6.310   4.463  15.278  0.00  0.00    +0.000 C 
ATOM     36  F   UNL     1       6.440   5.141  14.103  0.00  0.00    +0.000 F 
ATOM     37  F   UNL     1       7.568   4.347  15.783  0.00  0.00    +0.000 F 
ATOM     38  F   UNL     1       5.921   3.203  14.938  0.00  0.00    +0.000 F 
ENDBRANCH  32  35
ENDBRANCH  26  29
ENDBRANCH  24  25
ENDBRANCH   5  24
TORSDOF 6
ENDMDL
MODEL 5
REMARK VINA RESULT:      -9.0      3.332      4.988
REMARK  Name = 
REMARK  6 active torsions:
REMARK  status: ('A' for Active; 'I' for Inactive)
REMARK    1  A    between atoms: C_2  and  C_4
REMARK    2  A    between atoms: N_10  and  C_11
REMARK    3  A    between atoms: C_15  and  C_16
REMARK    4  A    between atoms: C_16  and  N_17
REMARK    5  A    between atoms: C_18  and  C_20
REMARK    6  A    between atoms: C_23  and  C_24
REMARK                            x       y       z     vdW  Elec       q    Type
REMARK                         _______ _______ _______ _____ _____    ______ ____
ROOT
ATOM      1  C   UNL     1       2.221   6.786  19.664  0.00  0.00    +0.000 A 
ATOM      2  C   UNL     1       1.172   6.123  20.309  0.00  0.00    +0.000 A 
ATOM      3  C   UNL     1       1.341   4.827  20.803  0.00  0.00    +0.000 A 
ATOM      4  C   UNL     1       2.542   4.150  20.596  0.00  0.00    +0.000 A 
ATOM      5  C   UNL     1       3.584   4.763  19.892  0.00  0.00    +0.000 A 
ATOM      6  C   UNL     1       3.427   6.093  19.471  0.00  0.00    +0.000 A 
ENDROOT
BRANCH   1  13
ATOM      7  C   UNL     1      -0.761  10.831  22.017  0.00  0.00    +0.000 A 
ATOM      8  C   UNL     1      -0.364  10.166  23.191  0.00  0.00    +0.000 A 
ATOM      9  C   UNL     1       0.638   9.215  23.143  0.00  0.00    +0.000 A 
ATOM     10  C   UNL     1       1.210   8.909  21.916  0.00  0.00    +0.000 A 
ATOM     11  C   UNL     1       0.732   9.478  20.706  0.00  0.00    +0.000 A 
ATOM     12  C   UNL     1       1.181   9.112  19.420  0.00  0.00    +0.000 A 
ATOM     13  N   UNL     1       2.134   8.109  19.175  0.00  0.00    +0.000 N 
ATOM     14  N   UNL     1       0.759   9.730  18.301  0.00  0.00    +0.000 NA
ATOM     15  C   UNL     1      -0.151  10.688  18.459  0.00  0.00    +0.000 A 
ATOM     16  N   UNL     1      -0.667  11.097  19.622  0.00  0.00    +0.000 NA
ATOM     17  C   UNL     1      -0.245  10.487  20.753  0.00  0.00    +0.000 A 
ATOM     18  H   UNL     1       2.278   8.109  18.166  0.00  0.00    +0.000 HD
BRANCH   7  20
ATOM     19  N   UNL     1      -1.509  13.106  21.539  0.00  0.00    +0.000 N 
ATOM     20  C   UNL     1      -1.739  11.938  22.208  0.00  0.00    +0.000 C 
ATOM     21  O   UNL     1      -2.686  11.832  22.979  0.00  0.00    +0.000 OA
ATOM     22  H   UNL     1      -2.204  13.834  21.606  0.00  0.00    +0.000 HD
ATOM     23  H   UNL     1      -0.851  13.125  20.766  0.00  0.00    +0.000 HD
ENDBRANCH   7  20
ENDBRANCH   1  13
BRANCH   5  24
ATOM     24  C   UNL     1       4.837   4.002  19.550  0.00  0.00    +0.000 C 
BRANCH  24  25
ATOM     25  N   UNL     1       5.068   3.927  18.132  0.00  0.00    +0.000 N 
ATOM     26  C   UNL     1       6.124   4.623  17.571  0.00  0.00    +0.000 C 
ATOM     27  O   UNL     1       6.891   5.326  18.210  0.00  0.00    +0.000 OA
ATOM     28  H   UNL     1       4.632   3.178  17.616  0.00  0.00    +0.000 HD
BRANCH  26  29
ATOM     29  C   UNL     1       6.309   4.441  16.105  0.00  0.00    +0.000 A 
ATOM     30  C   UNL     1       7.369   5.059  15.431  0.00  0.00    +0.000 A 
ATOM     31  C   UNL     1       7.521   4.887  14.055  0.00  0.00    +0.000 A 
ATOM     32  C   UNL     1       6.623   4.087  13.332  0.00  0.00    +0.000 A 
ATOM     33  C   UNL     1       5.578   3.447  14.019  0.00  0.00    +0.000 A 
ATOM     34  C   UNL     1       5.425   3.617  15.399  0.00  0.00    +0.000 A 
BRANCH  32  35
ATOM     35  C   UNL     1       6.778   3.910  11.840  0.00  0.00    +0.000 C 
ATOM     36  F   UNL     1       7.508   2.811  11.499  0.00  0.00    +0.000 F 
ATOM     37  F   UNL     1       5.584   3.777  11.201  0.00  0.00    +0.000 F 
ATOM     38  F   UNL     1       7.404   4.967  11.252  0.00  0.00    +0.000 F 
ENDBRANCH  32  35
ENDBRANCH  26  29
ENDBRANCH  24  25
ENDBRANCH   5  24
TORSDOF 6
ENDMDL
MODEL 6
REMARK VINA RESULT:      -9.0      5.932     11.355
REMARK  Name = 
REMARK  6 active torsions:
REMARK  status: ('A' for Active; 'I' for Inactive)
REMARK    1  A    between atoms: C_2  and  C_4
REMARK    2  A    between atoms: N_10  and  C_11
REMARK    3  A    between atoms: C_15  and  C_16
REMARK    4  A    between atoms: C_16  and  N_17
REMARK    5  A    between atoms: C_18  and  C_20
REMARK    6  A    between atoms: C_23  and  C_24
REMARK                            x       y       z     vdW  Elec       q    Type
REMARK                         _______ _______ _______ _____ _____    ______ ____
ROOT
ATOM      1  C   UNL     1       1.882   8.241  18.912  0.00  0.00    +0.000 A 
ATOM      2  C   UNL     1       1.829   7.964  20.282  0.00  0.00    +0.000 A 
ATOM      3  C   UNL     1       0.988   8.693  21.126  0.00  0.00    +0.000 A 
ATOM      4  C   UNL     1       0.240   9.756  20.623  0.00  0.00    +0.000 A 
ATOM      5  C   UNL     1       0.329  10.100  19.270  0.00  0.00    +0.000 A 
ATOM      6  C   UNL     1       1.117   9.309  18.419  0.00  0.00    +0.000 A 
ENDROOT
BRANCH   1  13
ATOM      7  C   UNL     1       3.545   2.992  19.615  0.00  0.00    +0.000 A 
ATOM      8  C   UNL     1       2.281   2.886  20.223  0.00  0.00    +0.000 A 
ATOM      9  C   UNL     1       1.348   3.894  20.063  0.00  0.00    +0.000 A 
ATOM     10  C   UNL     1       1.697   5.016  19.326  0.00  0.00    +0.000 A 
ATOM     11  C   UNL     1       3.010   5.196  18.814  0.00  0.00    +0.000 A 
ATOM     12  C   UNL     1       3.463   6.367  18.173  0.00  0.00    +0.000 A 
ATOM     13  N   UNL     1       2.679   7.520  17.995  0.00  0.00    +0.000 N 
ATOM     14  N   UNL     1       4.692   6.470  17.633  0.00  0.00    +0.000 NA
ATOM     15  C   UNL     1       5.491   5.415  17.772  0.00  0.00    +0.000 A 
ATOM     16  N   UNL     1       5.179   4.268  18.382  0.00  0.00    +0.000 NA
ATOM     17  C   UNL     1       3.944   4.152  18.923  0.00  0.00    +0.000 A 
ATOM     18  H   UNL     1       3.264   8.168  17.468  0.00  0.00    +0.000 HD
BRANCH   7  20
ATOM     19  N   UNL     1       4.326   0.852  18.739  0.00  0.00    +0.000 N 
ATOM     20  C   UNL     1       4.414   1.788  19.728  0.00  0.00    +0.000 C 
ATOM     21  O   UNL     1       5.140   1.611  20.699  0.00  0.00    +0.000 OA
ATOM     22  H   UNL     1       4.962   0.069  18.770  0.00  0.00    +0.000 HD
ATOM     23  H   UNL     1       3.882   1.087  17.856  0.00  0.00    +0.000 HD
ENDBRANCH   7  20
ENDBRANCH   1  13
BRANCH   5  24
ATOM     24  C   UNL     1      -0.372  11.321  18.737  0.00  0.00    +0.000 C 
BRANCH  24  25
ATOM     25  N   UNL     1      -1.322  11.865  19.671  0.00  0.00    +0.000 N 
ATOM     26  C   UNL     1      -2.641  12.032  19.289  0.00  0.00    +0.000 C 
ATOM     27  O   UNL     1      -3.069  11.753  18.180  0.00  0.00    +0.000 OA
ATOM     28  H   UNL     1      -1.079  11.869  20.650  0.00  0.00    +0.000 HD
BRANCH  26  29
ATOM     29  C   UNL     1      -3.555  12.554  20.343  0.00  0.00    +0.000 A 
ATOM     30  C   UNL     1      -4.901  12.817  20.061  0.00  0.00    +0.000 A 
ATOM     31  C   UNL     1      -5.740  13.318  21.058  0.00  0.00    +0.000 A 
ATOM     32  C   UNL     1      -5.252  13.552  22.351  0.00  0.00    +0.000 A 
ATOM     33  C   UNL     1      -3.907  13.259  22.634  0.00  0.00    +0.000 A 
ATOM     34  C   UNL     1      -3.064  12.756  21.637  0.00  0.00    +0.000 A 
BRANCH  32  35
ATOM     35  C   UNL     1      -6.156  14.106  23.428  0.00  0.00    +0.000 C 
ATOM     36  F   UNL     1      -5.561  15.067  24.190  0.00  0.00    +0.000 F 
ATOM     37  F   UNL     1      -7.284  14.676  22.924  0.00  0.00    +0.000 F 
ATOM     38  F   UNL     1      -6.574  13.148  24.301  0.00  0.00    +0.000 F 
ENDBRANCH  32  35
ENDBRANCH  26  29
ENDBRANCH  24  25
ENDBRANCH   5  24
TORSDOF 6
ENDMDL
MODEL 7
REMARK VINA RESULT:      -9.0      5.952     11.295
REMARK  Name = 
REMARK  6 active torsions:
REMARK  status: ('A' for Active; 'I' for Inactive)
REMARK    1  A    between atoms: C_2  and  C_4
REMARK    2  A    between atoms: N_10  and  C_11
REMARK    3  A    between atoms: C_15  and  C_16
REMARK    4  A    between atoms: C_16  and  N_17
REMARK    5  A    between atoms: C_18  and  C_20
REMARK    6  A    between atoms: C_23  and  C_24
REMARK                            x       y       z     vdW  Elec       q    Type
REMARK                         _______ _______ _______ _____ _____    ______ ____
ROOT
ATOM      1  C   UNL     1       1.901   8.366  18.827  0.00  0.00    +0.000 A 
ATOM      2  C   UNL     1       1.917   8.132  20.205  0.00  0.00    +0.000 A 
ATOM      3  C   UNL     1       1.028   8.798  21.053  0.00  0.00    +0.000 A 
ATOM      4  C   UNL     1       0.158   9.759  20.541  0.00  0.00    +0.000 A 
ATOM      5  C   UNL     1       0.171  10.064  19.175  0.00  0.00    +0.000 A 
ATOM      6  C   UNL     1       1.013   9.330  18.325  0.00  0.00    +0.000 A 
ENDROOT
BRANCH   1  13
ATOM      7  C   UNL     1       3.335   3.014  19.156  0.00  0.00    +0.000 A 
ATOM      8  C   UNL     1       2.025   2.903  19.657  0.00  0.00    +0.000 A 
ATOM      9  C   UNL     1       1.140   3.956  19.523  0.00  0.00    +0.000 A 
ATOM     10  C   UNL     1       1.581   5.126  18.923  0.00  0.00    +0.000 A 
ATOM     11  C   UNL     1       2.934   5.301  18.528  0.00  0.00    +0.000 A 
ATOM     12  C   UNL     1       3.473   6.507  18.034  0.00  0.00    +0.000 A 
ATOM     13  N   UNL     1       2.742   7.700  17.907  0.00  0.00    +0.000 N 
ATOM     14  N   UNL     1       4.742   6.610  17.598  0.00  0.00    +0.000 NA
ATOM     15  C   UNL     1       5.494   5.516  17.695  0.00  0.00    +0.000 A 
ATOM     16  N   UNL     1       5.099   4.332  18.171  0.00  0.00    +0.000 NA
ATOM     17  C   UNL     1       3.823   4.216  18.607  0.00  0.00    +0.000 A 
ATOM     18  H   UNL     1       3.386   8.371  17.487  0.00  0.00    +0.000 HD
BRANCH   7  20
ATOM     19  N   UNL     1       5.184   1.741  20.114  0.00  0.00    +0.000 N 
ATOM     20  C   UNL     1       4.153   1.772  19.220  0.00  0.00    +0.000 C 
ATOM     21  O   UNL     1       3.951   0.831  18.461  0.00  0.00    +0.000 OA
ATOM     22  H   UNL     1       5.698   0.878  20.214  0.00  0.00    +0.000 HD
ATOM     23  H   UNL     1       5.226   2.426  20.862  0.00  0.00    +0.000 HD
ENDBRANCH   7  20
ENDBRANCH   1  13
BRANCH   5  24
ATOM     24  C   UNL     1      -0.670  11.186  18.627  0.00  0.00    +0.000 C 
BRANCH  24  25
ATOM     25  N   UNL     1      -1.863  11.410  19.400  0.00  0.00    +0.000 N 
ATOM     26  C   UNL     1      -1.958  12.532  20.204  0.00  0.00    +0.000 C 
ATOM     27  O   UNL     1      -1.073  13.366  20.316  0.00  0.00    +0.000 OA
ATOM     28  H   UNL     1      -2.697  10.901  19.151  0.00  0.00    +0.000 HD
BRANCH  26  29
ATOM     29  C   UNL     1      -3.250  12.701  20.924  0.00  0.00    +0.000 A 
ATOM     30  C   UNL     1      -4.468  12.674  20.234  0.00  0.00    +0.000 A 
ATOM     31  C   UNL     1      -5.669  12.845  20.924  0.00  0.00    +0.000 A 
ATOM     32  C   UNL     1      -5.673  13.036  22.313  0.00  0.00    +0.000 A 
ATOM     33  C   UNL     1      -4.449  13.034  23.004  0.00  0.00    +0.000 A 
ATOM     34  C   UNL     1      -3.245  12.861  22.314  0.00  0.00    +0.000 A 
BRANCH  32  35
ATOM     35  C   UNL     1      -6.971  13.235  23.060  0.00  0.00    +0.000 C 
ATOM     36  F   UNL     1      -6.833  13.977  24.194  0.00  0.00    +0.000 F 
ATOM     37  F   UNL     1      -7.915  13.869  22.313  0.00  0.00    +0.000 F 
ATOM     38  F   UNL     1      -7.531  12.057  23.455  0.00  0.00    +0.000 F 
ENDBRANCH  32  35
ENDBRANCH  26  29
ENDBRANCH  24  25
ENDBRANCH   5  24
TORSDOF 6
ENDMDL
MODEL 8
REMARK VINA RESULT:      -8.9      5.735     11.200
REMARK  Name = 
REMARK  6 active torsions:
REMARK  status: ('A' for Active; 'I' for Inactive)
REMARK    1  A    between atoms: C_2  and  C_4
REMARK    2  A    between atoms: N_10  and  C_11
REMARK    3  A    between atoms: C_15  and  C_16
REMARK    4  A    between atoms: C_16  and  N_17
REMARK    5  A    between atoms: C_18  and  C_20
REMARK    6  A    between atoms: C_23  and  C_24
REMARK                            x       y       z     vdW  Elec       q    Type
REMARK                         _______ _______ _______ _____ _____    ______ ____
ROOT
ATOM      1  C   UNL     1       2.047   8.138  18.715  0.00  0.00    +0.000 A 
ATOM      2  C   UNL     1       1.878   7.854  20.074  0.00  0.00    +0.000 A 
ATOM      3  C   UNL     1       0.995   8.603  20.856  0.00  0.00    +0.000 A 
ATOM      4  C   UNL     1       0.323   9.693  20.304  0.00  0.00    +0.000 A 
ATOM      5  C   UNL     1       0.528  10.043  18.966  0.00  0.00    +0.000 A 
ATOM      6  C   UNL     1       1.356   9.233  18.172  0.00  0.00    +0.000 A 
ENDROOT
BRANCH   1  13
ATOM      7  C   UNL     1       3.599   2.879  19.572  0.00  0.00    +0.000 A 
ATOM      8  C   UNL     1       2.299   2.793  20.101  0.00  0.00    +0.000 A 
ATOM      9  C   UNL     1       1.390   3.810  19.872  0.00  0.00    +0.000 A 
ATOM     10  C   UNL     1       1.798   4.920  19.148  0.00  0.00    +0.000 A 
ATOM     11  C   UNL     1       3.142   5.080  18.718  0.00  0.00    +0.000 A 
ATOM     12  C   UNL     1       3.649   6.239  18.095  0.00  0.00    +0.000 A 
ATOM     13  N   UNL     1       2.891   7.398  17.856  0.00  0.00    +0.000 N 
ATOM     14  N   UNL     1       4.909   6.322  17.632  0.00  0.00    +0.000 NA
ATOM     15  C   UNL     1       5.686   5.260  17.831  0.00  0.00    +0.000 A 
ATOM     16  N   UNL     1       5.323   4.123  18.432  0.00  0.00    +0.000 NA
ATOM     17  C   UNL     1       4.055   4.027  18.896  0.00  0.00    +0.000 A 
ATOM     18  H   UNL     1       3.515   8.035  17.361  0.00  0.00    +0.000 HD
BRANCH   7  20
ATOM     19  N   UNL     1       4.378   0.703  18.787  0.00  0.00    +0.000 N 
ATOM     20  C   UNL     1       4.445   1.666  19.751  0.00  0.00    +0.000 C 
ATOM     21  O   UNL     1       5.133   1.507  20.753  0.00  0.00    +0.000 OA
ATOM     22  H   UNL     1       5.001  -0.088  18.864  0.00  0.00    +0.000 HD
ATOM     23  H   UNL     1       3.970   0.918  17.883  0.00  0.00    +0.000 HD
ENDBRANCH   7  20
ENDBRANCH   1  13
BRANCH   5  24
ATOM     24  C   UNL     1      -0.091  11.289  18.390  0.00  0.00    +0.000 C 
BRANCH  24  25
ATOM     25  N   UNL     1      -1.277  11.693  19.098  0.00  0.00    +0.000 N 
ATOM     26  C   UNL     1      -2.502  11.663  18.456  0.00  0.00    +0.000 C 
ATOM     27  O   UNL     1      -2.654  11.317  17.295  0.00  0.00    +0.000 OA
ATOM     28  H   UNL     1      -1.240  11.740  20.105  0.00  0.00    +0.000 HD
BRANCH  26  29
ATOM     29  C   UNL     1      -3.674  12.052  19.288  0.00  0.00    +0.000 A 
ATOM     30  C   UNL     1      -4.980  11.779  18.864  0.00  0.00    +0.000 A 
ATOM     31  C   UNL     1      -6.067  12.162  19.651  0.00  0.00    +0.000 A 
ATOM     32  C   UNL     1      -5.867  12.813  20.876  0.00  0.00    +0.000 A 
ATOM     33  C   UNL     1      -4.553  13.059  21.309  0.00  0.00    +0.000 A 
ATOM     34  C   UNL     1      -3.462  12.675  20.523  0.00  0.00    +0.000 A 
BRANCH  32  35
ATOM     35  C   UNL     1      -7.044  13.240  21.723  0.00  0.00    +0.000 C 
ATOM     36  F   UNL     1      -7.916  12.227  21.985  0.00  0.00    +0.000 F 
ATOM     37  F   UNL     1      -6.667  13.730  22.935  0.00  0.00    +0.000 F 
ATOM     38  F   UNL     1      -7.782  14.220  21.132  0.00  0.00    +0.000 F 
ENDBRANCH  32  35
ENDBRANCH  26  29
ENDBRANCH  24  25
ENDBRANCH   5  24
TORSDOF 6
ENDMDL
MODEL 9
REMARK VINA RESULT:      -8.9      3.342      4.905
REMARK  Name = 
REMARK  6 active torsions:
REMARK  status: ('A' for Active; 'I' for Inactive)
REMARK    1  A    between atoms: C_2  and  C_4
REMARK    2  A    between atoms: N_10  and  C_11
REMARK    3  A    between atoms: C_15  and  C_16
REMARK    4  A    between atoms: C_16  and  N_17
REMARK    5  A    between atoms: C_18  and  C_20
REMARK    6  A    between atoms: C_23  and  C_24
REMARK                            x       y       z     vdW  Elec       q    Type
REMARK                         _______ _______ _______ _____ _____    ______ ____
ROOT
ATOM      1  C   UNL     1       2.206   6.802  19.700  0.00  0.00    +0.000 A 
ATOM      2  C   UNL     1       1.133   6.168  20.333  0.00  0.00    +0.000 A 
ATOM      3  C   UNL     1       1.258   4.863  20.815  0.00  0.00    +0.000 A 
ATOM      4  C   UNL     1       2.438   4.149  20.607  0.00  0.00    +0.000 A 
ATOM      5  C   UNL     1       3.502   4.735  19.913  0.00  0.00    +0.000 A 
ATOM      6  C   UNL     1       3.390   6.074  19.505  0.00  0.00    +0.000 A 
ENDROOT
BRANCH   1  13
ATOM      7  C   UNL     1      -0.748  10.893  22.011  0.00  0.00    +0.000 A 
ATOM      8  C   UNL     1      -0.400  10.206  23.188  0.00  0.00    +0.000 A 
ATOM      9  C   UNL     1       0.581   9.232  23.158  0.00  0.00    +0.000 A 
ATOM     10  C   UNL     1       1.180   8.926  21.945  0.00  0.00    +0.000 A 
ATOM     11  C   UNL     1       0.751   9.518  20.728  0.00  0.00    +0.000 A 
ATOM     12  C   UNL     1       1.228   9.156  19.451  0.00  0.00    +0.000 A 
ATOM     13  N   UNL     1       2.164   8.132  19.223  0.00  0.00    +0.000 N 
ATOM     14  N   UNL     1       0.853   9.794  18.328  0.00  0.00    +0.000 NA
ATOM     15  C   UNL     1      -0.039  10.772  18.470  0.00  0.00    +0.000 A 
ATOM     16  N   UNL     1      -0.578  11.181  19.622  0.00  0.00    +0.000 NA
ATOM     17  C   UNL     1      -0.203  10.549  20.759  0.00  0.00    +0.000 A 
ATOM     18  H   UNL     1       2.337   8.140  18.218  0.00  0.00    +0.000 HD
BRANCH   7  20
ATOM     19  N   UNL     1      -2.748  12.104  21.309  0.00  0.00    +0.000 N 
ATOM     20  C   UNL     1      -1.705  12.020  22.186  0.00  0.00    +0.000 C 
ATOM     21  O   UNL     1      -1.536  12.877  23.046  0.00  0.00    +0.000 OA
ATOM     22  H   UNL     1      -3.440  12.822  21.464  0.00  0.00    +0.000 HD
ATOM     23  H   UNL     1      -2.993  11.303  20.735  0.00  0.00    +0.000 HD
ENDBRANCH   7  20
ENDBRANCH   1  13
BRANCH   5  24
ATOM     24  C   UNL     1       4.732   3.937  19.570  0.00  0.00    +0.000 C 
BRANCH  24  25
ATOM     25  N   UNL     1       4.960   3.857  18.152  0.00  0.00    +0.000 N 
ATOM     26  C   UNL     1       5.931   4.650  17.567  0.00  0.00    +0.000 C 
ATOM     27  O   UNL     1       6.622   5.445  18.184  0.00  0.00    +0.000 OA
ATOM     28  H   UNL     1       4.603   3.055  17.655  0.00  0.00    +0.000 HD
BRANCH  26  29
ATOM     29  C   UNL     1       6.124   4.458  16.104  0.00  0.00    +0.000 A 
ATOM     30  C   UNL     1       5.152   3.815  15.328  0.00  0.00    +0.000 A 
ATOM     31  C   UNL     1       5.356   3.632  13.959  0.00  0.00    +0.000 A 
ATOM     32  C   UNL     1       6.527   4.097  13.343  0.00  0.00    +0.000 A 
ATOM     33  C   UNL     1       7.486   4.766  14.123  0.00  0.00    +0.000 A 
ATOM     34  C   UNL     1       7.283   4.951  15.494  0.00  0.00    +0.000 A 
BRANCH  32  35
ATOM     35  C   UNL     1       6.755   3.889  11.864  0.00  0.00    +0.000 C 
ATOM     36  F   UNL     1       7.453   4.902  11.278  0.00  0.00    +0.000 F 
ATOM     37  F   UNL     1       7.453   2.752  11.596  0.00  0.00    +0.000 F 
ATOM     38  F   UNL     1       5.589   3.790  11.166  0.00  0.00    +0.000 F 
ENDBRANCH  32  35
ENDBRANCH  26  29
ENDBRANCH  24  25
ENDBRANCH   5  24
TORSDOF 6
ENDMDL
