MODEL 1
REMARK VINA RESULT:      -7.0      0.000      0.000
REMARK  Name = 
REMARK  6 active torsions:
REMARK  status: ('A' for Active; 'I' for Inactive)
REMARK    1  A    between atoms: C_5  and  O_6
REMARK    2  A    between atoms: O_6  and  C_7
REMARK    3  A    between atoms: C_7  and  C_8
REMARK    4  A    between atoms: C_8  and  C_9
REMARK    5  A    between atoms: C_9  and  O_10
REMARK    6  A    between atoms: O_10  and  C_11
REMARK                            x       y       z     vdW  Elec       q    Type
REMARK                         _______ _______ _______ _____ _____    ______ ____
ROOT
ATOM      1  C   UNL     1       4.556   2.573  19.646  0.00  0.00    +0.000 C 
ENDROOT
BRANCH   1   2
ATOM      2  C   UNL     1       3.288   2.392  20.470  0.00  0.00    +0.000 C 
BRANCH   2   3
ATOM      3  C   UNL     1       2.061   2.209  19.580  0.00  0.00    +0.000 C 
BRANCH   3   4
ATOM      4  O   UNL     1       1.169   3.300  19.822  0.00  0.00    +0.000 OA
BRANCH   4   9
ATOM      5  F   UNL     1       3.089   8.193  18.245  0.00  0.00    +0.000 F 
ATOM      6  C   UNL     1       2.626   7.006  18.655  0.00  0.00    +0.000 A 
ATOM      7  C   UNL     1       2.449   5.982  17.733  0.00  0.00    +0.000 A 
ATOM      8  C   UNL     1       1.959   4.748  18.164  0.00  0.00    +0.000 A 
ATOM      9  C   UNL     1       1.664   4.538  19.515  0.00  0.00    +0.000 A 
ATOM     10  C   UNL     1       1.836   5.581  20.430  0.00  0.00    +0.000 A 
ATOM     11  C   UNL     1       2.320   6.818  19.997  0.00  0.00    +0.000 A 
ENDBRANCH   4   9
ENDBRANCH   3   4
ENDBRANCH   2   3
ENDBRANCH   1   2
BRANCH   1  12
ATOM     12  O   UNL     1       5.034   3.912  19.798  0.00  0.00    +0.000 OA
BRANCH  12  13
ATOM     13  C   UNL     1       5.716   4.444  18.738  0.00  0.00    +0.000 A 
ATOM     14  C   UNL     1       6.680   5.466  18.820  0.00  0.00    +0.000 A 
ATOM     15  C   UNL     1       7.326   5.941  17.673  0.00  0.00    +0.000 A 
ATOM     16  C   UNL     1       6.985   5.377  16.466  0.00  0.00    +0.000 A 
ATOM     17  C   UNL     1       6.043   4.380  16.374  0.00  0.00    +0.000 A 
ATOM     18  C   UNL     1       5.392   3.893  17.488  0.00  0.00    +0.000 A 
ATOM     19  O   UNL     1       5.857   3.965  15.093  0.00  0.00    +0.000 OA
ATOM     20  C   UNL     1       6.769   4.833  14.389  0.00  0.00    +0.000 C 
ATOM     21  O   UNL     1       7.512   5.713  15.258  0.00  0.00    +0.000 OA
ENDBRANCH  12  13
ENDBRANCH   1  12
TORSDOF 6
ENDMDL
MODEL 2
REMARK VINA RESULT:      -6.8      2.687      6.455
REMARK  Name = 
REMARK  6 active torsions:
REMARK  status: ('A' for Active; 'I' for Inactive)
REMARK    1  A    between atoms: C_5  and  O_6
REMARK    2  A    between atoms: O_6  and  C_7
REMARK    3  A    between atoms: C_7  and  C_8
REMARK    4  A    between atoms: C_8  and  C_9
REMARK    5  A    between atoms: C_9  and  O_10
REMARK    6  A    between atoms: O_10  and  C_11
REMARK                            x       y       z     vdW  Elec       q    Type
REMARK                         _______ _______ _______ _____ _____    ______ ____
ROOT
ATOM      1  C   UNL     1       7.026   4.416  17.999  0.00  0.00    +0.000 C 
ENDROOT
BRANCH   1   2
ATOM      2  C   UNL     1       7.344   5.862  17.639  0.00  0.00    +0.000 C 
BRANCH   2   3
ATOM      3  C   UNL     1       6.709   6.262  16.310  0.00  0.00    +0.000 C 
BRANCH   3   4
ATOM      4  O   UNL     1       7.550   5.790  15.254  0.00  0.00    +0.000 OA
BRANCH   4   9
ATOM      5  F   UNL     1       5.372   2.631  11.330  0.00  0.00    +0.000 F 
ATOM      6  C   UNL     1       5.880   3.403  12.299  0.00  0.00    +0.000 A 
ATOM      7  C   UNL     1       7.112   4.015  12.114  0.00  0.00    +0.000 A 
ATOM      8  C   UNL     1       7.641   4.814  13.131  0.00  0.00    +0.000 A 
ATOM      9  C   UNL     1       6.928   5.008  14.318  0.00  0.00    +0.000 A 
ATOM     10  C   UNL     1       5.693   4.376  14.496  0.00  0.00    +0.000 A 
ATOM     11  C   UNL     1       5.168   3.572  13.480  0.00  0.00    +0.000 A 
ENDBRANCH   4   9
ENDBRANCH   3   4
ENDBRANCH   2   3
ENDBRANCH   1   2
BRANCH   1  12
ATOM     12  O   UNL     1       6.066   4.389  19.058  0.00  0.00    +0.000 OA
BRANCH  12  13
ATOM     13  C   UNL     1       4.804   3.975  18.732  0.00  0.00    +0.000 A 
ATOM     14  C   UNL     1       4.337   3.739  17.425  0.00  0.00    +0.000 A 
ATOM     15  C   UNL     1       3.025   3.312  17.195  0.00  0.00    +0.000 A 
ATOM     16  C   UNL     1       2.209   3.135  18.288  0.00  0.00    +0.000 A 
ATOM     17  C   UNL     1       2.653   3.365  19.567  0.00  0.00    +0.000 A 
ATOM     18  C   UNL     1       3.942   3.785  19.823  0.00  0.00    +0.000 A 
ATOM     19  O   UNL     1       1.689   3.131  20.498  0.00  0.00    +0.000 OA
ATOM     20  C   UNL     1       0.581   2.753  19.654  0.00  0.00    +0.000 C 
ATOM     21  O   UNL     1       0.912   2.725  18.249  0.00  0.00    +0.000 OA
ENDBRANCH  12  13
ENDBRANCH   1  12
TORSDOF 6
ENDMDL
MODEL 3
REMARK VINA RESULT:      -6.8      2.605      6.480
REMARK  Name = 
REMARK  6 active torsions:
REMARK  status: ('A' for Active; 'I' for Inactive)
REMARK    1  A    between atoms: C_5  and  O_6
REMARK    2  A    between atoms: O_6  and  C_7
REMARK    3  A    between atoms: C_7  and  C_8
REMARK    4  A    between atoms: C_8  and  C_9
REMARK    5  A    between atoms: C_9  and  O_10
REMARK    6  A    between atoms: O_10  and  C_11
REMARK                            x       y       z     vdW  Elec       q    Type
REMARK                         _______ _______ _______ _____ _____    ______ ____
ROOT
ATOM      1  C   UNL     1       5.847   6.781  17.862  0.00  0.00    +0.000 C 
ENDROOT
BRANCH   1   2
ATOM      2  C   UNL     1       7.253   6.294  17.534  0.00  0.00    +0.000 C 
BRANCH   2   3
ATOM      3  C   UNL     1       7.224   5.069  16.623  0.00  0.00    +0.000 C 
BRANCH   3   4
ATOM      4  O   UNL     1       7.498   5.501  15.287  0.00  0.00    +0.000 OA
BRANCH   4   9
ATOM      5  F   UNL     1       5.258   2.643  11.172  0.00  0.00    +0.000 F 
ATOM      6  C   UNL     1       5.781   3.342  12.187  0.00  0.00    +0.000 A 
ATOM      7  C   UNL     1       7.039   3.913  12.052  0.00  0.00    +0.000 A 
ATOM      8  C   UNL     1       7.583   4.635  13.117  0.00  0.00    +0.000 A 
ATOM      9  C   UNL     1       6.861   4.795  14.303  0.00  0.00    +0.000 A 
ATOM     10  C   UNL     1       5.599   4.205  14.430  0.00  0.00    +0.000 A 
ATOM     11  C   UNL     1       5.059   3.477  13.367  0.00  0.00    +0.000 A 
ENDBRANCH   4   9
ENDBRANCH   3   4
ENDBRANCH   2   3
ENDBRANCH   1   2
BRANCH   1  12
ATOM     12  O   UNL     1       4.892   6.004  17.135  0.00  0.00    +0.000 OA
BRANCH  12  13
ATOM     13  C   UNL     1       3.846   5.491  17.851  0.00  0.00    +0.000 A 
ATOM     14  C   UNL     1       3.212   6.127  18.936  0.00  0.00    +0.000 A 
ATOM     15  C   UNL     1       2.143   5.518  19.602  0.00  0.00    +0.000 A 
ATOM     16  C   UNL     1       1.736   4.280  19.163  0.00  0.00    +0.000 A 
ATOM     17  C   UNL     1       2.348   3.650  18.107  0.00  0.00    +0.000 A 
ATOM     18  C   UNL     1       3.403   4.227  17.431  0.00  0.00    +0.000 A 
ATOM     19  O   UNL     1       1.792   2.438  17.838  0.00  0.00    +0.000 OA
ATOM     20  C   UNL     1       0.779   2.369  18.862  0.00  0.00    +0.000 C 
ATOM     21  O   UNL     1       0.717   3.549  19.690  0.00  0.00    +0.000 OA
ENDBRANCH  12  13
ENDBRANCH   1  12
TORSDOF 6
ENDMDL
MODEL 4
REMARK VINA RESULT:      -6.7      2.297      6.249
REMARK  Name = 
REMARK  6 active torsions:
REMARK  status: ('A' for Active; 'I' for Inactive)
REMARK    1  A    between atoms: C_5  and  O_6
REMARK    2  A    between atoms: O_6  and  C_7
REMARK    3  A    between atoms: C_7  and  C_8
REMARK    4  A    between atoms: C_8  and  C_9
REMARK    5  A    between atoms: C_9  and  O_10
REMARK    6  A    between atoms: O_10  and  C_11
REMARK                            x       y       z     vdW  Elec       q    Type
REMARK                         _______ _______ _______ _____ _____    ______ ____
ROOT
ATOM      1  C   UNL     1       6.730   5.543  19.286  0.00  0.00    +0.000 C 
ENDROOT
BRANCH   1   2
ATOM      2  C   UNL     1       7.532   6.145  18.139  0.00  0.00    +0.000 C 
BRANCH   2   3
ATOM      3  C   UNL     1       6.708   6.218  16.856  0.00  0.00    +0.000 C 
BRANCH   3   4
ATOM      4  O   UNL     1       7.589   6.011  15.748  0.00  0.00    +0.000 OA
BRANCH   4   9
ATOM      5  F   UNL     1       5.313   2.780  11.940  0.00  0.00    +0.000 F 
ATOM      6  C   UNL     1       5.891   3.568  12.855  0.00  0.00    +0.000 A 
ATOM      7  C   UNL     1       5.310   3.705  14.109  0.00  0.00    +0.000 A 
ATOM      8  C   UNL     1       5.912   4.535  15.057  0.00  0.00    +0.000 A 
ATOM      9  C   UNL     1       7.099   5.209  14.754  0.00  0.00    +0.000 A 
ATOM     10  C   UNL     1       7.667   5.071  13.483  0.00  0.00    +0.000 A 
ATOM     11  C   UNL     1       7.060   4.247  12.532  0.00  0.00    +0.000 A 
ENDBRANCH   4   9
ENDBRANCH   3   4
ENDBRANCH   2   3
ENDBRANCH   1   2
BRANCH   1  12
ATOM     12  O   UNL     1       6.119   4.326  18.852  0.00  0.00    +0.000 OA
BRANCH  12  13
ATOM     13  C   UNL     1       4.752   4.280  18.884  0.00  0.00    +0.000 A 
ATOM     14  C   UNL     1       3.899   5.399  18.867  0.00  0.00    +0.000 A 
ATOM     15  C   UNL     1       2.509   5.246  18.900  0.00  0.00    +0.000 A 
ATOM     16  C   UNL     1       2.007   3.966  18.952  0.00  0.00    +0.000 A 
ATOM     17  C   UNL     1       2.830   2.867  18.971  0.00  0.00    +0.000 A 
ATOM     18  C   UNL     1       4.204   2.989  18.939  0.00  0.00    +0.000 A 
ATOM     19  O   UNL     1       2.132   1.701  19.023  0.00  0.00    +0.000 OA
ATOM     20  C   UNL     1       0.777   2.196  19.061  0.00  0.00    +0.000 C 
ATOM     21  O   UNL     1       0.688   3.634  18.986  0.00  0.00    +0.000 OA
ENDBRANCH  12  13
ENDBRANCH   1  12
TORSDOF 6
ENDMDL
MODEL 5
REMARK VINA RESULT:      -6.7      2.410      6.440
REMARK  Name = 
REMARK  6 active torsions:
REMARK  status: ('A' for Active; 'I' for Inactive)
REMARK    1  A    between atoms: C_5  and  O_6
REMARK    2  A    between atoms: O_6  and  C_7
REMARK    3  A    between atoms: C_7  and  C_8
REMARK    4  A    between atoms: C_8  and  C_9
REMARK    5  A    between atoms: C_9  and  O_10
REMARK    6  A    between atoms: O_10  and  C_11
REMARK                            x       y       z     vdW  Elec       q    Type
REMARK                         _______ _______ _______ _____ _____    ______ ____
ROOT
ATOM      1  C   UNL     1       6.985   5.729  19.082  0.00  0.00    +0.000 C 
ENDROOT
BRANCH   1   2
ATOM      2  C   UNL     1       7.568   6.143  17.736  0.00  0.00    +0.000 C 
BRANCH   2   3
ATOM      3  C   UNL     1       7.474   5.013  16.713  0.00  0.00    +0.000 C 
BRANCH   3   4
ATOM      4  O   UNL     1       7.537   5.590  15.406  0.00  0.00    +0.000 OA
BRANCH   4   9
ATOM      5  F   UNL     1       5.197   2.795  11.303  0.00  0.00    +0.000 F 
ATOM      6  C   UNL     1       5.745   3.477  12.316  0.00  0.00    +0.000 A 
ATOM      7  C   UNL     1       6.972   4.104  12.139  0.00  0.00    +0.000 A 
ATOM      8  C   UNL     1       7.542   4.808  13.202  0.00  0.00    +0.000 A 
ATOM      9  C   UNL     1       6.877   4.895  14.429  0.00  0.00    +0.000 A 
ATOM     10  C   UNL     1       5.648   4.250  14.597  0.00  0.00    +0.000 A 
ATOM     11  C   UNL     1       5.081   3.540  13.535  0.00  0.00    +0.000 A 
ENDBRANCH   4   9
ENDBRANCH   3   4
ENDBRANCH   2   3
ENDBRANCH   1   2
BRANCH   1  12
ATOM     12  O   UNL     1       6.234   4.523  18.924  0.00  0.00    +0.000 OA
BRANCH  12  13
ATOM     13  C   UNL     1       4.903   4.585  19.232  0.00  0.00    +0.000 A 
ATOM     14  C   UNL     1       4.125   5.758  19.247  0.00  0.00    +0.000 A 
ATOM     15  C   UNL     1       2.765   5.715  19.573  0.00  0.00    +0.000 A 
ATOM     16  C   UNL     1       2.218   4.491  19.880  0.00  0.00    +0.000 A 
ATOM     17  C   UNL     1       2.969   3.341  19.871  0.00  0.00    +0.000 A 
ATOM     18  C   UNL     1       4.311   3.354  19.553  0.00  0.00    +0.000 A 
ATOM     19  O   UNL     1       2.236   2.245  20.203  0.00  0.00    +0.000 OA
ATOM     20  C   UNL     1       0.946   2.843  20.448  0.00  0.00    +0.000 C 
ATOM     21  O   UNL     1       0.919   4.267  20.216  0.00  0.00    +0.000 OA
ENDBRANCH  12  13
ENDBRANCH   1  12
TORSDOF 6
ENDMDL
MODEL 6
REMARK VINA RESULT:      -6.6      2.064      5.149
REMARK  Name = 
REMARK  6 active torsions:
REMARK  status: ('A' for Active; 'I' for Inactive)
REMARK    1  A    between atoms: C_5  and  O_6
REMARK    2  A    between atoms: O_6  and  C_7
REMARK    3  A    between atoms: C_7  and  C_8
REMARK    4  A    between atoms: C_8  and  C_9
REMARK    5  A    between atoms: C_9  and  O_10
REMARK    6  A    between atoms: O_10  and  C_11
REMARK                            x       y       z     vdW  Elec       q    Type
REMARK                         _______ _______ _______ _____ _____    ______ ____
ROOT
ATOM      1  C   UNL     1       4.813   4.584  16.166  0.00  0.00    +0.000 C 
ENDROOT
BRANCH   1   2
ATOM      2  C   UNL     1       5.438   5.693  17.003  0.00  0.00    +0.000 C 
BRANCH   2   3
ATOM      3  C   UNL     1       4.474   6.862  17.196  0.00  0.00    +0.000 C 
BRANCH   3   4
ATOM      4  O   UNL     1       3.495   6.477  18.164  0.00  0.00    +0.000 OA
BRANCH   4   9
ATOM      5  F   UNL     1       0.115  10.357  20.071  0.00  0.00    +0.000 F 
ATOM      6  C   UNL     1       0.934   9.418  19.581  0.00  0.00    +0.000 A 
ATOM      7  C   UNL     1       1.327   8.360  20.390  0.00  0.00    +0.000 A 
ATOM      8  C   UNL     1       2.188   7.388  19.876  0.00  0.00    +0.000 A 
ATOM      9  C   UNL     1       2.638   7.470  18.555  0.00  0.00    +0.000 A 
ATOM     10  C   UNL     1       2.243   8.547  17.756  0.00  0.00    +0.000 A 
ATOM     11  C   UNL     1       1.388   9.523  18.272  0.00  0.00    +0.000 A 
ENDBRANCH   4   9
ENDBRANCH   3   4
ENDBRANCH   2   3
ENDBRANCH   1   2
BRANCH   1  12
ATOM     12  O   UNL     1       4.734   3.388  16.945  0.00  0.00    +0.000 OA
BRANCH  12  13
ATOM     13  C   UNL     1       3.686   3.293  17.819  0.00  0.00    +0.000 A 
ATOM     14  C   UNL     1       2.330   3.476  17.487  0.00  0.00    +0.000 A 
ATOM     15  C   UNL     1       1.329   3.353  18.457  0.00  0.00    +0.000 A 
ATOM     16  C   UNL     1       1.715   3.050  19.742  0.00  0.00    +0.000 A 
ATOM     17  C   UNL     1       3.036   2.871  20.077  0.00  0.00    +0.000 A 
ATOM     18  C   UNL     1       4.043   2.986  19.141  0.00  0.00    +0.000 A 
ATOM     19  O   UNL     1       3.197   2.580  21.395  0.00  0.00    +0.000 OA
ATOM     20  C   UNL     1       1.830   2.623  21.854  0.00  0.00    +0.000 C 
ATOM     21  O   UNL     1       0.879   2.892  20.803  0.00  0.00    +0.000 OA
ENDBRANCH  12  13
ENDBRANCH   1  12
TORSDOF 6
ENDMDL
MODEL 7
REMARK VINA RESULT:      -6.6      1.598      2.423
REMARK  Name = 
REMARK  6 active torsions:
REMARK  status: ('A' for Active; 'I' for Inactive)
REMARK    1  A    between atoms: C_5  and  O_6
REMARK    2  A    between atoms: O_6  and  C_7
REMARK    3  A    between atoms: C_7  and  C_8
REMARK    4  A    between atoms: C_8  and  C_9
REMARK    5  A    between atoms: C_9  and  O_10
REMARK    6  A    between atoms: O_10  and  C_11
REMARK                            x       y       z     vdW  Elec       q    Type
REMARK                         _______ _______ _______ _____ _____    ______ ____
ROOT
ATOM      1  C   UNL     1       3.505   2.696  18.777  0.00  0.00    +0.000 C 
ENDROOT
BRANCH   1   2
ATOM      2  C   UNL     1       1.982   2.745  18.811  0.00  0.00    +0.000 C 
BRANCH   2   3
ATOM      3  C   UNL     1       1.477   3.975  19.561  0.00  0.00    +0.000 C 
BRANCH   3   4
ATOM      4  O   UNL     1       2.584   4.855  19.771  0.00  0.00    +0.000 OA
BRANCH   4   9
ATOM      5  F   UNL     1       1.564  10.112  18.569  0.00  0.00    +0.000 F 
ATOM      6  C   UNL     1       1.812   8.836  18.888  0.00  0.00    +0.000 A 
ATOM      7  C   UNL     1       2.341   7.979  17.931  0.00  0.00    +0.000 A 
ATOM      8  C   UNL     1       2.589   6.646  18.267  0.00  0.00    +0.000 A 
ATOM      9  C   UNL     1       2.324   6.182  19.559  0.00  0.00    +0.000 A 
ATOM     10  C   UNL     1       1.780   7.053  20.509  0.00  0.00    +0.000 A 
ATOM     11  C   UNL     1       1.525   8.384  20.170  0.00  0.00    +0.000 A 
ENDBRANCH   4   9
ENDBRANCH   3   4
ENDBRANCH   2   3
ENDBRANCH   1   2
BRANCH   1  12
ATOM     12  O   UNL     1       3.955   2.854  17.429  0.00  0.00    +0.000 OA
BRANCH  12  13
ATOM     13  C   UNL     1       4.774   3.920  17.177  0.00  0.00    +0.000 A 
ATOM     14  C   UNL     1       4.868   4.601  15.948  0.00  0.00    +0.000 A 
ATOM     15  C   UNL     1       5.737   5.686  15.792  0.00  0.00    +0.000 A 
ATOM     16  C   UNL     1       6.494   6.062  16.876  0.00  0.00    +0.000 A 
ATOM     17  C   UNL     1       6.412   5.403  18.079  0.00  0.00    +0.000 A 
ATOM     18  C   UNL     1       5.563   4.331  18.262  0.00  0.00    +0.000 A 
ATOM     19  O   UNL     1       7.243   5.934  19.015  0.00  0.00    +0.000 OA
ATOM     20  C   UNL     1       7.877   6.984  18.254  0.00  0.00    +0.000 C 
ATOM     21  O   UNL     1       7.384   7.091  16.902  0.00  0.00    +0.000 OA
ENDBRANCH  12  13
ENDBRANCH   1  12
TORSDOF 6
ENDMDL
MODEL 8
REMARK VINA RESULT:      -6.6      1.646      2.443
REMARK  Name = 
REMARK  6 active torsions:
REMARK  status: ('A' for Active; 'I' for Inactive)
REMARK    1  A    between atoms: C_5  and  O_6
REMARK    2  A    between atoms: O_6  and  C_7
REMARK    3  A    between atoms: C_7  and  C_8
REMARK    4  A    between atoms: C_8  and  C_9
REMARK    5  A    between atoms: C_9  and  O_10
REMARK    6  A    between atoms: O_10  and  C_11
REMARK                            x       y       z     vdW  Elec       q    Type
REMARK                         _______ _______ _______ _____ _____    ______ ____
ROOT
ATOM      1  C   UNL     1       2.732   3.226  18.204  0.00  0.00    +0.000 C 
ENDROOT
BRANCH   1   2
ATOM      2  C   UNL     1       1.862   4.419  18.578  0.00  0.00    +0.000 C 
BRANCH   2   3
ATOM      3  C   UNL     1       2.184   4.931  19.980  0.00  0.00    +0.000 C 
BRANCH   3   4
ATOM      4  O   UNL     1       3.021   6.083  19.853  0.00  0.00    +0.000 OA
BRANCH   4   9
ATOM      5  F   UNL     1       0.440  10.741  18.527  0.00  0.00    +0.000 F 
ATOM      6  C   UNL     1       1.072   9.599  18.825  0.00  0.00    +0.000 A 
ATOM      7  C   UNL     1       1.009   9.096  20.118  0.00  0.00    +0.000 A 
ATOM      8  C   UNL     1       1.676   7.908  20.425  0.00  0.00    +0.000 A 
ATOM      9  C   UNL     1       2.388   7.222  19.436  0.00  0.00    +0.000 A 
ATOM     10  C   UNL     1       2.453   7.746  18.141  0.00  0.00    +0.000 A 
ATOM     11  C   UNL     1       1.791   8.938  17.836  0.00  0.00    +0.000 A 
ENDBRANCH   4   9
ENDBRANCH   3   4
ENDBRANCH   2   3
ENDBRANCH   1   2
BRANCH   1  12
ATOM     12  O   UNL     1       4.031   3.386  18.779  0.00  0.00    +0.000 OA
BRANCH  12  13
ATOM     13  C   UNL     1       4.994   3.934  17.977  0.00  0.00    +0.000 A 
ATOM     14  C   UNL     1       6.081   4.709  18.423  0.00  0.00    +0.000 A 
ATOM     15  C   UNL     1       7.017   5.223  17.520  0.00  0.00    +0.000 A 
ATOM     16  C   UNL     1       6.838   4.947  16.185  0.00  0.00    +0.000 A 
ATOM     17  C   UNL     1       5.780   4.194  15.738  0.00  0.00    +0.000 A 
ATOM     18  C   UNL     1       4.842   3.674  16.606  0.00  0.00    +0.000 A 
ATOM     19  O   UNL     1       5.790   4.042  14.386  0.00  0.00    +0.000 OA
ATOM     20  C   UNL     1       6.960   4.809  14.034  0.00  0.00    +0.000 C 
ATOM     21  O   UNL     1       7.649   5.363  15.174  0.00  0.00    +0.000 OA
ENDBRANCH  12  13
ENDBRANCH   1  12
TORSDOF 6
ENDMDL
MODEL 9
REMARK VINA RESULT:      -6.6      3.050      6.062
REMARK  Name = 
REMARK  6 active torsions:
REMARK  status: ('A' for Active; 'I' for Inactive)
REMARK    1  A    between atoms: C_5  and  O_6
REMARK    2  A    between atoms: O_6  and  C_7
REMARK    3  A    between atoms: C_7  and  C_8
REMARK    4  A    between atoms: C_8  and  C_9
REMARK    5  A    between atoms: C_9  and  O_10
REMARK    6  A    between atoms: O_10  and  C_11
REMARK                            x       y       z     vdW  Elec       q    Type
REMARK                         _______ _______ _______ _____ _____    ______ ____
ROOT
ATOM      1  C   UNL     1       4.507   6.344  17.547  0.00  0.00    +0.000 C 
ENDROOT
BRANCH   1   2
ATOM      2  C   UNL     1       5.643   5.902  18.460  0.00  0.00    +0.000 C 
BRANCH   2   3
ATOM      3  C   UNL     1       6.016   4.440  18.224  0.00  0.00    +0.000 C 
BRANCH   3   4
ATOM      4  O   UNL     1       5.446   3.659  19.279  0.00  0.00    +0.000 OA
BRANCH   4   9
ATOM      5  F   UNL     1       0.262   1.974  18.643  0.00  0.00    +0.000 F 
ATOM      6  C   UNL     1       1.534   2.372  18.776  0.00  0.00    +0.000 A 
ATOM      7  C   UNL     1       1.971   2.878  19.993  0.00  0.00    +0.000 A 
ATOM      8  C   UNL     1       3.296   3.299  20.125  0.00  0.00    +0.000 A 
ATOM      9  C   UNL     1       4.180   3.197  19.046  0.00  0.00    +0.000 A 
ATOM     10  C   UNL     1       3.723   2.696  17.823  0.00  0.00    +0.000 A 
ATOM     11  C   UNL     1       2.395   2.282  17.690  0.00  0.00    +0.000 A 
ENDBRANCH   4   9
ENDBRANCH   3   4
ENDBRANCH   2   3
ENDBRANCH   1   2
BRANCH   1  12
ATOM     12  O   UNL     1       3.258   6.149  18.213  0.00  0.00    +0.000 OA
BRANCH  12  13
ATOM     13  C   UNL     1       2.582   7.276  18.593  0.00  0.00    +0.000 A 
ATOM     14  C   UNL     1       2.338   8.394  17.772  0.00  0.00    +0.000 A 
ATOM     15  C   UNL     1       1.631   9.500  18.256  0.00  0.00    +0.000 A 
ATOM     16  C   UNL     1       1.187   9.458  19.556  0.00  0.00    +0.000 A 
ATOM     17  C   UNL     1       1.422   8.374  20.366  0.00  0.00    +0.000 A 
ATOM     18  C   UNL     1       2.115   7.269  19.916  0.00  0.00    +0.000 A 
ATOM     19  O   UNL     1       0.898   8.537  21.611  0.00  0.00    +0.000 OA
ATOM     20  C   UNL     1       0.332   9.860  21.498  0.00  0.00    +0.000 C 
ATOM     21  O   UNL     1       0.485  10.440  20.185  0.00  0.00    +0.000 OA
ENDBRANCH  12  13
ENDBRANCH   1  12
TORSDOF 6
ENDMDL
