MODEL 1
REMARK VINA RESULT:      -6.6      0.000      0.000
REMARK  Name = 
REMARK  6 active torsions:
REMARK  status: ('A' for Active; 'I' for Inactive)
REMARK    1  A    between atoms: C_1  and  C_2
REMARK    2  A    between atoms: C_2  and  N_3
REMARK    3  A    between atoms: N_3  and  C_4
REMARK    4  A    between atoms: N_7  and  C_8
REMARK    5  A    between atoms: C_12  and  O_13
REMARK    6  A    between atoms: O_13  and  C_14
REMARK                            x       y       z     vdW  Elec       q    Type
REMARK                         _______ _______ _______ _____ _____    ______ ____
ROOT
ATOM      1  C   UNL     1       4.562   4.823  17.738  0.00  0.00    +0.000 A 
ATOM      2  C   UNL     1       5.830   4.249  17.700  0.00  0.00    +0.000 A 
ATOM      3  C   UNL     1       6.948   5.023  17.386  0.00  0.00    +0.000 A 
ATOM      4  F   UNL     1       8.138   4.406  17.382  0.00  0.00    +0.000 F 
ATOM      5  C   UNL     1       6.829   6.383  17.088  0.00  0.00    +0.000 A 
ATOM      6  C   UNL     1       5.554   6.952  17.080  0.00  0.00    +0.000 A 
ATOM      7  C   UNL     1       4.438   6.174  17.394  0.00  0.00    +0.000 A 
ATOM      8  F   UNL     1       3.225   6.750  17.395  0.00  0.00    +0.000 F 
ENDROOT
BRANCH   1  13
ATOM      9  N   UNL     1       1.666   3.364  19.499  0.00  0.00    +0.000 N 
ATOM     10  C   UNL     1       1.214   2.379  18.529  0.00  0.00    +0.000 C 
ATOM     11  C   UNL     1       2.799   4.157  19.356  0.00  0.00    +0.000 C 
ATOM     12  O   UNL     1       3.201   4.856  20.286  0.00  0.00    +0.000 OA
ATOM     13  N   UNL     1       3.393   4.114  18.114  0.00  0.00    +0.000 N 
ATOM     14  H   UNL     1       2.834   3.773  17.345  0.00  0.00    +0.000 HD
BRANCH   9  16
ATOM     15  C   UNL     1       1.469   2.490  21.815  0.00  0.00    +0.000 C 
ATOM     16  C   UNL     1       0.939   3.454  20.764  0.00  0.00    +0.000 C 
ENDBRANCH   9  16
ENDBRANCH   1  13
BRANCH   5  17
ATOM     17  O   UNL     1       7.845   7.251  16.794  0.00  0.00    +0.000 OA
ATOM     18  C   UNL     1       8.003   8.371  17.661  0.00  0.00    +0.000 C 
ENDBRANCH   5  17
TORSDOF 3
ENDMDL
MODEL 2
REMARK VINA RESULT:      -6.5      1.999      2.448
REMARK  Name = 
REMARK  6 active torsions:
REMARK  status: ('A' for Active; 'I' for Inactive)
REMARK    1  A    between atoms: C_1  and  C_2
REMARK    2  A    between atoms: C_2  and  N_3
REMARK    3  A    between atoms: N_3  and  C_4
REMARK    4  A    between atoms: N_7  and  C_8
REMARK    5  A    between atoms: C_12  and  O_13
REMARK    6  A    between atoms: O_13  and  C_14
REMARK                            x       y       z     vdW  Elec       q    Type
REMARK                         _______ _______ _______ _____ _____    ______ ____
ROOT
ATOM      1  C   UNL     1       4.948   5.136  17.810  0.00  0.00    +0.000 A 
ATOM      2  C   UNL     1       6.036   5.992  17.959  0.00  0.00    +0.000 A 
ATOM      3  C   UNL     1       6.958   6.150  16.923  0.00  0.00    +0.000 A 
ATOM      4  F   UNL     1       7.972   7.001  17.130  0.00  0.00    +0.000 F 
ATOM      5  C   UNL     1       6.828   5.448  15.721  0.00  0.00    +0.000 A 
ATOM      6  C   UNL     1       5.764   4.554  15.586  0.00  0.00    +0.000 A 
ATOM      7  C   UNL     1       4.845   4.398  16.625  0.00  0.00    +0.000 A 
ATOM      8  F   UNL     1       3.821   3.545  16.463  0.00  0.00    +0.000 F 
ENDROOT
BRANCH   1  13
ATOM      9  N   UNL     1       2.756   3.973  20.541  0.00  0.00    +0.000 N 
ATOM     10  C   UNL     1       1.653   4.914  20.437  0.00  0.00    +0.000 C 
ATOM     11  C   UNL     1       3.842   3.923  19.674  0.00  0.00    +0.000 C 
ATOM     12  O   UNL     1       4.656   3.002  19.735  0.00  0.00    +0.000 OA
ATOM     13  N   UNL     1       3.938   4.977  18.793  0.00  0.00    +0.000 N 
ATOM     14  H   UNL     1       3.424   5.817  19.018  0.00  0.00    +0.000 HD
BRANCH   9  16
ATOM     15  C   UNL     1       1.239   2.464  21.802  0.00  0.00    +0.000 C 
ATOM     16  C   UNL     1       2.667   2.932  21.565  0.00  0.00    +0.000 C 
ENDBRANCH   9  16
ENDBRANCH   1  13
BRANCH   5  17
ATOM     17  O   UNL     1       7.644   5.536  14.626  0.00  0.00    +0.000 OA
ATOM     18  C   UNL     1       7.245   4.807  13.469  0.00  0.00    +0.000 C 
ENDBRANCH   5  17
TORSDOF 3
ENDMDL
MODEL 3
REMARK VINA RESULT:      -6.5      1.216      1.231
REMARK  Name = 
REMARK  6 active torsions:
REMARK  status: ('A' for Active; 'I' for Inactive)
REMARK    1  A    between atoms: C_1  and  C_2
REMARK    2  A    between atoms: C_2  and  N_3
REMARK    3  A    between atoms: N_3  and  C_4
REMARK    4  A    between atoms: N_7  and  C_8
REMARK    5  A    between atoms: C_12  and  O_13
REMARK    6  A    between atoms: O_13  and  C_14
REMARK                            x       y       z     vdW  Elec       q    Type
REMARK                         _______ _______ _______ _____ _____    ______ ____
ROOT
ATOM      1  C   UNL     1       5.385   5.046  18.166  0.00  0.00    +0.000 A 
ATOM      2  C   UNL     1       6.567   5.157  18.894  0.00  0.00    +0.000 A 
ATOM      3  C   UNL     1       7.493   6.156  18.590  0.00  0.00    +0.000 A 
ATOM      4  F   UNL     1       8.602   6.212  19.342  0.00  0.00    +0.000 F 
ATOM      5  C   UNL     1       7.273   7.058  17.546  0.00  0.00    +0.000 A 
ATOM      6  C   UNL     1       6.111   6.921  16.784  0.00  0.00    +0.000 A 
ATOM      7  C   UNL     1       5.187   5.920  17.090  0.00  0.00    +0.000 A 
ATOM      8  F   UNL     1       4.070   5.821  16.353  0.00  0.00    +0.000 F 
ENDROOT
BRANCH   1  13
ATOM      9  N   UNL     1       2.479   3.207  19.502  0.00  0.00    +0.000 N 
ATOM     10  C   UNL     1       2.690   1.889  18.926  0.00  0.00    +0.000 C 
ATOM     11  C   UNL     1       3.351   4.282  19.368  0.00  0.00    +0.000 C 
ATOM     12  O   UNL     1       3.179   5.317  20.010  0.00  0.00    +0.000 OA
ATOM     13  N   UNL     1       4.371   4.100  18.460  0.00  0.00    +0.000 N 
ATOM     14  H   UNL     1       4.254   3.370  17.773  0.00  0.00    +0.000 HD
BRANCH   9  16
ATOM     15  C   UNL     1       1.473   2.675  21.710  0.00  0.00    +0.000 C 
ATOM     16  C   UNL     1       1.320   3.389  20.376  0.00  0.00    +0.000 C 
ENDBRANCH   9  16
ENDBRANCH   1  13
BRANCH   5  17
ATOM     17  O   UNL     1       8.085   8.093  17.170  0.00  0.00    +0.000 OA
ATOM     18  C   UNL     1       8.211   9.176  18.087  0.00  0.00    +0.000 C 
ENDBRANCH   5  17
TORSDOF 3
ENDMDL
MODEL 4
REMARK VINA RESULT:      -6.3      1.534      1.955
REMARK  Name = 
REMARK  6 active torsions:
REMARK  status: ('A' for Active; 'I' for Inactive)
REMARK    1  A    between atoms: C_1  and  C_2
REMARK    2  A    between atoms: C_2  and  N_3
REMARK    3  A    between atoms: N_3  and  C_4
REMARK    4  A    between atoms: N_7  and  C_8
REMARK    5  A    between atoms: C_12  and  O_13
REMARK    6  A    between atoms: O_13  and  C_14
REMARK                            x       y       z     vdW  Elec       q    Type
REMARK                         _______ _______ _______ _____ _____    ______ ____
ROOT
ATOM      1  C   UNL     1       4.857   5.286  18.111  0.00  0.00    +0.000 A 
ATOM      2  C   UNL     1       6.078   4.634  18.266  0.00  0.00    +0.000 A 
ATOM      3  C   UNL     1       7.065   4.739  17.284  0.00  0.00    +0.000 A 
ATOM      4  F   UNL     1       8.220   4.096  17.506  0.00  0.00    +0.000 F 
ATOM      5  C   UNL     1       6.854   5.481  16.118  0.00  0.00    +0.000 A 
ATOM      6  C   UNL     1       5.615   6.098  15.939  0.00  0.00    +0.000 A 
ATOM      7  C   UNL     1       4.630   5.990  16.923  0.00  0.00    +0.000 A 
ATOM      8  F   UNL     1       3.453   6.607  16.733  0.00  0.00    +0.000 F 
ENDROOT
BRANCH   1  13
ATOM      9  N   UNL     1       1.988   4.497  20.293  0.00  0.00    +0.000 N 
ATOM     10  C   UNL     1       1.832   5.749  21.017  0.00  0.00    +0.000 C 
ATOM     11  C   UNL     1       2.904   4.281  19.269  0.00  0.00    +0.000 C 
ATOM     12  O   UNL     1       2.872   3.247  18.602  0.00  0.00    +0.000 OA
ATOM     13  N   UNL     1       3.837   5.279  19.096  0.00  0.00    +0.000 N 
ATOM     14  H   UNL     1       3.980   5.917  19.865  0.00  0.00    +0.000 HD
BRANCH   9  16
ATOM     15  C   UNL     1       1.445   2.601  21.801  0.00  0.00    +0.000 C 
ATOM     16  C   UNL     1       1.042   3.421  20.585  0.00  0.00    +0.000 C 
ENDBRANCH   9  16
ENDBRANCH   1  13
BRANCH   5  17
ATOM     17  O   UNL     1       7.747   5.682  15.101  0.00  0.00    +0.000 OA
ATOM     18  C   UNL     1       7.450   5.059  13.855  0.00  0.00    +0.000 C 
ENDBRANCH   5  17
TORSDOF 3
ENDMDL
MODEL 5
REMARK VINA RESULT:      -6.3      2.352      2.545
REMARK  Name = 
REMARK  6 active torsions:
REMARK  status: ('A' for Active; 'I' for Inactive)
REMARK    1  A    between atoms: C_1  and  C_2
REMARK    2  A    between atoms: C_2  and  N_3
REMARK    3  A    between atoms: N_3  and  C_4
REMARK    4  A    between atoms: N_7  and  C_8
REMARK    5  A    between atoms: C_12  and  O_13
REMARK    6  A    between atoms: O_13  and  C_14
REMARK                            x       y       z     vdW  Elec       q    Type
REMARK                         _______ _______ _______ _____ _____    ______ ____
ROOT
ATOM      1  C   UNL     1       4.800   4.542  16.729  0.00  0.00    +0.000 A 
ATOM      2  C   UNL     1       4.991   3.786  15.575  0.00  0.00    +0.000 A 
ATOM      3  C   UNL     1       6.073   4.044  14.732  0.00  0.00    +0.000 A 
ATOM      4  F   UNL     1       6.203   3.267  13.647  0.00  0.00    +0.000 F 
ATOM      5  C   UNL     1       6.981   5.070  15.008  0.00  0.00    +0.000 A 
ATOM      6  C   UNL     1       6.766   5.859  16.139  0.00  0.00    +0.000 A 
ATOM      7  C   UNL     1       5.683   5.599  16.979  0.00  0.00    +0.000 A 
ATOM      8  F   UNL     1       5.508   6.363  18.070  0.00  0.00    +0.000 F 
ENDROOT
BRANCH   1  13
ATOM      9  N   UNL     1       2.746   3.479  19.604  0.00  0.00    +0.000 N 
ATOM     10  C   UNL     1       1.410   3.808  19.133  0.00  0.00    +0.000 C 
ATOM     11  C   UNL     1       3.909   3.616  18.853  0.00  0.00    +0.000 C 
ATOM     12  O   UNL     1       4.981   3.173  19.265  0.00  0.00    +0.000 OA
ATOM     13  N   UNL     1       3.763   4.293  17.663  0.00  0.00    +0.000 N 
ATOM     14  H   UNL     1       2.945   4.875  17.559  0.00  0.00    +0.000 HD
BRANCH   9  16
ATOM     15  C   UNL     1       1.522   2.652  21.599  0.00  0.00    +0.000 C 
ATOM     16  C   UNL     1       2.868   2.859  20.923  0.00  0.00    +0.000 C 
ENDBRANCH   9  16
ENDBRANCH   1  13
BRANCH   5  17
ATOM     17  O   UNL     1       8.091   5.402  14.280  0.00  0.00    +0.000 OA
ATOM     18  C   UNL     1       7.937   5.460  12.865  0.00  0.00    +0.000 C 
ENDBRANCH   5  17
TORSDOF 3
ENDMDL
MODEL 6
REMARK VINA RESULT:      -6.1      2.392      2.969
REMARK  Name = 
REMARK  6 active torsions:
REMARK  status: ('A' for Active; 'I' for Inactive)
REMARK    1  A    between atoms: C_1  and  C_2
REMARK    2  A    between atoms: C_2  and  N_3
REMARK    3  A    between atoms: N_3  and  C_4
REMARK    4  A    between atoms: N_7  and  C_8
REMARK    5  A    between atoms: C_12  and  O_13
REMARK    6  A    between atoms: O_13  and  C_14
REMARK                            x       y       z     vdW  Elec       q    Type
REMARK                         _______ _______ _______ _____ _____    ______ ____
ROOT
ATOM      1  C   UNL     1       5.487   4.029  17.202  0.00  0.00    +0.000 A 
ATOM      2  C   UNL     1       4.975   3.906  15.913  0.00  0.00    +0.000 A 
ATOM      3  C   UNL     1       5.681   4.412  14.820  0.00  0.00    +0.000 A 
ATOM      4  F   UNL     1       5.135   4.245  13.608  0.00  0.00    +0.000 F 
ATOM      5  C   UNL     1       6.905   5.066  14.986  0.00  0.00    +0.000 A 
ATOM      6  C   UNL     1       7.399   5.232  16.282  0.00  0.00    +0.000 A 
ATOM      7  C   UNL     1       6.689   4.725  17.372  0.00  0.00    +0.000 A 
ATOM      8  F   UNL     1       7.194   4.883  18.605  0.00  0.00    +0.000 F 
ENDROOT
BRANCH   1  13
ATOM      9  N   UNL     1       3.365   3.344  20.143  0.00  0.00    +0.000 N 
ATOM     10  C   UNL     1       4.039   2.189  20.713  0.00  0.00    +0.000 C 
ATOM     11  C   UNL     1       3.812   4.058  19.036  0.00  0.00    +0.000 C 
ATOM     12  O   UNL     1       3.272   5.114  18.706  0.00  0.00    +0.000 OA
ATOM     13  N   UNL     1       4.857   3.481  18.349  0.00  0.00    +0.000 N 
ATOM     14  H   UNL     1       5.021   2.496  18.498  0.00  0.00    +0.000 HD
BRANCH   9  16
ATOM     15  C   UNL     1       1.435   2.778  21.599  0.00  0.00    +0.000 C 
ATOM     16  C   UNL     1       2.191   3.861  20.845  0.00  0.00    +0.000 C 
ENDBRANCH   9  16
ENDBRANCH   1  13
BRANCH   5  17
ATOM     17  O   UNL     1       7.703   5.578  14.000  0.00  0.00    +0.000 OA
ATOM     18  C   UNL     1       7.701   4.891  12.752  0.00  0.00    +0.000 C 
ENDBRANCH   5  17
TORSDOF 3
ENDMDL
MODEL 7
REMARK VINA RESULT:      -6.1      1.865      2.751
REMARK  Name = 
REMARK  6 active torsions:
REMARK  status: ('A' for Active; 'I' for Inactive)
REMARK    1  A    between atoms: C_1  and  C_2
REMARK    2  A    between atoms: C_2  and  N_3
REMARK    3  A    between atoms: N_3  and  C_4
REMARK    4  A    between atoms: N_7  and  C_8
REMARK    5  A    between atoms: C_12  and  O_13
REMARK    6  A    between atoms: O_13  and  C_14
REMARK                            x       y       z     vdW  Elec       q    Type
REMARK                         _______ _______ _______ _____ _____    ______ ____
ROOT
ATOM      1  C   UNL     1       4.510   5.570  18.013  0.00  0.00    +0.000 A 
ATOM      2  C   UNL     1       4.331   6.314  16.849  0.00  0.00    +0.000 A 
ATOM      3  C   UNL     1       5.310   6.318  15.854  0.00  0.00    +0.000 A 
ATOM      4  F   UNL     1       5.064   7.046  14.756  0.00  0.00    +0.000 F 
ATOM      5  C   UNL     1       6.497   5.595  16.000  0.00  0.00    +0.000 A 
ATOM      6  C   UNL     1       6.701   4.885  17.185  0.00  0.00    +0.000 A 
ATOM      7  C   UNL     1       5.719   4.884  18.178  0.00  0.00    +0.000 A 
ATOM      8  F   UNL     1       5.933   4.180  19.301  0.00  0.00    +0.000 F 
ENDROOT
BRANCH   1  13
ATOM      9  N   UNL     1       1.797   4.521  20.282  0.00  0.00    +0.000 N 
ATOM     10  C   UNL     1       1.568   5.745  21.033  0.00  0.00    +0.000 C 
ATOM     11  C   UNL     1       2.689   4.394  19.223  0.00  0.00    +0.000 C 
ATOM     12  O   UNL     1       2.715   3.370  18.540  0.00  0.00    +0.000 OA
ATOM     13  N   UNL     1       3.531   5.467  19.033  0.00  0.00    +0.000 N 
ATOM     14  H   UNL     1       3.651   6.104  19.807  0.00  0.00    +0.000 HD
BRANCH   9  16
ATOM     15  C   UNL     1       1.500   2.529  21.734  0.00  0.00    +0.000 C 
ATOM     16  C   UNL     1       0.952   3.368  20.590  0.00  0.00    +0.000 C 
ENDBRANCH   9  16
ENDBRANCH   1  13
BRANCH   5  17
ATOM     17  O   UNL     1       7.516   5.496  15.092  0.00  0.00    +0.000 OA
ATOM     18  C   UNL     1       7.232   4.793  13.885  0.00  0.00    +0.000 C 
ENDBRANCH   5  17
TORSDOF 3
ENDMDL
MODEL 8
REMARK VINA RESULT:      -6.1      1.430      1.816
REMARK  Name = 
REMARK  6 active torsions:
REMARK  status: ('A' for Active; 'I' for Inactive)
REMARK    1  A    between atoms: C_1  and  C_2
REMARK    2  A    between atoms: C_2  and  N_3
REMARK    3  A    between atoms: N_3  and  C_4
REMARK    4  A    between atoms: N_7  and  C_8
REMARK    5  A    between atoms: C_12  and  O_13
REMARK    6  A    between atoms: O_13  and  C_14
REMARK                            x       y       z     vdW  Elec       q    Type
REMARK                         _______ _______ _______ _____ _____    ______ ____
ROOT
ATOM      1  C   UNL     1       5.097   5.453  18.978  0.00  0.00    +0.000 A 
ATOM      2  C   UNL     1       6.437   5.366  19.345  0.00  0.00    +0.000 A 
ATOM      3  C   UNL     1       7.396   6.162  18.717  0.00  0.00    +0.000 A 
ATOM      4  F   UNL     1       8.664   6.035  19.132  0.00  0.00    +0.000 F 
ATOM      5  C   UNL     1       7.047   7.051  17.697  0.00  0.00    +0.000 A 
ATOM      6  C   UNL     1       5.712   7.108  17.294  0.00  0.00    +0.000 A 
ATOM      7  C   UNL     1       4.756   6.310  17.925  0.00  0.00    +0.000 A 
ATOM      8  F   UNL     1       3.475   6.396  17.529  0.00  0.00    +0.000 F 
ENDROOT
BRANCH   1  13
ATOM      9  N   UNL     1       2.420   3.085  19.894  0.00  0.00    +0.000 N 
ATOM     10  C   UNL     1       1.901   3.702  21.105  0.00  0.00    +0.000 C 
ATOM     11  C   UNL     1       3.416   3.629  19.091  0.00  0.00    +0.000 C 
ATOM     12  O   UNL     1       3.694   3.125  18.003  0.00  0.00    +0.000 OA
ATOM     13  N   UNL     1       4.061   4.726  19.617  0.00  0.00    +0.000 N 
ATOM     14  H   UNL     1       3.988   4.872  20.613  0.00  0.00    +0.000 HD
BRANCH   9  16
ATOM     15  C   UNL     1       0.447   2.120  18.735  0.00  0.00    +0.000 C 
ATOM     16  C   UNL     1       1.776   1.858  19.427  0.00  0.00    +0.000 C 
ENDBRANCH   9  16
ENDBRANCH   1  13
BRANCH   5  17
ATOM     17  O   UNL     1       7.884   7.901  17.027  0.00  0.00    +0.000 OA
ATOM     18  C   UNL     1       8.243   9.108  17.694  0.00  0.00    +0.000 C 
ENDBRANCH   5  17
TORSDOF 3
ENDMDL
MODEL 9
REMARK VINA RESULT:      -5.9      1.304      1.913
REMARK  Name = 
REMARK  6 active torsions:
REMARK  status: ('A' for Active; 'I' for Inactive)
REMARK    1  A    between atoms: C_1  and  C_2
REMARK    2  A    between atoms: C_2  and  N_3
REMARK    3  A    between atoms: N_3  and  C_4
REMARK    4  A    between atoms: N_7  and  C_8
REMARK    5  A    between atoms: C_12  and  O_13
REMARK    6  A    between atoms: O_13  and  C_14
REMARK                            x       y       z     vdW  Elec       q    Type
REMARK                         _______ _______ _______ _____ _____    ______ ____
ROOT
ATOM      1  C   UNL     1       4.684   4.923  17.856  0.00  0.00    +0.000 A 
ATOM      2  C   UNL     1       4.517   5.665  16.689  0.00  0.00    +0.000 A 
ATOM      3  C   UNL     1       5.487   6.587  16.292  0.00  0.00    +0.000 A 
ATOM      4  F   UNL     1       5.267   7.254  15.150  0.00  0.00    +0.000 F 
ATOM      5  C   UNL     1       6.638   6.804  17.055  0.00  0.00    +0.000 A 
ATOM      6  C   UNL     1       6.786   6.096  18.249  0.00  0.00    +0.000 A 
ATOM      7  C   UNL     1       5.814   5.176  18.643  0.00  0.00    +0.000 A 
ATOM      8  F   UNL     1       5.989   4.496  19.787  0.00  0.00    +0.000 F 
ENDROOT
BRANCH   1  13
ATOM      9  N   UNL     1       2.056   2.952  19.536  0.00  0.00    +0.000 N 
ATOM     10  C   UNL     1       2.312   1.626  18.998  0.00  0.00    +0.000 C 
ATOM     11  C   UNL     1       2.830   4.078  19.275  0.00  0.00    +0.000 C 
ATOM     12  O   UNL     1       2.641   5.129  19.887  0.00  0.00    +0.000 OA
ATOM     13  N   UNL     1       3.774   3.924  18.284  0.00  0.00    +0.000 N 
ATOM     14  H   UNL     1       3.650   3.155  17.642  0.00  0.00    +0.000 HD
BRANCH   9  16
ATOM     15  C   UNL     1       1.359   2.612  21.894  0.00  0.00    +0.000 C 
ATOM     16  C   UNL     1       0.970   3.094  20.505  0.00  0.00    +0.000 C 
ENDBRANCH   9  16
ENDBRANCH   1  13
BRANCH   5  17
ATOM     17  O   UNL     1       7.670   7.654  16.761  0.00  0.00    +0.000 OA
ATOM     18  C   UNL     1       8.005   8.622  17.751  0.00  0.00    +0.000 C 
ENDBRANCH   5  17
TORSDOF 3
ENDMDL
