MODEL 1
REMARK VINA RESULT:      -8.5      0.000      0.000
REMARK  Name = 
REMARK  10 active torsions:
REMARK  status: ('A' for Active; 'I' for Inactive)
REMARK    1  A    between atoms: C_1  and  O_2
REMARK    2  A    between atoms: O_2  and  C_3
REMARK    3  A    between atoms: C_8  and  O_9
REMARK    4  A    between atoms: O_9  and  C_10
REMARK    5  A    between atoms: C_12  and  N_13
REMARK    6  A    between atoms: N_13  and  C_14
REMARK    7  A    between atoms: C_14  and  C_15
REMARK    8  A    between atoms: C_15  and  O_16
REMARK    9  A    between atoms: C_15  and  C_17
REMARK   10  A    between atoms: C_20  and  O_21
REMARK                            x       y       z     vdW  Elec       q    Type
REMARK                         _______ _______ _______ _____ _____    ______ ____
ROOT
ATOM      1  C   UNL     1       4.455   3.067  18.629  0.00  0.00    +0.000 C 
ENDROOT
BRANCH   1   2
ATOM      2  C   UNL     1       5.444   4.197  18.297  0.00  0.00    +0.000 A 
ATOM      3  C   UNL     1       5.933   5.015  19.347  0.00  0.00    +0.000 A 
ATOM      4  C   UNL     1       6.880   6.022  19.142  0.00  0.00    +0.000 A 
ATOM      5  C   UNL     1       7.359   6.242  17.865  0.00  0.00    +0.000 A 
ATOM      6  C   UNL     1       6.877   5.485  16.797  0.00  0.00    +0.000 A 
ATOM      7  N   UNL     1       7.404   5.732  15.520  0.00  0.00    +0.000 N 
ATOM      8  C   UNL     1       7.027   5.061  14.396  0.00  0.00    +0.000 A 
ATOM      9  O   UNL     1       7.522   5.267  13.294  0.00  0.00    +0.000 OA
ATOM     10  C   UNL     1       5.947   4.065  14.567  0.00  0.00    +0.000 A 
ATOM     11  C   UNL     1       5.413   3.808  15.769  0.00  0.00    +0.000 A 
ATOM     12  C   UNL     1       5.897   4.484  16.985  0.00  0.00    +0.000 A 
ATOM     13  H   UNL     1       8.127   6.435  15.434  0.00  0.00    +0.000 HD
BRANCH   5  14
ATOM     14  O   UNL     1       8.302   7.204  17.626  0.00  0.00    +0.000 OA
ATOM     15  H   UNL     1       9.135   6.768  17.379  0.00  0.00    +0.000 HD
ENDBRANCH   5  14
ENDBRANCH   1   2
BRANCH   1  16
ATOM     16  O   UNL     1       4.970   2.186  19.644  0.00  0.00    +0.000 OA
ATOM     17  H   UNL     1       4.768   2.614  20.495  0.00  0.00    +0.000 HD
ENDBRANCH   1  16
BRANCH   1  18
ATOM     18  C   UNL     1       3.066   3.523  19.180  0.00  0.00    +0.000 C 
BRANCH  18  19
ATOM     19  N   UNL     1       2.627   4.709  18.432  0.00  0.00    +0.000 NA
ATOM     20  H   UNL     1       3.206   4.781  17.592  0.00  0.00    +0.000 HD
BRANCH  19  28
ATOM     21  C   UNL     1       1.135  10.329  19.880  0.00  0.00    +0.000 A 
ATOM     22  C   UNL     1       1.614   9.486  18.868  0.00  0.00    +0.000 A 
ATOM     23  C   UNL     1       1.805   8.145  19.138  0.00  0.00    +0.000 A 
ATOM     24  C   UNL     1       1.523   7.603  20.388  0.00  0.00    +0.000 A 
ATOM     25  C   UNL     1       1.052   8.414  21.405  0.00  0.00    +0.000 A 
ATOM     26  C   UNL     1       0.868   9.791  21.165  0.00  0.00    +0.000 A 
ATOM     27  C   UNL     1       1.763   6.123  20.391  0.00  0.00    +0.000 C 
ATOM     28  C   UNL     1       2.691   5.970  19.156  0.00  0.00    +0.000 C 
ATOM     29  C   UNL     1       2.266   7.096  18.185  0.00  0.00    +0.000 C 
BRANCH  21  31
ATOM     30  C   UNL     1       1.719  12.251  18.605  0.00  0.00    +0.000 C 
ATOM     31  O   UNL     1       0.959  11.672  19.662  0.00  0.00    +0.000 OA
ENDBRANCH  21  31
BRANCH  26  32
ATOM     32  O   UNL     1       0.411  10.446  22.281  0.00  0.00    +0.000 OA
ATOM     33  C   UNL     1      -0.165   9.685  23.330  0.00  0.00    +0.000 C 
ENDBRANCH  26  32
ENDBRANCH  19  28
ENDBRANCH  18  19
ENDBRANCH   1  18
TORSDOF 8
ENDMDL
MODEL 2
REMARK VINA RESULT:      -8.4      0.984      2.191
REMARK  Name = 
REMARK  10 active torsions:
REMARK  status: ('A' for Active; 'I' for Inactive)
REMARK    1  A    between atoms: C_1  and  O_2
REMARK    2  A    between atoms: O_2  and  C_3
REMARK    3  A    between atoms: C_8  and  O_9
REMARK    4  A    between atoms: O_9  and  C_10
REMARK    5  A    between atoms: C_12  and  N_13
REMARK    6  A    between atoms: N_13  and  C_14
REMARK    7  A    between atoms: C_14  and  C_15
REMARK    8  A    between atoms: C_15  and  O_16
REMARK    9  A    between atoms: C_15  and  C_17
REMARK   10  A    between atoms: C_20  and  O_21
REMARK                            x       y       z     vdW  Elec       q    Type
REMARK                         _______ _______ _______ _____ _____    ______ ____
ROOT
ATOM      1  C   UNL     1       4.635   2.615  18.225  0.00  0.00    +0.000 C 
ENDROOT
BRANCH   1   2
ATOM      2  C   UNL     1       5.452   3.902  18.019  0.00  0.00    +0.000 A 
ATOM      3  C   UNL     1       5.692   4.750  19.130  0.00  0.00    +0.000 A 
ATOM      4  C   UNL     1       6.475   5.903  19.044  0.00  0.00    +0.000 A 
ATOM      5  C   UNL     1       7.036   6.245  17.828  0.00  0.00    +0.000 A 
ATOM      6  C   UNL     1       6.793   5.459  16.702  0.00  0.00    +0.000 A 
ATOM      7  N   UNL     1       7.395   5.834  15.491  0.00  0.00    +0.000 N 
ATOM      8  C   UNL     1       7.247   5.153  14.321  0.00  0.00    +0.000 A 
ATOM      9  O   UNL     1       7.809   5.477  13.280  0.00  0.00    +0.000 OA
ATOM     10  C   UNL     1       6.336   3.989  14.359  0.00  0.00    +0.000 A 
ATOM     11  C   UNL     1       5.735   3.605  15.494  0.00  0.00    +0.000 A 
ATOM     12  C   UNL     1       5.978   4.306  16.767  0.00  0.00    +0.000 A 
ATOM     13  H   UNL     1       7.997   6.648  15.494  0.00  0.00    +0.000 HD
BRANCH   5  14
ATOM     14  O   UNL     1       7.825   7.356  17.706  0.00  0.00    +0.000 OA
ATOM     15  H   UNL     1       7.570   7.829  16.896  0.00  0.00    +0.000 HD
ENDBRANCH   5  14
ENDBRANCH   1   2
BRANCH   1  16
ATOM     16  O   UNL     1       4.530   2.264  19.617  0.00  0.00    +0.000 OA
ATOM     17  H   UNL     1       4.448   1.295  19.642  0.00  0.00    +0.000 HD
ENDBRANCH   1  16
BRANCH   1  18
ATOM     18  C   UNL     1       3.155   2.664  17.726  0.00  0.00    +0.000 C 
BRANCH  18  19
ATOM     19  N   UNL     1       2.277   2.915  18.877  0.00  0.00    +0.000 NA
ATOM     20  H   UNL     1       1.544   2.203  18.872  0.00  0.00    +0.000 HD
BRANCH  19  28
ATOM     21  C   UNL     1       1.505   8.602  20.598  0.00  0.00    +0.000 A 
ATOM     22  C   UNL     1       1.544   7.265  21.016  0.00  0.00    +0.000 A 
ATOM     23  C   UNL     1       1.758   6.270  20.082  0.00  0.00    +0.000 A 
ATOM     24  C   UNL     1       1.949   6.561  18.734  0.00  0.00    +0.000 A 
ATOM     25  C   UNL     1       1.912   7.872  18.297  0.00  0.00    +0.000 A 
ATOM     26  C   UNL     1       1.674   8.907  19.224  0.00  0.00    +0.000 A 
ATOM     27  C   UNL     1       2.217   5.308  17.955  0.00  0.00    +0.000 C 
ATOM     28  C   UNL     1       1.657   4.231  18.921  0.00  0.00    +0.000 C 
ATOM     29  C   UNL     1       1.869   4.807  20.341  0.00  0.00    +0.000 C 
BRANCH  21  31
ATOM     30  C   UNL     1       0.185   9.429  22.397  0.00  0.00    +0.000 C 
ATOM     31  O   UNL     1       1.267   9.617  21.490  0.00  0.00    +0.000 OA
ENDBRANCH  21  31
BRANCH  26  32
ATOM     32  O   UNL     1       1.657  10.139  18.620  0.00  0.00    +0.000 OA
ATOM     33  C   UNL     1       0.425  10.837  18.532  0.00  0.00    +0.000 C 
ENDBRANCH  26  32
ENDBRANCH  19  28
ENDBRANCH  18  19
ENDBRANCH   1  18
TORSDOF 8
ENDMDL
MODEL 3
REMARK VINA RESULT:      -8.3      0.740      2.008
REMARK  Name = 
REMARK  10 active torsions:
REMARK  status: ('A' for Active; 'I' for Inactive)
REMARK    1  A    between atoms: C_1  and  O_2
REMARK    2  A    between atoms: O_2  and  C_3
REMARK    3  A    between atoms: C_8  and  O_9
REMARK    4  A    between atoms: O_9  and  C_10
REMARK    5  A    between atoms: C_12  and  N_13
REMARK    6  A    between atoms: N_13  and  C_14
REMARK    7  A    between atoms: C_14  and  C_15
REMARK    8  A    between atoms: C_15  and  O_16
REMARK    9  A    between atoms: C_15  and  C_17
REMARK   10  A    between atoms: C_20  and  O_21
REMARK                            x       y       z     vdW  Elec       q    Type
REMARK                         _______ _______ _______ _____ _____    ______ ____
ROOT
ATOM      1  C   UNL     1       4.550   3.059  18.214  0.00  0.00    +0.000 C 
ENDROOT
BRANCH   1   2
ATOM      2  C   UNL     1       5.473   4.226  17.825  0.00  0.00    +0.000 A 
ATOM      3  C   UNL     1       5.862   5.158  18.820  0.00  0.00    +0.000 A 
ATOM      4  C   UNL     1       6.746   6.210  18.565  0.00  0.00    +0.000 A 
ATOM      5  C   UNL     1       7.261   6.360  17.292  0.00  0.00    +0.000 A 
ATOM      6  C   UNL     1       6.875   5.487  16.274  0.00  0.00    +0.000 A 
ATOM      7  N   UNL     1       7.436   5.667  15.000  0.00  0.00    +0.000 N 
ATOM      8  C   UNL     1       7.151   4.883  13.923  0.00  0.00    +0.000 A 
ATOM      9  O   UNL     1       7.677   5.034  12.826  0.00  0.00    +0.000 OA
ATOM     10  C   UNL     1       6.136   3.829  14.139  0.00  0.00    +0.000 A 
ATOM     11  C   UNL     1       5.572   3.633  15.338  0.00  0.00    +0.000 A 
ATOM     12  C   UNL     1       5.959   4.438  16.510  0.00  0.00    +0.000 A 
ATOM     13  H   UNL     1       8.112   6.410  14.881  0.00  0.00    +0.000 HD
BRANCH   5  14
ATOM     14  O   UNL     1       8.144   7.365  17.006  0.00  0.00    +0.000 OA
ATOM     15  H   UNL     1       7.884   7.776  16.165  0.00  0.00    +0.000 HD
ENDBRANCH   5  14
ENDBRANCH   1   2
BRANCH   1  16
ATOM     16  O   UNL     1       4.953   2.449  19.455  0.00  0.00    +0.000 OA
ATOM     17  H   UNL     1       4.315   2.757  20.122  0.00  0.00    +0.000 HD
ENDBRANCH   1  16
BRANCH   1  18
ATOM     18  C   UNL     1       3.048   3.427  18.434  0.00  0.00    +0.000 C 
BRANCH  18  19
ATOM     19  N   UNL     1       2.937   4.253  19.644  0.00  0.00    +0.000 NA
ATOM     20  H   UNL     1       2.616   3.651  20.405  0.00  0.00    +0.000 HD
BRANCH  19  28
ATOM     21  C   UNL     1       0.725   9.660  20.976  0.00  0.00    +0.000 A 
ATOM     22  C   UNL     1       0.994   8.372  21.459  0.00  0.00    +0.000 A 
ATOM     23  C   UNL     1       1.544   7.432  20.609  0.00  0.00    +0.000 A 
ATOM     24  C   UNL     1       1.851   7.734  19.285  0.00  0.00    +0.000 A 
ATOM     25  C   UNL     1       1.592   8.996  18.785  0.00  0.00    +0.000 A 
ATOM     26  C   UNL     1       1.011   9.969  19.623  0.00  0.00    +0.000 A 
ATOM     27  C   UNL     1       2.488   6.557  18.608  0.00  0.00    +0.000 C 
ATOM     28  C   UNL     1       2.047   5.400  19.544  0.00  0.00    +0.000 C 
ATOM     29  C   UNL     1       1.932   6.034  20.950  0.00  0.00    +0.000 C 
BRANCH  21  31
ATOM     30  C   UNL     1      -0.505  10.148  22.954  0.00  0.00    +0.000 C 
ATOM     31  O   UNL     1       0.152  10.614  21.779  0.00  0.00    +0.000 OA
ENDBRANCH  21  31
BRANCH  26  32
ATOM     32  O   UNL     1       0.811  11.156  18.963  0.00  0.00    +0.000 OA
ATOM     33  C   UNL     1      -0.492  11.464  18.495  0.00  0.00    +0.000 C 
ENDBRANCH  26  32
ENDBRANCH  19  28
ENDBRANCH  18  19
ENDBRANCH   1  18
TORSDOF 8
ENDMDL
MODEL 4
REMARK VINA RESULT:      -8.3      0.857      2.466
REMARK  Name = 
REMARK  10 active torsions:
REMARK  status: ('A' for Active; 'I' for Inactive)
REMARK    1  A    between atoms: C_1  and  O_2
REMARK    2  A    between atoms: O_2  and  C_3
REMARK    3  A    between atoms: C_8  and  O_9
REMARK    4  A    between atoms: O_9  and  C_10
REMARK    5  A    between atoms: C_12  and  N_13
REMARK    6  A    between atoms: N_13  and  C_14
REMARK    7  A    between atoms: C_14  and  C_15
REMARK    8  A    between atoms: C_15  and  O_16
REMARK    9  A    between atoms: C_15  and  C_17
REMARK   10  A    between atoms: C_20  and  O_21
REMARK                            x       y       z     vdW  Elec       q    Type
REMARK                         _______ _______ _______ _____ _____    ______ ____
ROOT
ATOM      1  C   UNL     1       4.006   3.011  17.524  0.00  0.00    +0.000 C 
ENDROOT
BRANCH   1   2
ATOM      2  C   UNL     1       5.096   3.709  16.693  0.00  0.00    +0.000 A 
ATOM      3  C   UNL     1       5.230   3.382  15.319  0.00  0.00    +0.000 A 
ATOM      4  C   UNL     1       6.151   4.014  14.479  0.00  0.00    +0.000 A 
ATOM      5  C   UNL     1       6.975   4.992  15.002  0.00  0.00    +0.000 A 
ATOM      6  C   UNL     1       6.902   5.317  16.356  0.00  0.00    +0.000 A 
ATOM      7  N   UNL     1       7.747   6.328  16.841  0.00  0.00    +0.000 N 
ATOM      8  C   UNL     1       7.772   6.746  18.137  0.00  0.00    +0.000 A 
ATOM      9  O   UNL     1       8.493   7.654  18.535  0.00  0.00    +0.000 OA
ATOM     10  C   UNL     1       6.884   6.019  19.070  0.00  0.00    +0.000 A 
ATOM     11  C   UNL     1       6.069   5.043  18.647  0.00  0.00    +0.000 A 
ATOM     12  C   UNL     1       5.997   4.666  17.224  0.00  0.00    +0.000 A 
ATOM     13  H   UNL     1       8.357   6.791  16.180  0.00  0.00    +0.000 HD
BRANCH   5  14
ATOM     14  O   UNL     1       7.876   5.648  14.208  0.00  0.00    +0.000 OA
ATOM     15  H   UNL     1       7.529   5.673  13.301  0.00  0.00    +0.000 HD
ENDBRANCH   5  14
ENDBRANCH   1   2
BRANCH   1  16
ATOM     16  O   UNL     1       4.521   2.518  18.774  0.00  0.00    +0.000 OA
ATOM     17  H   UNL     1       5.003   3.262  19.176  0.00  0.00    +0.000 HD
ENDBRANCH   1  16
BRANCH   1  18
ATOM     18  C   UNL     1       2.789   3.901  17.930  0.00  0.00    +0.000 C 
BRANCH  18  19
ATOM     19  N   UNL     1       2.886   4.207  19.364  0.00  0.00    +0.000 NA
ATOM     20  H   UNL     1       2.107   3.742  19.837  0.00  0.00    +0.000 HD
BRANCH  19  28
ATOM     21  C   UNL     1       1.273   9.965  18.987  0.00  0.00    +0.000 A 
ATOM     22  C   UNL     1       1.868   8.887  18.318  0.00  0.00    +0.000 A 
ATOM     23  C   UNL     1       2.012   7.680  18.974  0.00  0.00    +0.000 A 
ATOM     24  C   UNL     1       1.569   7.500  20.281  0.00  0.00    +0.000 A 
ATOM     25  C   UNL     1       0.981   8.550  20.964  0.00  0.00    +0.000 A 
ATOM     26  C   UNL     1       0.841   9.799  20.327  0.00  0.00    +0.000 A 
ATOM     27  C   UNL     1       1.793   6.086  20.727  0.00  0.00    +0.000 C 
ATOM     28  C   UNL     1       2.869   5.621  19.710  0.00  0.00    +0.000 C 
ATOM     29  C   UNL     1       2.580   6.420  18.417  0.00  0.00    +0.000 C 
BRANCH  21  31
ATOM     30  C   UNL     1       2.128  12.166  18.690  0.00  0.00    +0.000 C 
ATOM     31  O   UNL     1       1.138  11.189  18.382  0.00  0.00    +0.000 OA
ENDBRANCH  21  31
BRANCH  26  32
ATOM     32  O   UNL     1       0.252  10.727  21.150  0.00  0.00    +0.000 OA
ATOM     33  C   UNL     1      -0.193  10.316  22.432  0.00  0.00    +0.000 C 
ENDBRANCH  26  32
ENDBRANCH  19  28
ENDBRANCH  18  19
ENDBRANCH   1  18
TORSDOF 8
ENDMDL
MODEL 5
REMARK VINA RESULT:      -8.2      1.993      7.337
REMARK  Name = 
REMARK  10 active torsions:
REMARK  status: ('A' for Active; 'I' for Inactive)
REMARK    1  A    between atoms: C_1  and  O_2
REMARK    2  A    between atoms: O_2  and  C_3
REMARK    3  A    between atoms: C_8  and  O_9
REMARK    4  A    between atoms: O_9  and  C_10
REMARK    5  A    between atoms: C_12  and  N_13
REMARK    6  A    between atoms: N_13  and  C_14
REMARK    7  A    between atoms: C_14  and  C_15
REMARK    8  A    between atoms: C_15  and  O_16
REMARK    9  A    between atoms: C_15  and  C_17
REMARK   10  A    between atoms: C_20  and  O_21
REMARK                            x       y       z     vdW  Elec       q    Type
REMARK                         _______ _______ _______ _____ _____    ______ ____
ROOT
ATOM      1  C   UNL     1       1.320   5.012  20.492  0.00  0.00    +0.000 C 
ENDROOT
BRANCH   1   2
ATOM      2  C   UNL     1       1.573   6.343  19.763  0.00  0.00    +0.000 A 
ATOM      3  C   UNL     1       2.078   6.317  18.438  0.00  0.00    +0.000 A 
ATOM      4  C   UNL     1       2.277   7.475  17.683  0.00  0.00    +0.000 A 
ATOM      5  C   UNL     1       1.980   8.702  18.245  0.00  0.00    +0.000 A 
ATOM      6  C   UNL     1       1.517   8.775  19.559  0.00  0.00    +0.000 A 
ATOM      7  N   UNL     1       1.212  10.040  20.084  0.00  0.00    +0.000 N 
ATOM      8  C   UNL     1       0.746  10.251  21.346  0.00  0.00    +0.000 A 
ATOM      9  O   UNL     1       0.454  11.362  21.776  0.00  0.00    +0.000 OA
ATOM     10  C   UNL     1       0.630   9.052  22.203  0.00  0.00    +0.000 A 
ATOM     11  C   UNL     1       0.919   7.828  21.741  0.00  0.00    +0.000 A 
ATOM     12  C   UNL     1       1.339   7.614  20.345  0.00  0.00    +0.000 A 
ATOM     13  H   UNL     1       1.323  10.844  19.477  0.00  0.00    +0.000 HD
BRANCH   5  14
ATOM     14  O   UNL     1       2.142   9.858  17.532  0.00  0.00    +0.000 OA
ATOM     15  H   UNL     1       3.080  10.114  17.566  0.00  0.00    +0.000 HD
ENDBRANCH   5  14
ENDBRANCH   1   2
BRANCH   1  16
ATOM     16  O   UNL     1       0.829   3.997  19.598  0.00  0.00    +0.000 OA
ATOM     17  H   UNL     1       1.341   4.095  18.776  0.00  0.00    +0.000 HD
ENDBRANCH   1  16
BRANCH   1  18
ATOM     18  C   UNL     1       2.569   4.362  21.167  0.00  0.00    +0.000 C 
BRANCH  18  19
ATOM     19  N   UNL     1       3.072   3.290  20.297  0.00  0.00    +0.000 NA
ATOM     20  H   UNL     1       3.236   2.465  20.878  0.00  0.00    +0.000 HD
BRANCH  19  28
ATOM     21  C   UNL     1       6.417   5.297  15.749  0.00  0.00    +0.000 A 
ATOM     22  C   UNL     1       5.436   4.377  16.142  0.00  0.00    +0.000 A 
ATOM     23  C   UNL     1       5.023   4.349  17.459  0.00  0.00    +0.000 A 
ATOM     24  C   UNL     1       5.547   5.222  18.408  0.00  0.00    +0.000 A 
ATOM     25  C   UNL     1       6.518   6.137  18.046  0.00  0.00    +0.000 A 
ATOM     26  C   UNL     1       6.974   6.174  16.713  0.00  0.00    +0.000 A 
ATOM     27  C   UNL     1       4.884   5.018  19.738  0.00  0.00    +0.000 C 
ATOM     28  C   UNL     1       4.289   3.596  19.559  0.00  0.00    +0.000 C 
ATOM     29  C   UNL     1       3.971   3.474  18.051  0.00  0.00    +0.000 C 
BRANCH  21  31
ATOM     30  C   UNL     1       6.600   4.199  13.646  0.00  0.00    +0.000 C 
ATOM     31  O   UNL     1       6.876   5.337  14.456  0.00  0.00    +0.000 OA
ENDBRANCH  21  31
BRANCH  26  32
ATOM     32  O   UNL     1       7.945   7.128  16.533  0.00  0.00    +0.000 OA
ATOM     33  C   UNL     1       8.030   8.197  17.461  0.00  0.00    +0.000 C 
ENDBRANCH  26  32
ENDBRANCH  19  28
ENDBRANCH  18  19
ENDBRANCH   1  18
TORSDOF 8
ENDMDL
MODEL 6
REMARK VINA RESULT:      -8.2      2.795      4.306
REMARK  Name = 
REMARK  10 active torsions:
REMARK  status: ('A' for Active; 'I' for Inactive)
REMARK    1  A    between atoms: C_1  and  O_2
REMARK    2  A    between atoms: O_2  and  C_3
REMARK    3  A    between atoms: C_8  and  O_9
REMARK    4  A    between atoms: O_9  and  C_10
REMARK    5  A    between atoms: C_12  and  N_13
REMARK    6  A    between atoms: N_13  and  C_14
REMARK    7  A    between atoms: C_14  and  C_15
REMARK    8  A    between atoms: C_15  and  O_16
REMARK    9  A    between atoms: C_15  and  C_17
REMARK   10  A    between atoms: C_20  and  O_21
REMARK                            x       y       z     vdW  Elec       q    Type
REMARK                         _______ _______ _______ _____ _____    ______ ____
ROOT
ATOM      1  C   UNL     1       2.582   7.119  19.338  0.00  0.00    +0.000 C 
ENDROOT
BRANCH   1   2
ATOM      2  C   UNL     1       3.294   5.757  19.411  0.00  0.00    +0.000 A 
ATOM      3  C   UNL     1       2.699   4.709  20.158  0.00  0.00    +0.000 A 
ATOM      4  C   UNL     1       3.246   3.425  20.225  0.00  0.00    +0.000 A 
ATOM      5  C   UNL     1       4.419   3.159  19.545  0.00  0.00    +0.000 A 
ATOM      6  C   UNL     1       5.057   4.172  18.830  0.00  0.00    +0.000 A 
ATOM      7  N   UNL     1       6.238   3.853  18.141  0.00  0.00    +0.000 N 
ATOM      8  C   UNL     1       6.954   4.744  17.401  0.00  0.00    +0.000 A 
ATOM      9  O   UNL     1       7.965   4.439  16.778  0.00  0.00    +0.000 OA
ATOM     10  C   UNL     1       6.456   6.137  17.401  0.00  0.00    +0.000 A 
ATOM     11  C   UNL     1       5.337   6.482  18.054  0.00  0.00    +0.000 A 
ATOM     12  C   UNL     1       4.532   5.483  18.778  0.00  0.00    +0.000 A 
ATOM     13  H   UNL     1       6.563   2.895  18.178  0.00  0.00    +0.000 HD
BRANCH   5  14
ATOM     14  O   UNL     1       4.977   1.910  19.570  0.00  0.00    +0.000 OA
ATOM     15  H   UNL     1       5.225   1.699  20.486  0.00  0.00    +0.000 HD
ENDBRANCH   5  14
ENDBRANCH   1   2
BRANCH   1  16
ATOM     16  O   UNL     1       2.050   7.375  18.025  0.00  0.00    +0.000 OA
ATOM     17  H   UNL     1       1.911   6.501  17.619  0.00  0.00    +0.000 HD
ENDBRANCH   1  16
BRANCH   1  18
ATOM     18  C   UNL     1       1.359   7.296  20.293  0.00  0.00    +0.000 C 
BRANCH  18  19
ATOM     19  N   UNL     1       1.807   7.986  21.511  0.00  0.00    +0.000 NA
ATOM     20  H   UNL     1       1.585   7.388  22.309  0.00  0.00    +0.000 HD
BRANCH  19  28
ATOM     21  C   UNL     1      -2.252  12.378  21.138  0.00  0.00    +0.000 A 
ATOM     22  C   UNL     1      -1.393  11.536  20.418  0.00  0.00    +0.000 A 
ATOM     23  C   UNL     1      -0.590  10.645  21.103  0.00  0.00    +0.000 A 
ATOM     24  C   UNL     1      -0.619  10.551  22.491  0.00  0.00    +0.000 A 
ATOM     25  C   UNL     1      -1.456  11.372  23.223  0.00  0.00    +0.000 A 
ATOM     26  C   UNL     1      -2.271  12.307  22.553  0.00  0.00    +0.000 A 
ATOM     27  C   UNL     1       0.304   9.469  22.968  0.00  0.00    +0.000 C 
ATOM     28  C   UNL     1       1.232   9.304  21.736  0.00  0.00    +0.000 C 
ATOM     29  C   UNL     1       0.351   9.651  20.512  0.00  0.00    +0.000 C 
BRANCH  21  31
ATOM     30  C   UNL     1      -4.186  12.788  19.813  0.00  0.00    +0.000 C 
ATOM     31  O   UNL     1      -3.045  13.297  20.498  0.00  0.00    +0.000 OA
ENDBRANCH  21  31
BRANCH  26  32
ATOM     32  O   UNL     1      -3.025  13.047  23.430  0.00  0.00    +0.000 OA
ATOM     33  C   UNL     1      -4.391  12.710  23.608  0.00  0.00    +0.000 C 
ENDBRANCH  26  32
ENDBRANCH  19  28
ENDBRANCH  18  19
ENDBRANCH   1  18
TORSDOF 8
ENDMDL
MODEL 7
REMARK VINA RESULT:      -8.0      0.874      3.058
REMARK  Name = 
REMARK  10 active torsions:
REMARK  status: ('A' for Active; 'I' for Inactive)
REMARK    1  A    between atoms: C_1  and  O_2
REMARK    2  A    between atoms: O_2  and  C_3
REMARK    3  A    between atoms: C_8  and  O_9
REMARK    4  A    between atoms: O_9  and  C_10
REMARK    5  A    between atoms: C_12  and  N_13
REMARK    6  A    between atoms: N_13  and  C_14
REMARK    7  A    between atoms: C_14  and  C_15
REMARK    8  A    between atoms: C_15  and  O_16
REMARK    9  A    between atoms: C_15  and  C_17
REMARK   10  A    between atoms: C_20  and  O_21
REMARK                            x       y       z     vdW  Elec       q    Type
REMARK                         _______ _______ _______ _____ _____    ______ ____
ROOT
ATOM      1  C   UNL     1       4.175   3.043  17.396  0.00  0.00    +0.000 C 
ENDROOT
BRANCH   1   2
ATOM      2  C   UNL     1       5.224   3.740  16.512  0.00  0.00    +0.000 A 
ATOM      3  C   UNL     1       5.415   3.287  15.182  0.00  0.00    +0.000 A 
ATOM      4  C   UNL     1       6.301   3.902  14.295  0.00  0.00    +0.000 A 
ATOM      5  C   UNL     1       7.033   4.992  14.725  0.00  0.00    +0.000 A 
ATOM      6  C   UNL     1       6.904   5.446  16.037  0.00  0.00    +0.000 A 
ATOM      7  N   UNL     1       7.655   6.566  16.427  0.00  0.00    +0.000 N 
ATOM      8  C   UNL     1       7.618   7.115  17.673  0.00  0.00    +0.000 A 
ATOM      9  O   UNL     1       8.255   8.114  17.985  0.00  0.00    +0.000 OA
ATOM     10  C   UNL     1       6.769   6.417  18.663  0.00  0.00    +0.000 A 
ATOM     11  C   UNL     1       6.045   5.340  18.332  0.00  0.00    +0.000 A 
ATOM     12  C   UNL     1       6.034   4.815  16.955  0.00  0.00    +0.000 A 
ATOM     13  H   UNL     1       8.242   7.008  15.730  0.00  0.00    +0.000 HD
BRANCH   5  14
ATOM     14  O   UNL     1       7.897   5.634  13.881  0.00  0.00    +0.000 OA
ATOM     15  H   UNL     1       8.160   6.477  14.289  0.00  0.00    +0.000 HD
ENDBRANCH   5  14
ENDBRANCH   1   2
BRANCH   1  16
ATOM     16  O   UNL     1       4.668   2.810  18.728  0.00  0.00    +0.000 OA
ATOM     17  H   UNL     1       5.607   2.574  18.627  0.00  0.00    +0.000 HD
ENDBRANCH   1  16
BRANCH   1  18
ATOM     18  C   UNL     1       2.840   3.827  17.608  0.00  0.00    +0.000 C 
BRANCH  18  19
ATOM     19  N   UNL     1       2.898   4.512  18.907  0.00  0.00    +0.000 NA
ATOM     20  H   UNL     1       2.662   3.830  19.631  0.00  0.00    +0.000 HD
BRANCH  19  28
ATOM     21  C   UNL     1       0.979   9.749  21.098  0.00  0.00    +0.000 A 
ATOM     22  C   UNL     1       1.281   8.413  21.398  0.00  0.00    +0.000 A 
ATOM     23  C   UNL     1       1.701   7.572  20.386  0.00  0.00    +0.000 A 
ATOM     24  C   UNL     1       1.846   8.018  19.076  0.00  0.00    +0.000 A 
ATOM     25  C   UNL     1       1.552   9.330  18.755  0.00  0.00    +0.000 A 
ATOM     26  C   UNL     1       1.100  10.207  19.762  0.00  0.00    +0.000 A 
ATOM     27  C   UNL     1       2.369   6.920  18.198  0.00  0.00    +0.000 C 
ATOM     28  C   UNL     1       2.025   5.669  19.048  0.00  0.00    +0.000 C 
ATOM     29  C   UNL     1       2.101   6.142  20.519  0.00  0.00    +0.000 C 
BRANCH  21  31
ATOM     30  C   UNL     1      -0.679  10.252  22.729  0.00  0.00    +0.000 C 
ATOM     31  O   UNL     1       0.531  10.610  22.068  0.00  0.00    +0.000 OA
ENDBRANCH  21  31
BRANCH  26  32
ATOM     32  O   UNL     1       0.843  11.461  19.268  0.00  0.00    +0.000 OA
ATOM     33  C   UNL     1      -0.499  11.817  18.977  0.00  0.00    +0.000 C 
ENDBRANCH  26  32
ENDBRANCH  19  28
ENDBRANCH  18  19
ENDBRANCH   1  18
TORSDOF 8
ENDMDL
MODEL 8
REMARK VINA RESULT:      -7.8      2.826      4.713
REMARK  Name = 
REMARK  10 active torsions:
REMARK  status: ('A' for Active; 'I' for Inactive)
REMARK    1  A    between atoms: C_1  and  O_2
REMARK    2  A    between atoms: O_2  and  C_3
REMARK    3  A    between atoms: C_8  and  O_9
REMARK    4  A    between atoms: O_9  and  C_10
REMARK    5  A    between atoms: C_12  and  N_13
REMARK    6  A    between atoms: N_13  and  C_14
REMARK    7  A    between atoms: C_14  and  C_15
REMARK    8  A    between atoms: C_15  and  O_16
REMARK    9  A    between atoms: C_15  and  C_17
REMARK   10  A    between atoms: C_20  and  O_21
REMARK                            x       y       z     vdW  Elec       q    Type
REMARK                         _______ _______ _______ _____ _____    ______ ____
ROOT
ATOM      1  C   UNL     1       2.324   7.227  19.694  0.00  0.00    +0.000 C 
ENDROOT
BRANCH   1   2
ATOM      2  C   UNL     1       2.463   5.728  19.379  0.00  0.00    +0.000 A 
ATOM      3  C   UNL     1       1.595   4.806  20.018  0.00  0.00    +0.000 A 
ATOM      4  C   UNL     1       1.613   3.437  19.743  0.00  0.00    +0.000 A 
ATOM      5  C   UNL     1       2.516   2.950  18.818  0.00  0.00    +0.000 A 
ATOM      6  C   UNL     1       3.414   3.816  18.195  0.00  0.00    +0.000 A 
ATOM      7  N   UNL     1       4.304   3.281  17.251  0.00  0.00    +0.000 N 
ATOM      8  C   UNL     1       5.225   4.016  16.567  0.00  0.00    +0.000 A 
ATOM      9  O   UNL     1       5.971   3.536  15.720  0.00  0.00    +0.000 OA
ATOM     10  C   UNL     1       5.301   5.450  16.918  0.00  0.00    +0.000 A 
ATOM     11  C   UNL     1       4.474   5.996  17.821  0.00  0.00    +0.000 A 
ATOM     12  C   UNL     1       3.429   5.199  18.486  0.00  0.00    +0.000 A 
ATOM     13  H   UNL     1       4.240   2.291  17.048  0.00  0.00    +0.000 HD
BRANCH   5  14
ATOM     14  O   UNL     1       2.553   1.618  18.506  0.00  0.00    +0.000 OA
ATOM     15  H   UNL     1       3.478   1.361  18.355  0.00  0.00    +0.000 HD
ENDBRANCH   5  14
ENDBRANCH   1   2
BRANCH   1  16
ATOM     16  O   UNL     1       2.077   8.002  18.506  0.00  0.00    +0.000 OA
ATOM     17  H   UNL     1       1.412   8.668  18.756  0.00  0.00    +0.000 HD
ENDBRANCH   1  16
BRANCH   1  18
ATOM     18  C   UNL     1       1.155   7.612  20.657  0.00  0.00    +0.000 C 
BRANCH  18  19
ATOM     19  N   UNL     1       1.716   8.302  21.827  0.00  0.00    +0.000 NA
ATOM     20  H   UNL     1       1.618   7.680  22.633  0.00  0.00    +0.000 HD
BRANCH  19  28
ATOM     21  C   UNL     1      -2.088  12.902  21.309  0.00  0.00    +0.000 A 
ATOM     22  C   UNL     1      -1.084  12.157  20.675  0.00  0.00    +0.000 A 
ATOM     23  C   UNL     1      -0.483  11.116  21.355  0.00  0.00    +0.000 A 
ATOM     24  C   UNL     1      -0.857  10.776  22.652  0.00  0.00    +0.000 A 
ATOM     25  C   UNL     1      -1.843  11.497  23.300  0.00  0.00    +0.000 A 
ATOM     26  C   UNL     1      -2.459  12.579  22.639  0.00  0.00    +0.000 A 
ATOM     27  C   UNL     1      -0.090   9.578  23.127  0.00  0.00    +0.000 C 
ATOM     28  C   UNL     1       1.114   9.587  22.148  0.00  0.00    +0.000 C 
ATOM     29  C   UNL     1       0.567  10.195  20.835  0.00  0.00    +0.000 C 
BRANCH  21  31
ATOM     30  C   UNL     1      -2.033  15.222  20.783  0.00  0.00    +0.000 C 
ATOM     31  O   UNL     1      -2.690  13.962  20.680  0.00  0.00    +0.000 OA
ENDBRANCH  21  31
BRANCH  26  32
ATOM     32  O   UNL     1      -3.400  13.190  23.429  0.00  0.00    +0.000 OA
ATOM     33  C   UNL     1      -4.154  12.394  24.329  0.00  0.00    +0.000 C 
ENDBRANCH  26  32
ENDBRANCH  19  28
ENDBRANCH  18  19
ENDBRANCH   1  18
TORSDOF 8
ENDMDL
MODEL 9
REMARK VINA RESULT:      -7.8      3.609      5.076
REMARK  Name = 
REMARK  10 active torsions:
REMARK  status: ('A' for Active; 'I' for Inactive)
REMARK    1  A    between atoms: C_1  and  O_2
REMARK    2  A    between atoms: O_2  and  C_3
REMARK    3  A    between atoms: C_8  and  O_9
REMARK    4  A    between atoms: O_9  and  C_10
REMARK    5  A    between atoms: C_12  and  N_13
REMARK    6  A    between atoms: N_13  and  C_14
REMARK    7  A    between atoms: C_14  and  C_15
REMARK    8  A    between atoms: C_15  and  O_16
REMARK    9  A    between atoms: C_15  and  C_17
REMARK   10  A    between atoms: C_20  and  O_21
REMARK                            x       y       z     vdW  Elec       q    Type
REMARK                         _______ _______ _______ _____ _____    ______ ____
ROOT
ATOM      1  C   UNL     1       2.126   7.280  18.356  0.00  0.00    +0.000 C 
ENDROOT
BRANCH   1   2
ATOM      2  C   UNL     1       3.286   6.402  17.860  0.00  0.00    +0.000 A 
ATOM      3  C   UNL     1       4.407   7.021  17.250  0.00  0.00    +0.000 A 
ATOM      4  C   UNL     1       5.529   6.304  16.828  0.00  0.00    +0.000 A 
ATOM      5  C   UNL     1       5.553   4.933  17.000  0.00  0.00    +0.000 A 
ATOM      6  C   UNL     1       4.456   4.280  17.561  0.00  0.00    +0.000 A 
ATOM      7  N   UNL     1       4.530   2.889  17.731  0.00  0.00    +0.000 N 
ATOM      8  C   UNL     1       3.535   2.131  18.271  0.00  0.00    +0.000 A 
ATOM      9  O   UNL     1       3.630   0.921  18.444  0.00  0.00    +0.000 OA
ATOM     10  C   UNL     1       2.292   2.851  18.626  0.00  0.00    +0.000 A 
ATOM     11  C   UNL     1       2.180   4.177  18.470  0.00  0.00    +0.000 A 
ATOM     12  C   UNL     1       3.302   4.988  17.964  0.00  0.00    +0.000 A 
ATOM     13  H   UNL     1       5.387   2.423  17.459  0.00  0.00    +0.000 HD
BRANCH   5  14
ATOM     14  O   UNL     1       6.641   4.197  16.618  0.00  0.00    +0.000 OA
ATOM     15  H   UNL     1       6.694   4.203  15.647  0.00  0.00    +0.000 HD
ENDBRANCH   5  14
ENDBRANCH   1   2
BRANCH   1  16
ATOM     16  O   UNL     1       2.203   7.517  19.774  0.00  0.00    +0.000 OA
ATOM     17  H   UNL     1       1.282   7.556  20.088  0.00  0.00    +0.000 HD
ENDBRANCH   1  16
BRANCH   1  18
ATOM     18  C   UNL     1       2.041   8.709  17.729  0.00  0.00    +0.000 C 
BRANCH  18  19
ATOM     19  N   UNL     1       1.782   9.680  18.801  0.00  0.00    +0.000 NA
ATOM     20  H   UNL     1       1.621   9.157  19.665  0.00  0.00    +0.000 HD
BRANCH  19  28
ATOM     21  C   UNL     1      -3.953  11.308  18.203  0.00  0.00    +0.000 A 
ATOM     22  C   UNL     1      -2.921  10.507  17.694  0.00  0.00    +0.000 A 
ATOM     23  C   UNL     1      -1.671  10.566  18.277  0.00  0.00    +0.000 A 
ATOM     24  C   UNL     1      -1.408  11.391  19.366  0.00  0.00    +0.000 A 
ATOM     25  C   UNL     1      -2.409  12.192  19.885  0.00  0.00    +0.000 A 
ATOM     26  C   UNL     1      -3.690  12.170  19.298  0.00  0.00    +0.000 A 
ATOM     27  C   UNL     1       0.006  11.216  19.835  0.00  0.00    +0.000 C 
ATOM     28  C   UNL     1       0.659  10.579  18.579  0.00  0.00    +0.000 C 
ATOM     29  C   UNL     1      -0.469   9.767  17.901  0.00  0.00    +0.000 C 
BRANCH  21  31
ATOM     30  C   UNL     1      -6.239  10.671  18.382  0.00  0.00    +0.000 C 
ATOM     31  O   UNL     1      -5.202  11.302  17.636  0.00  0.00    +0.000 OA
ENDBRANCH  21  31
BRANCH  26  32
ATOM     32  O   UNL     1      -4.553  13.033  19.925  0.00  0.00    +0.000 OA
ATOM     33  C   UNL     1      -4.587  13.052  21.343  0.00  0.00    +0.000 C 
ENDBRANCH  26  32
ENDBRANCH  19  28
ENDBRANCH  18  19
ENDBRANCH   1  18
TORSDOF 8
ENDMDL
