MODEL 1
REMARK VINA RESULT:      -7.3      0.000      0.000
REMARK  Name = 
REMARK  4 active torsions:
REMARK  status: ('A' for Active; 'I' for Inactive)
REMARK    1  A    between atoms: C_2  and  C_3
REMARK    2  A    between atoms: C_3  and  N_4
REMARK    3  A    between atoms: C_7  and  C_8
REMARK    4  A    between atoms: N_17  and  C_18
REMARK                            x       y       z     vdW  Elec       q    Type
REMARK                         _______ _______ _______ _____ _____    ______ ____
ROOT
ATOM      1  N   UNL     1       0.621  10.965  21.771  0.00  0.00    +0.000 NA
ATOM      2  C   UNL     1       0.972  11.061  20.352  0.00  0.00    +0.000 C 
ATOM      3  C   UNL     1       0.507  12.365  19.701  0.00  0.00    +0.000 C 
ATOM      4  C   UNL     1      -1.019  12.553  19.847  0.00  0.00    +0.000 C 
ATOM      5  C   UNL     1      -1.300  12.553  21.356  0.00  0.00    +0.000 C 
ATOM      6  C   UNL     1      -0.766  11.312  22.089  0.00  0.00    +0.000 C 
ENDROOT
BRANCH   4   7
ATOM      7  C   UNL     1      -1.827  11.647  18.912  0.00  0.00    +0.000 A 
ATOM      8  C   UNL     1      -1.132  10.738  18.077  0.00  0.00    +0.000 A 
ATOM      9  C   UNL     1      -1.808   9.874  17.216  0.00  0.00    +0.000 A 
ATOM     10  C   UNL     1      -3.189   9.889  17.174  0.00  0.00    +0.000 A 
ATOM     11  C   UNL     1      -3.871  10.798  17.970  0.00  0.00    +0.000 A 
ATOM     12  N   UNL     1      -3.219  11.701  18.810  0.00  0.00    +0.000 N 
ATOM     13  O   UNL     1      -3.943  12.555  19.406  0.00  0.00    +0.000 OA
ENDBRANCH   4   7
BRANCH   1  14
ATOM     14  C   UNL     1       1.012   9.668  22.385  0.00  0.00    +0.000 C 
BRANCH  14  16
ATOM     15  O   UNL     1      -0.357   8.037  21.219  0.00  0.00    +0.000 OA
ATOM     16  C   UNL     1       0.777   8.399  21.520  0.00  0.00    +0.000 C 
ATOM     17  N   UNL     1       1.941   7.784  21.074  0.00  0.00    +0.000 N 
ATOM     18  H   UNL     1       2.800   8.022  21.553  0.00  0.00    +0.000 HD
BRANCH  17  19
ATOM     19  C   UNL     1       2.027   6.760  20.095  0.00  0.00    +0.000 A 
ATOM     20  C   UNL     1       2.480   6.979  18.785  0.00  0.00    +0.000 A 
ATOM     21  C   UNL     1       2.537   5.932  17.858  0.00  0.00    +0.000 A 
ATOM     22  C   UNL     1       2.150   4.658  18.240  0.00  0.00    +0.000 A 
ATOM     23  F   UNL     1       2.193   3.658  17.348  0.00  0.00    +0.000 F 
ATOM     24  C   UNL     1       1.724   4.407  19.536  0.00  0.00    +0.000 A 
ATOM     25  C   UNL     1       1.668   5.456  20.467  0.00  0.00    +0.000 A 
ENDBRANCH  17  19
ENDBRANCH  14  16
ENDBRANCH   1  14
TORSDOF 4
ENDMDL
MODEL 2
REMARK VINA RESULT:      -7.3      6.937      9.567
REMARK  Name = 
REMARK  4 active torsions:
REMARK  status: ('A' for Active; 'I' for Inactive)
REMARK    1  A    between atoms: C_2  and  C_3
REMARK    2  A    between atoms: C_3  and  N_4
REMARK    3  A    between atoms: C_7  and  C_8
REMARK    4  A    between atoms: N_17  and  C_18
REMARK                            x       y       z     vdW  Elec       q    Type
REMARK                         _______ _______ _______ _____ _____    ______ ____
ROOT
ATOM      1  N   UNL     1       7.005   6.190  17.474  0.00  0.00    +0.000 NA
ATOM      2  C   UNL     1       6.918   4.739  17.648  0.00  0.00    +0.000 C 
ATOM      3  C   UNL     1       5.956   4.069  16.666  0.00  0.00    +0.000 C 
ATOM      4  C   UNL     1       4.536   4.667  16.773  0.00  0.00    +0.000 C 
ATOM      5  C   UNL     1       4.687   6.165  16.471  0.00  0.00    +0.000 C 
ATOM      6  C   UNL     1       5.718   6.878  17.360  0.00  0.00    +0.000 C 
ENDROOT
BRANCH   4   7
ATOM      7  C   UNL     1       3.783   4.205  18.026  0.00  0.00    +0.000 A 
ATOM      8  C   UNL     1       4.140   2.969  18.616  0.00  0.00    +0.000 A 
ATOM      9  C   UNL     1       3.506   2.499  19.766  0.00  0.00    +0.000 A 
ATOM     10  C   UNL     1       2.511   3.254  20.359  0.00  0.00    +0.000 A 
ATOM     11  C   UNL     1       2.140   4.452  19.765  0.00  0.00    +0.000 A 
ATOM     12  N   UNL     1       2.729   4.926  18.593  0.00  0.00    +0.000 N 
ATOM     13  O   UNL     1       2.233   5.978  18.087  0.00  0.00    +0.000 OA
ENDBRANCH   4   7
BRANCH   1  14
ATOM     14  C   UNL     1       7.887   6.849  18.475  0.00  0.00    +0.000 C 
BRANCH  14  16
ATOM     15  O   UNL     1       7.854   8.907  17.187  0.00  0.00    +0.000 OA
ATOM     16  C   UNL     1       8.272   8.326  18.186  0.00  0.00    +0.000 C 
ATOM     17  N   UNL     1       9.046   8.922  19.174  0.00  0.00    +0.000 N 
ATOM     18  H   UNL     1       9.514   8.307  19.827  0.00  0.00    +0.000 HD
BRANCH  17  19
ATOM     19  C   UNL     1       9.346  10.305  19.284  0.00  0.00    +0.000 A 
ATOM     20  C   UNL     1       9.658  11.119  18.184  0.00  0.00    +0.000 A 
ATOM     21  C   UNL     1       9.953  12.476  18.352  0.00  0.00    +0.000 A 
ATOM     22  C   UNL     1       9.928  13.030  19.622  0.00  0.00    +0.000 A 
ATOM     23  F   UNL     1      10.222  14.328  19.784  0.00  0.00    +0.000 F 
ATOM     24  C   UNL     1       9.596  12.256  20.724  0.00  0.00    +0.000 A 
ATOM     25  C   UNL     1       9.298  10.894  20.556  0.00  0.00    +0.000 A 
ENDBRANCH  17  19
ENDBRANCH  14  16
ENDBRANCH   1  14
TORSDOF 4
ENDMDL
MODEL 3
REMARK VINA RESULT:      -7.3      7.062      9.678
REMARK  Name = 
REMARK  4 active torsions:
REMARK  status: ('A' for Active; 'I' for Inactive)
REMARK    1  A    between atoms: C_2  and  C_3
REMARK    2  A    between atoms: C_3  and  N_4
REMARK    3  A    between atoms: C_7  and  C_8
REMARK    4  A    between atoms: N_17  and  C_18
REMARK                            x       y       z     vdW  Elec       q    Type
REMARK                         _______ _______ _______ _____ _____    ______ ____
ROOT
ATOM      1  N   UNL     1       7.070   6.254  17.356  0.00  0.00    +0.000 NA
ATOM      2  C   UNL     1       7.024   4.796  17.479  0.00  0.00    +0.000 C 
ATOM      3  C   UNL     1       6.124   4.128  16.439  0.00  0.00    +0.000 C 
ATOM      4  C   UNL     1       4.681   4.677  16.508  0.00  0.00    +0.000 C 
ATOM      5  C   UNL     1       4.794   6.188  16.262  0.00  0.00    +0.000 C 
ATOM      6  C   UNL     1       5.765   6.904  17.214  0.00  0.00    +0.000 C 
ENDROOT
BRANCH   4   7
ATOM      7  C   UNL     1       3.897   4.149  17.714  0.00  0.00    +0.000 A 
ATOM      8  C   UNL     1       4.177   2.845  18.190  0.00  0.00    +0.000 A 
ATOM      9  C   UNL     1       3.511   2.311  19.292  0.00  0.00    +0.000 A 
ATOM     10  C   UNL     1       2.560   3.066  19.952  0.00  0.00    +0.000 A 
ATOM     11  C   UNL     1       2.263   4.334  19.471  0.00  0.00    +0.000 A 
ATOM     12  N   UNL     1       2.885   4.876  18.346  0.00  0.00    +0.000 N 
ATOM     13  O   UNL     1       2.455   5.998  17.938  0.00  0.00    +0.000 OA
ENDBRANCH   4   7
BRANCH   1  14
ATOM     14  C   UNL     1       7.890   6.907  18.412  0.00  0.00    +0.000 C 
BRANCH  14  16
ATOM     15  O   UNL     1       7.773   9.027  17.237  0.00  0.00    +0.000 OA
ATOM     16  C   UNL     1       8.249   8.400  18.179  0.00  0.00    +0.000 C 
ATOM     17  N   UNL     1       9.074   8.951  19.153  0.00  0.00    +0.000 N 
ATOM     18  H   UNL     1       9.581   8.308  19.747  0.00  0.00    +0.000 HD
BRANCH  17  19
ATOM     19  C   UNL     1       9.371  10.329  19.317  0.00  0.00    +0.000 A 
ATOM     20  C   UNL     1       9.287  10.997  20.549  0.00  0.00    +0.000 A 
ATOM     21  C   UNL     1       9.586  12.360  20.652  0.00  0.00    +0.000 A 
ATOM     22  C   UNL     1       9.981  13.061  19.523  0.00  0.00    +0.000 A 
ATOM     23  F   UNL     1      10.255  14.370  19.620  0.00  0.00    +0.000 F 
ATOM     24  C   UNL     1      10.099  12.421  18.299  0.00  0.00    +0.000 A 
ATOM     25  C   UNL     1       9.801  11.053  18.195  0.00  0.00    +0.000 A 
ENDBRANCH  17  19
ENDBRANCH  14  16
ENDBRANCH   1  14
TORSDOF 4
ENDMDL
MODEL 4
REMARK VINA RESULT:      -7.2      7.076      9.623
REMARK  Name = 
REMARK  4 active torsions:
REMARK  status: ('A' for Active; 'I' for Inactive)
REMARK    1  A    between atoms: C_2  and  C_3
REMARK    2  A    between atoms: C_3  and  N_4
REMARK    3  A    between atoms: C_7  and  C_8
REMARK    4  A    between atoms: N_17  and  C_18
REMARK                            x       y       z     vdW  Elec       q    Type
REMARK                         _______ _______ _______ _____ _____    ______ ____
ROOT
ATOM      1  N   UNL     1       6.579   6.548  16.943  0.00  0.00    +0.000 NA
ATOM      2  C   UNL     1       6.574   5.840  18.225  0.00  0.00    +0.000 C 
ATOM      3  C   UNL     1       6.367   4.331  18.082  0.00  0.00    +0.000 C 
ATOM      4  C   UNL     1       5.054   4.012  17.334  0.00  0.00    +0.000 C 
ATOM      5  C   UNL     1       5.175   4.690  15.963  0.00  0.00    +0.000 C 
ATOM      6  C   UNL     1       5.485   6.194  16.037  0.00  0.00    +0.000 C 
ENDROOT
BRANCH   4   7
ATOM      7  C   UNL     1       3.805   4.232  18.196  0.00  0.00    +0.000 A 
ATOM      8  C   UNL     1       3.937   4.934  19.418  0.00  0.00    +0.000 A 
ATOM      9  C   UNL     1       2.838   5.182  20.240  0.00  0.00    +0.000 A 
ATOM     10  C   UNL     1       1.583   4.746  19.858  0.00  0.00    +0.000 A 
ATOM     11  C   UNL     1       1.456   4.032  18.675  0.00  0.00    +0.000 A 
ATOM     12  N   UNL     1       2.544   3.735  17.855  0.00  0.00    +0.000 N 
ATOM     13  O   UNL     1       2.322   2.986  16.856  0.00  0.00    +0.000 OA
ENDBRANCH   4   7
BRANCH   1  14
ATOM     14  C   UNL     1       6.710   8.023  17.089  0.00  0.00    +0.000 C 
BRANCH  14  16
ATOM     15  O   UNL     1       8.601   7.734  18.584  0.00  0.00    +0.000 OA
ATOM     16  C   UNL     1       7.872   8.524  17.990  0.00  0.00    +0.000 C 
ATOM     17  N   UNL     1       8.043   9.903  17.993  0.00  0.00    +0.000 N 
ATOM     18  H   UNL     1       7.270  10.465  17.660  0.00  0.00    +0.000 HD
BRANCH  17  19
ATOM     19  C   UNL     1       9.149  10.610  18.533  0.00  0.00    +0.000 A 
ATOM     20  C   UNL     1      10.132  11.228  17.745  0.00  0.00    +0.000 A 
ATOM     21  C   UNL     1      11.205  11.906  18.333  0.00  0.00    +0.000 A 
ATOM     22  C   UNL     1      11.295  11.979  19.714  0.00  0.00    +0.000 A 
ATOM     23  F   UNL     1      12.331  12.619  20.277  0.00  0.00    +0.000 F 
ATOM     24  C   UNL     1      10.323  11.403  20.517  0.00  0.00    +0.000 A 
ATOM     25  C   UNL     1       9.245  10.723  19.928  0.00  0.00    +0.000 A 
ENDBRANCH  17  19
ENDBRANCH  14  16
ENDBRANCH   1  14
TORSDOF 4
ENDMDL
MODEL 5
REMARK VINA RESULT:      -7.2      4.067      8.651
REMARK  Name = 
REMARK  4 active torsions:
REMARK  status: ('A' for Active; 'I' for Inactive)
REMARK    1  A    between atoms: C_2  and  C_3
REMARK    2  A    between atoms: C_3  and  N_4
REMARK    3  A    between atoms: C_7  and  C_8
REMARK    4  A    between atoms: N_17  and  C_18
REMARK                            x       y       z     vdW  Elec       q    Type
REMARK                         _______ _______ _______ _____ _____    ______ ____
ROOT
ATOM      1  N   UNL     1       2.630   5.956  19.145  0.00  0.00    +0.000 NA
ATOM      2  C   UNL     1       2.409   5.517  17.765  0.00  0.00    +0.000 C 
ATOM      3  C   UNL     1       2.639   4.018  17.563  0.00  0.00    +0.000 C 
ATOM      4  C   UNL     1       4.065   3.606  17.992  0.00  0.00    +0.000 C 
ATOM      5  C   UNL     1       4.187   3.993  19.472  0.00  0.00    +0.000 C 
ATOM      6  C   UNL     1       3.867   5.470  19.758  0.00  0.00    +0.000 C 
ENDROOT
BRANCH   4   7
ATOM      7  C   UNL     1       5.141   4.038  16.990  0.00  0.00    +0.000 A 
ATOM      8  C   UNL     1       4.823   4.042  15.610  0.00  0.00    +0.000 A 
ATOM      9  C   UNL     1       5.752   4.439  14.649  0.00  0.00    +0.000 A 
ATOM     10  C   UNL     1       7.011   4.852  15.040  0.00  0.00    +0.000 A 
ATOM     11  C   UNL     1       7.335   4.822  16.389  0.00  0.00    +0.000 A 
ATOM     12  N   UNL     1       6.439   4.390  17.367  0.00  0.00    +0.000 N 
ATOM     13  O   UNL     1       6.883   4.305  18.553  0.00  0.00    +0.000 OA
ENDBRANCH   4   7
BRANCH   1  14
ATOM     14  C   UNL     1       2.473   7.424  19.325  0.00  0.00    +0.000 C 
BRANCH  14  16
ATOM     15  O   UNL     1       1.051   7.149  21.273  0.00  0.00    +0.000 OA
ATOM     16  C   UNL     1       1.397   7.880  20.349  0.00  0.00    +0.000 C 
ATOM     17  N   UNL     1       0.941   9.179  20.163  0.00  0.00    +0.000 N 
ATOM     18  H   UNL     1       1.117   9.606  19.263  0.00  0.00    +0.000 HD
BRANCH  17  19
ATOM     19  C   UNL     1       0.143   9.926  21.069  0.00  0.00    +0.000 A 
ATOM     20  C   UNL     1       0.006   9.601  22.428  0.00  0.00    +0.000 A 
ATOM     21  C   UNL     1      -0.801  10.369  23.274  0.00  0.00    +0.000 A 
ATOM     22  C   UNL     1      -1.467  11.474  22.768  0.00  0.00    +0.000 A 
ATOM     23  F   UNL     1      -2.250  12.203  23.577  0.00  0.00    +0.000 F 
ATOM     24  C   UNL     1      -1.328  11.835  21.437  0.00  0.00    +0.000 A 
ATOM     25  C   UNL     1      -0.517  11.066  20.587  0.00  0.00    +0.000 A 
ENDBRANCH  17  19
ENDBRANCH  14  16
ENDBRANCH   1  14
TORSDOF 4
ENDMDL
MODEL 6
REMARK VINA RESULT:      -7.1      5.296      9.152
REMARK  Name = 
REMARK  4 active torsions:
REMARK  status: ('A' for Active; 'I' for Inactive)
REMARK    1  A    between atoms: C_2  and  C_3
REMARK    2  A    between atoms: C_3  and  N_4
REMARK    3  A    between atoms: C_7  and  C_8
REMARK    4  A    between atoms: N_17  and  C_18
REMARK                            x       y       z     vdW  Elec       q    Type
REMARK                         _______ _______ _______ _____ _____    ______ ____
ROOT
ATOM      1  N   UNL     1       5.089   5.080  17.982  0.00  0.00    +0.000 NA
ATOM      2  C   UNL     1       6.039   4.042  17.575  0.00  0.00    +0.000 C 
ATOM      3  C   UNL     1       7.400   4.600  17.154  0.00  0.00    +0.000 C 
ATOM      4  C   UNL     1       7.257   5.621  16.003  0.00  0.00    +0.000 C 
ATOM      5  C   UNL     1       6.341   6.731  16.537  0.00  0.00    +0.000 C 
ATOM      6  C   UNL     1       4.993   6.222  17.072  0.00  0.00    +0.000 C 
ENDROOT
BRANCH   4   7
ATOM      7  C   UNL     1       6.964   4.962  14.651  0.00  0.00    +0.000 A 
ATOM      8  C   UNL     1       5.895   4.038  14.562  0.00  0.00    +0.000 A 
ATOM      9  C   UNL     1       5.565   3.416  13.358  0.00  0.00    +0.000 A 
ATOM     10  C   UNL     1       6.285   3.709  12.215  0.00  0.00    +0.000 A 
ATOM     11  C   UNL     1       7.351   4.592  12.306  0.00  0.00    +0.000 A 
ATOM     12  N   UNL     1       7.728   5.197  13.505  0.00  0.00    +0.000 N 
ATOM     13  O   UNL     1       8.783   5.901  13.485  0.00  0.00    +0.000 OA
ENDBRANCH   4   7
BRANCH   1  14
ATOM     14  C   UNL     1       3.745   4.542  18.325  0.00  0.00    +0.000 C 
BRANCH  14  16
ATOM     15  O   UNL     1       1.504   5.379  17.908  0.00  0.00    +0.000 OA
ATOM     16  C   UNL     1       2.596   5.582  18.433  0.00  0.00    +0.000 C 
ATOM     17  N   UNL     1       2.894   6.688  19.220  0.00  0.00    +0.000 N 
ATOM     18  H   UNL     1       3.871   6.865  19.416  0.00  0.00    +0.000 HD
BRANCH  17  19
ATOM     19  C   UNL     1       1.973   7.667  19.675  0.00  0.00    +0.000 A 
ATOM     20  C   UNL     1       1.354   7.621  20.934  0.00  0.00    +0.000 A 
ATOM     21  C   UNL     1       0.447   8.611  21.328  0.00  0.00    +0.000 A 
ATOM     22  C   UNL     1       0.161   9.659  20.467  0.00  0.00    +0.000 A 
ATOM     23  F   UNL     1      -0.718  10.600  20.840  0.00  0.00    +0.000 F 
ATOM     24  C   UNL     1       0.778   9.745  19.228  0.00  0.00    +0.000 A 
ATOM     25  C   UNL     1       1.690   8.753  18.833  0.00  0.00    +0.000 A 
ENDBRANCH  17  19
ENDBRANCH  14  16
ENDBRANCH   1  14
TORSDOF 4
ENDMDL
MODEL 7
REMARK VINA RESULT:      -7.1      7.297      9.649
REMARK  Name = 
REMARK  4 active torsions:
REMARK  status: ('A' for Active; 'I' for Inactive)
REMARK    1  A    between atoms: C_2  and  C_3
REMARK    2  A    between atoms: C_3  and  N_4
REMARK    3  A    between atoms: C_7  and  C_8
REMARK    4  A    between atoms: N_17  and  C_18
REMARK                            x       y       z     vdW  Elec       q    Type
REMARK                         _______ _______ _______ _____ _____    ______ ____
ROOT
ATOM      1  N   UNL     1       6.819   6.039  17.743  0.00  0.00    +0.000 NA
ATOM      2  C   UNL     1       6.664   4.619  18.069  0.00  0.00    +0.000 C 
ATOM      3  C   UNL     1       5.714   3.881  17.125  0.00  0.00    +0.000 C 
ATOM      4  C   UNL     1       4.317   4.541  17.105  0.00  0.00    +0.000 C 
ATOM      5  C   UNL     1       4.541   5.989  16.650  0.00  0.00    +0.000 C 
ATOM      6  C   UNL     1       5.567   6.757  17.500  0.00  0.00    +0.000 C 
ENDROOT
BRANCH   4   7
ATOM      7  C   UNL     1       3.498   4.247  18.367  0.00  0.00    +0.000 A 
ATOM      8  C   UNL     1       3.159   5.322  19.223  0.00  0.00    +0.000 A 
ATOM      9  C   UNL     1       2.402   5.125  20.378  0.00  0.00    +0.000 A 
ATOM     10  C   UNL     1       1.958   3.857  20.700  0.00  0.00    +0.000 A 
ATOM     11  C   UNL     1       2.314   2.797  19.878  0.00  0.00    +0.000 A 
ATOM     12  N   UNL     1       3.104   2.959  18.740  0.00  0.00    +0.000 N 
ATOM     13  O   UNL     1       3.453   1.904  18.129  0.00  0.00    +0.000 OA
ENDBRANCH   4   7
BRANCH   1  14
ATOM     14  C   UNL     1       7.689   6.770  18.703  0.00  0.00    +0.000 C 
BRANCH  14  16
ATOM     15  O   UNL     1       8.160   8.471  17.036  0.00  0.00    +0.000 OA
ATOM     16  C   UNL     1       8.276   8.120  18.208  0.00  0.00    +0.000 C 
ATOM     17  N   UNL     1       8.857   8.894  19.205  0.00  0.00    +0.000 N 
ATOM     18  H   UNL     1       9.098   8.427  20.070  0.00  0.00    +0.000 HD
BRANCH  17  19
ATOM     19  C   UNL     1       9.261  10.250  19.086  0.00  0.00    +0.000 A 
ATOM     20  C   UNL     1       8.917  11.067  17.998  0.00  0.00    +0.000 A 
ATOM     21  C   UNL     1       9.350  12.395  17.930  0.00  0.00    +0.000 A 
ATOM     22  C   UNL     1      10.121  12.918  18.956  0.00  0.00    +0.000 A 
ATOM     23  F   UNL     1      10.546  14.187  18.884  0.00  0.00    +0.000 F 
ATOM     24  C   UNL     1      10.453  12.142  20.057  0.00  0.00    +0.000 A 
ATOM     25  C   UNL     1      10.018  10.809  20.126  0.00  0.00    +0.000 A 
ENDBRANCH  17  19
ENDBRANCH  14  16
ENDBRANCH   1  14
TORSDOF 4
ENDMDL
MODEL 8
REMARK VINA RESULT:      -7.1      8.157     10.059
REMARK  Name = 
REMARK  4 active torsions:
REMARK  status: ('A' for Active; 'I' for Inactive)
REMARK    1  A    between atoms: C_2  and  C_3
REMARK    2  A    between atoms: C_3  and  N_4
REMARK    3  A    between atoms: C_7  and  C_8
REMARK    4  A    between atoms: N_17  and  C_18
REMARK                            x       y       z     vdW  Elec       q    Type
REMARK                         _______ _______ _______ _____ _____    ______ ____
ROOT
ATOM      1  N   UNL     1       9.437  10.275  18.644  0.00  0.00    +0.000 NA
ATOM      2  C   UNL     1      10.357  11.118  17.877  0.00  0.00    +0.000 C 
ATOM      3  C   UNL     1      11.518  11.661  18.712  0.00  0.00    +0.000 C 
ATOM      4  C   UNL     1      11.008  12.464  19.929  0.00  0.00    +0.000 C 
ATOM      5  C   UNL     1      10.144  11.490  20.743  0.00  0.00    +0.000 C 
ATOM      6  C   UNL     1       9.018  10.830  19.932  0.00  0.00    +0.000 C 
ENDROOT
BRANCH   4   7
ATOM      7  C   UNL     1      10.464  13.846  19.551  0.00  0.00    +0.000 A 
ATOM      8  C   UNL     1       9.144  14.186  19.934  0.00  0.00    +0.000 A 
ATOM      9  C   UNL     1       8.595  15.432  19.635  0.00  0.00    +0.000 A 
ATOM     10  C   UNL     1       9.352  16.371  18.959  0.00  0.00    +0.000 A 
ATOM     11  C   UNL     1      10.636  16.030  18.558  0.00  0.00    +0.000 A 
ATOM     12  N   UNL     1      11.194  14.777  18.807  0.00  0.00    +0.000 N 
ATOM     13  O   UNL     1      12.333  14.545  18.299  0.00  0.00    +0.000 OA
ENDBRANCH   4   7
BRANCH   1  14
ATOM     14  C   UNL     1       8.271   9.805  17.848  0.00  0.00    +0.000 C 
BRANCH  14  16
ATOM     15  O   UNL     1       8.475   7.565  18.761  0.00  0.00    +0.000 OA
ATOM     16  C   UNL     1       7.975   8.281  17.897  0.00  0.00    +0.000 C 
ATOM     17  N   UNL     1       7.062   7.842  16.945  0.00  0.00    +0.000 N 
ATOM     18  H   UNL     1       6.888   8.453  16.157  0.00  0.00    +0.000 HD
BRANCH  17  19
ATOM     19  C   UNL     1       6.441   6.566  16.904  0.00  0.00    +0.000 A 
ATOM     20  C   UNL     1       6.965   5.474  16.196  0.00  0.00    +0.000 A 
ATOM     21  C   UNL     1       6.306   4.240  16.185  0.00  0.00    +0.000 A 
ATOM     22  C   UNL     1       5.124   4.089  16.892  0.00  0.00    +0.000 A 
ATOM     23  F   UNL     1       4.486   2.910  16.871  0.00  0.00    +0.000 F 
ATOM     24  C   UNL     1       4.597   5.143  17.623  0.00  0.00    +0.000 A 
ATOM     25  C   UNL     1       5.259   6.381  17.636  0.00  0.00    +0.000 A 
ENDBRANCH  17  19
ENDBRANCH  14  16
ENDBRANCH   1  14
TORSDOF 4
ENDMDL
MODEL 9
REMARK VINA RESULT:      -7.1      8.360     10.214
REMARK  Name = 
REMARK  4 active torsions:
REMARK  status: ('A' for Active; 'I' for Inactive)
REMARK    1  A    between atoms: C_2  and  C_3
REMARK    2  A    between atoms: C_3  and  N_4
REMARK    3  A    between atoms: C_7  and  C_8
REMARK    4  A    between atoms: N_17  and  C_18
REMARK                            x       y       z     vdW  Elec       q    Type
REMARK                         _______ _______ _______ _____ _____    ______ ____
ROOT
ATOM      1  N   UNL     1       9.615  10.473  18.716  0.00  0.00    +0.000 NA
ATOM      2  C   UNL     1      10.588  11.136  17.844  0.00  0.00    +0.000 C 
ATOM      3  C   UNL     1      11.820  11.648  18.592  0.00  0.00    +0.000 C 
ATOM      4  C   UNL     1      11.427  12.621  19.726  0.00  0.00    +0.000 C 
ATOM      5  C   UNL     1      10.499  11.828  20.657  0.00  0.00    +0.000 C 
ATOM      6  C   UNL     1       9.290  11.200  19.944  0.00  0.00    +0.000 C 
ENDROOT
BRANCH   4   7
ATOM      7  C   UNL     1      11.006  14.002  19.211  0.00  0.00    +0.000 A 
ATOM      8  C   UNL     1      11.365  14.375  17.893  0.00  0.00    +0.000 A 
ATOM      9  C   UNL     1      10.999  15.610  17.359  0.00  0.00    +0.000 A 
ATOM     10  C   UNL     1      10.259  16.495  18.120  0.00  0.00    +0.000 A 
ATOM     11  C   UNL     1       9.931  16.144  19.422  0.00  0.00    +0.000 A 
ATOM     12  N   UNL     1      10.319  14.933  19.994  0.00  0.00    +0.000 N 
ATOM     13  O   UNL     1      10.053  14.769  21.224  0.00  0.00    +0.000 OA
ENDBRANCH   4   7
BRANCH   1  14
ATOM     14  C   UNL     1       8.387  10.039  17.998  0.00  0.00    +0.000 C 
BRANCH  14  16
ATOM     15  O   UNL     1       8.614   7.769  18.831  0.00  0.00    +0.000 OA
ATOM     16  C   UNL     1       8.089   8.514  18.007  0.00  0.00    +0.000 C 
ATOM     17  N   UNL     1       7.145   8.107  17.071  0.00  0.00    +0.000 N 
ATOM     18  H   UNL     1       6.948   8.743  16.309  0.00  0.00    +0.000 HD
BRANCH  17  19
ATOM     19  C   UNL     1       6.521   6.834  17.009  0.00  0.00    +0.000 A 
ATOM     20  C   UNL     1       7.201   5.655  16.670  0.00  0.00    +0.000 A 
ATOM     21  C   UNL     1       6.532   4.427  16.617  0.00  0.00    +0.000 A 
ATOM     22  C   UNL     1       5.180   4.371  16.913  0.00  0.00    +0.000 A 
ATOM     23  F   UNL     1       4.536   3.196  16.850  0.00  0.00    +0.000 F 
ATOM     24  C   UNL     1       4.488   5.516  17.278  0.00  0.00    +0.000 A 
ATOM     25  C   UNL     1       5.159   6.748  17.333  0.00  0.00    +0.000 A 
ENDBRANCH  17  19
ENDBRANCH  14  16
ENDBRANCH   1  14
TORSDOF 4
ENDMDL
