MODEL 1
REMARK VINA RESULT:      -7.4      0.000      0.000
REMARK  Name = 
REMARK  12 active torsions:
REMARK  status: ('A' for Active; 'I' for Inactive)
REMARK    1  A    between atoms: C_1  and  C_2
REMARK    2  A    between atoms: C_2  and  C_3
REMARK    3  A    between atoms: C_2  and  C_4
REMARK    4  A    between atoms: C_4  and  C_5
REMARK    5  A    between atoms: C_5  and  C_6
REMARK    6  A    between atoms: C_5  and  N_24
REMARK    7  A    between atoms: C_8  and  O_9
REMARK    8  A    between atoms: C_12  and  O_13
REMARK    9  A    between atoms: N_24  and  C_25
REMARK   10  A    between atoms: N_24  and  C_28
REMARK   11  A    between atoms: C_25  and  C_26
REMARK   12  A    between atoms: C_28  and  C_29
REMARK                            x       y       z     vdW  Elec       q    Type
REMARK                         _______ _______ _______ _____ _____    ______ ____
ROOT
ATOM      1  C   UNL     1       2.608   7.389  19.129  0.00  0.00    +0.000 A 
ATOM      2  C   UNL     1       2.653   8.422  18.186  0.00  0.00    +0.000 A 
ATOM      3  C   UNL     1       1.777   9.499  18.240  0.00  0.00    +0.000 A 
ATOM      4  C   UNL     1       0.926   9.677  19.325  0.00  0.00    +0.000 A 
ATOM      5  C   UNL     1       1.029   8.796  20.402  0.00  0.00    +0.000 A 
ATOM      6  C   UNL     1       1.828   7.628  20.283  0.00  0.00    +0.000 A 
ATOM      7  C   UNL     1       0.339   9.144  21.670  0.00  0.00    +0.000 C 
ATOM      8  O   UNL     1       0.478   8.418  22.650  0.00  0.00    +0.000 OA
ATOM      9  C   UNL     1      -0.473  10.381  21.751  0.00  0.00    +0.000 A 
ATOM     10  C   UNL     1      -1.020  10.796  22.972  0.00  0.00    +0.000 A 
ATOM     11  C   UNL     1      -1.826  11.941  23.026  0.00  0.00    +0.000 A 
ATOM     12  C   UNL     1      -2.100  12.666  21.865  0.00  0.00    +0.000 A 
ATOM     13  C   UNL     1      -1.537  12.264  20.653  0.00  0.00    +0.000 A 
ATOM     14  C   UNL     1      -0.712  11.133  20.603  0.00  0.00    +0.000 A 
ATOM     15  C   UNL     1      -0.100  10.740  19.326  0.00  0.00    +0.000 C 
ATOM     16  O   UNL     1      -0.481  11.270  18.289  0.00  0.00    +0.000 OA
ENDROOT
BRANCH   3  17
ATOM     17  O   UNL     1       1.831  10.382  17.202  0.00  0.00    +0.000 OA
ATOM     18  H   UNL     1       1.813   9.856  16.382  0.00  0.00    +0.000 HD
ENDBRANCH   3  17
BRANCH   6  19
ATOM     19  O   UNL     1       1.888   6.710  21.303  0.00  0.00    +0.000 OA
ATOM     20  H   UNL     1       1.146   6.072  21.198  0.00  0.00    +0.000 HD
ENDBRANCH   6  19
BRANCH   1  21
ATOM     21  C   UNL     1       3.429   6.097  18.893  0.00  0.00    +0.000 C 
BRANCH  21  22
ATOM     22  C   UNL     1       4.172   6.140  17.522  0.00  0.00    +0.000 C 
BRANCH  22  24
ATOM     23  C   UNL     1       5.755   4.424  16.488  0.00  0.00    +0.000 C 
ATOM     24  C   UNL     1       5.609   5.566  17.495  0.00  0.00    +0.000 C 
ATOM     25  C   UNL     1       6.597   6.689  17.139  0.00  0.00    +0.000 C 
ENDBRANCH  22  24
ENDBRANCH  21  22
BRANCH  21  26
ATOM     26  N   UNL     1       2.631   4.811  19.114  0.00  0.00    +0.000 NA
BRANCH  26  27
ATOM     27  C   UNL     1       2.026   4.245  17.878  0.00  0.00    +0.000 C 
BRANCH  27  28
ATOM     28  C   UNL     1       2.063   2.719  17.670  0.00  0.00    +0.000 C 
ATOM     29 CL   UNL     1       0.656   1.967  18.485  0.00  0.00    +0.000 Cl
ENDBRANCH  27  28
ENDBRANCH  26  27
BRANCH  26  30
ATOM     30  C   UNL     1       3.422   3.751  19.799  0.00  0.00    +0.000 C 
BRANCH  30  31
ATOM     31  C   UNL     1       2.905   3.264  21.156  0.00  0.00    +0.000 C 
ATOM     32 CL   UNL     1       1.128   3.463  21.230  0.00  0.00    +0.000 Cl
ENDBRANCH  30  31
ENDBRANCH  26  30
ENDBRANCH  21  26
ENDBRANCH   1  21
TORSDOF 10
ENDMDL
MODEL 2
REMARK VINA RESULT:      -7.2      1.086      1.257
REMARK  Name = 
REMARK  12 active torsions:
REMARK  status: ('A' for Active; 'I' for Inactive)
REMARK    1  A    between atoms: C_1  and  C_2
REMARK    2  A    between atoms: C_2  and  C_3
REMARK    3  A    between atoms: C_2  and  C_4
REMARK    4  A    between atoms: C_4  and  C_5
REMARK    5  A    between atoms: C_5  and  C_6
REMARK    6  A    between atoms: C_5  and  N_24
REMARK    7  A    between atoms: C_8  and  O_9
REMARK    8  A    between atoms: C_12  and  O_13
REMARK    9  A    between atoms: N_24  and  C_25
REMARK   10  A    between atoms: N_24  and  C_28
REMARK   11  A    between atoms: C_25  and  C_26
REMARK   12  A    between atoms: C_28  and  C_29
REMARK                            x       y       z     vdW  Elec       q    Type
REMARK                         _______ _______ _______ _____ _____    ______ ____
ROOT
ATOM      1  C   UNL     1       2.452   7.582  19.063  0.00  0.00    +0.000 A 
ATOM      2  C   UNL     1       2.552   8.643  18.158  0.00  0.00    +0.000 A 
ATOM      3  C   UNL     1       1.733   9.763  18.251  0.00  0.00    +0.000 A 
ATOM      4  C   UNL     1       0.891   9.946  19.342  0.00  0.00    +0.000 A 
ATOM      5  C   UNL     1       0.947   9.023  20.387  0.00  0.00    +0.000 A 
ATOM      6  C   UNL     1       1.684   7.819  20.226  0.00  0.00    +0.000 A 
ATOM      7  C   UNL     1       0.275   9.361  21.667  0.00  0.00    +0.000 C 
ATOM      8  O   UNL     1       0.375   8.594  22.621  0.00  0.00    +0.000 OA
ATOM      9  C   UNL     1      -0.471  10.635  21.793  0.00  0.00    +0.000 A 
ATOM     10  C   UNL     1      -0.997  11.035  23.028  0.00  0.00    +0.000 A 
ATOM     11  C   UNL     1      -1.742  12.218  23.123  0.00  0.00    +0.000 A 
ATOM     12  C   UNL     1      -1.977  12.996  21.989  0.00  0.00    +0.000 A 
ATOM     13  C   UNL     1      -1.435  12.609  20.763  0.00  0.00    +0.000 A 
ATOM     14  C   UNL     1      -0.670  11.439  20.672  0.00  0.00    +0.000 A 
ATOM     15  C   UNL     1      -0.077  11.060  19.382  0.00  0.00    +0.000 C 
ATOM     16  O   UNL     1      -0.429  11.646  18.365  0.00  0.00    +0.000 OA
ENDROOT
BRANCH   3  17
ATOM     17  O   UNL     1       1.835  10.678  17.245  0.00  0.00    +0.000 OA
ATOM     18  H   UNL     1       1.271  11.433  17.490  0.00  0.00    +0.000 HD
ENDBRANCH   3  17
BRANCH   6  19
ATOM     19  O   UNL     1       1.695   6.864  21.213  0.00  0.00    +0.000 OA
ATOM     20  H   UNL     1       0.903   6.991  21.783  0.00  0.00    +0.000 HD
ENDBRANCH   6  19
BRANCH   1  21
ATOM     21  C   UNL     1       3.205   6.258  18.781  0.00  0.00    +0.000 C 
BRANCH  21  22
ATOM     22  C   UNL     1       4.153   6.396  17.550  0.00  0.00    +0.000 C 
BRANCH  22  24
ATOM     23  C   UNL     1       6.605   7.103  17.474  0.00  0.00    +0.000 C 
ATOM     24  C   UNL     1       5.625   5.964  17.757  0.00  0.00    +0.000 C 
ATOM     25  C   UNL     1       5.812   5.477  19.203  0.00  0.00    +0.000 C 
ENDBRANCH  22  24
ENDBRANCH  21  22
BRANCH  21  26
ATOM     26  N   UNL     1       2.292   5.032  18.713  0.00  0.00    +0.000 NA
BRANCH  26  27
ATOM     27  C   UNL     1       2.440   4.227  17.470  0.00  0.00    +0.000 C 
BRANCH  27  28
ATOM     28  C   UNL     1       3.286   2.940  17.521  0.00  0.00    +0.000 C 
ATOM     29 CL   UNL     1       4.690   3.100  16.421  0.00  0.00    +0.000 Cl
ENDBRANCH  27  28
ENDBRANCH  26  27
BRANCH  26  30
ATOM     30  C   UNL     1       2.437   4.137  19.895  0.00  0.00    +0.000 C 
BRANCH  30  31
ATOM     31  C   UNL     1       1.154   3.531  20.470  0.00  0.00    +0.000 C 
ATOM     32 CL   UNL     1       1.547   2.541  21.907  0.00  0.00    +0.000 Cl
ENDBRANCH  30  31
ENDBRANCH  26  30
ENDBRANCH  21  26
ENDBRANCH   1  21
TORSDOF 10
ENDMDL
MODEL 3
REMARK VINA RESULT:      -7.2      1.066      1.126
REMARK  Name = 
REMARK  12 active torsions:
REMARK  status: ('A' for Active; 'I' for Inactive)
REMARK    1  A    between atoms: C_1  and  C_2
REMARK    2  A    between atoms: C_2  and  C_3
REMARK    3  A    between atoms: C_2  and  C_4
REMARK    4  A    between atoms: C_4  and  C_5
REMARK    5  A    between atoms: C_5  and  C_6
REMARK    6  A    between atoms: C_5  and  N_24
REMARK    7  A    between atoms: C_8  and  O_9
REMARK    8  A    between atoms: C_12  and  O_13
REMARK    9  A    between atoms: N_24  and  C_25
REMARK   10  A    between atoms: N_24  and  C_28
REMARK   11  A    between atoms: C_25  and  C_26
REMARK   12  A    between atoms: C_28  and  C_29
REMARK                            x       y       z     vdW  Elec       q    Type
REMARK                         _______ _______ _______ _____ _____    ______ ____
ROOT
ATOM      1  C   UNL     1       2.877   7.128  18.837  0.00  0.00    +0.000 A 
ATOM      2  C   UNL     1       2.906   8.217  17.959  0.00  0.00    +0.000 A 
ATOM      3  C   UNL     1       2.024   9.283  18.088  0.00  0.00    +0.000 A 
ATOM      4  C   UNL     1       1.183   9.388  19.191  0.00  0.00    +0.000 A 
ATOM      5  C   UNL     1       1.302   8.443  20.210  0.00  0.00    +0.000 A 
ATOM      6  C   UNL     1       2.107   7.290  20.011  0.00  0.00    +0.000 A 
ATOM      7  C   UNL     1       0.623   8.708  21.504  0.00  0.00    +0.000 C 
ATOM      8  O   UNL     1       0.777   7.924  22.436  0.00  0.00    +0.000 OA
ATOM      9  C   UNL     1      -0.195   9.933  21.669  0.00  0.00    +0.000 A 
ATOM     10  C   UNL     1      -0.732  10.269  22.918  0.00  0.00    +0.000 A 
ATOM     11  C   UNL     1      -1.544  11.402  23.050  0.00  0.00    +0.000 A 
ATOM     12  C   UNL     1      -1.835  12.195  21.939  0.00  0.00    +0.000 A 
ATOM     13  C   UNL     1      -1.282  11.872  20.699  0.00  0.00    +0.000 A 
ATOM     14  C   UNL     1      -0.451  10.752  20.571  0.00  0.00    +0.000 A 
ATOM     15  C   UNL     1       0.151  10.442  19.267  0.00  0.00    +0.000 C 
ATOM     16  O   UNL     1      -0.244  11.032  18.269  0.00  0.00    +0.000 OA
ENDROOT
BRANCH   3  17
ATOM     17  O   UNL     1       2.062  10.228  17.106  0.00  0.00    +0.000 OA
ATOM     18  H   UNL     1       1.771   9.794  16.284  0.00  0.00    +0.000 HD
ENDBRANCH   3  17
BRANCH   6  19
ATOM     19  O   UNL     1       2.184   6.312  20.973  0.00  0.00    +0.000 OA
ATOM     20  H   UNL     1       2.035   5.438  20.546  0.00  0.00    +0.000 HD
ENDBRANCH   6  19
BRANCH   1  21
ATOM     21  C   UNL     1       3.704   5.859  18.514  0.00  0.00    +0.000 C 
BRANCH  21  22
ATOM     22  C   UNL     1       4.178   5.854  17.029  0.00  0.00    +0.000 C 
BRANCH  22  24
ATOM     23  C   UNL     1       6.001   5.341  15.316  0.00  0.00    +0.000 C 
ATOM     24  C   UNL     1       5.690   5.627  16.786  0.00  0.00    +0.000 C 
ATOM     25  C   UNL     1       6.470   6.871  17.240  0.00  0.00    +0.000 C 
ENDBRANCH  22  24
ENDBRANCH  21  22
BRANCH  21  26
ATOM     26  N   UNL     1       3.024   4.556  18.941  0.00  0.00    +0.000 NA
BRANCH  26  27
ATOM     27  C   UNL     1       1.980   4.072  17.998  0.00  0.00    +0.000 C 
BRANCH  27  28
ATOM     28  C   UNL     1       0.916   3.086  18.516  0.00  0.00    +0.000 C 
ATOM     29 CL   UNL     1       0.548   3.446  20.232  0.00  0.00    +0.000 Cl
ENDBRANCH  27  28
ENDBRANCH  26  27
BRANCH  26  30
ATOM     30  C   UNL     1       3.995   3.456  19.200  0.00  0.00    +0.000 C 
BRANCH  30  31
ATOM     31  C   UNL     1       3.894   2.744  20.552  0.00  0.00    +0.000 C 
ATOM     32 CL   UNL     1       5.057   1.385  20.606  0.00  0.00    +0.000 Cl
ENDBRANCH  30  31
ENDBRANCH  26  30
ENDBRANCH  21  26
ENDBRANCH   1  21
TORSDOF 10
ENDMDL
MODEL 4
REMARK VINA RESULT:      -7.1      2.596      4.669
REMARK  Name = 
REMARK  12 active torsions:
REMARK  status: ('A' for Active; 'I' for Inactive)
REMARK    1  A    between atoms: C_1  and  C_2
REMARK    2  A    between atoms: C_2  and  C_3
REMARK    3  A    between atoms: C_2  and  C_4
REMARK    4  A    between atoms: C_4  and  C_5
REMARK    5  A    between atoms: C_5  and  C_6
REMARK    6  A    between atoms: C_5  and  N_24
REMARK    7  A    between atoms: C_8  and  O_9
REMARK    8  A    between atoms: C_12  and  O_13
REMARK    9  A    between atoms: N_24  and  C_25
REMARK   10  A    between atoms: N_24  and  C_28
REMARK   11  A    between atoms: C_25  and  C_26
REMARK   12  A    between atoms: C_28  and  C_29
REMARK                            x       y       z     vdW  Elec       q    Type
REMARK                         _______ _______ _______ _____ _____    ______ ____
ROOT
ATOM      1  C   UNL     1       3.389   6.086  18.234  0.00  0.00    +0.000 A 
ATOM      2  C   UNL     1       2.791   5.576  19.391  0.00  0.00    +0.000 A 
ATOM      3  C   UNL     1       2.114   6.396  20.286  0.00  0.00    +0.000 A 
ATOM      4  C   UNL     1       1.867   7.732  19.988  0.00  0.00    +0.000 A 
ATOM      5  C   UNL     1       2.238   8.212  18.732  0.00  0.00    +0.000 A 
ATOM      6  C   UNL     1       3.042   7.409  17.880  0.00  0.00    +0.000 A 
ATOM      7  C   UNL     1       1.725   9.537  18.302  0.00  0.00    +0.000 C 
ATOM      8  O   UNL     1       1.981   9.944  17.171  0.00  0.00    +0.000 OA
ATOM      9  C   UNL     1       0.877  10.333  19.220  0.00  0.00    +0.000 A 
ATOM     10  C   UNL     1       0.274  11.521  18.787  0.00  0.00    +0.000 A 
ATOM     11  C   UNL     1      -0.485  12.288  19.679  0.00  0.00    +0.000 A 
ATOM     12  C   UNL     1      -0.633  11.885  21.007  0.00  0.00    +0.000 A 
ATOM     13  C   UNL     1      -0.049  10.691  21.434  0.00  0.00    +0.000 A 
ATOM     14  C   UNL     1       0.689   9.911  20.535  0.00  0.00    +0.000 A 
ATOM     15  C   UNL     1       1.271   8.640  20.989  0.00  0.00    +0.000 C 
ATOM     16  O   UNL     1       1.287   8.381  22.186  0.00  0.00    +0.000 OA
ENDROOT
BRANCH   3  17
ATOM     17  O   UNL     1       1.677   5.811  21.438  0.00  0.00    +0.000 OA
ATOM     18  H   UNL     1       2.084   6.298  22.176  0.00  0.00    +0.000 HD
ENDBRANCH   3  17
BRANCH   6  19
ATOM     19  O   UNL     1       3.478   7.889  16.669  0.00  0.00    +0.000 OA
ATOM     20  H   UNL     1       3.239   8.842  16.602  0.00  0.00    +0.000 HD
ENDBRANCH   6  19
BRANCH   1  21
ATOM     21  C   UNL     1       4.335   5.188  17.398  0.00  0.00    +0.000 C 
BRANCH  21  22
ATOM     22  C   UNL     1       4.622   3.838  18.123  0.00  0.00    +0.000 C 
BRANCH  22  24
ATOM     23  C   UNL     1       3.570   1.589  18.722  0.00  0.00    +0.000 C 
ATOM     24  C   UNL     1       3.855   2.597  17.606  0.00  0.00    +0.000 C 
ATOM     25  C   UNL     1       2.528   3.047  16.974  0.00  0.00    +0.000 C 
ENDBRANCH  22  24
ENDBRANCH  21  22
BRANCH  21  26
ATOM     26  N   UNL     1       5.599   5.903  16.918  0.00  0.00    +0.000 NA
BRANCH  26  27
ATOM     27  C   UNL     1       6.852   5.437  17.571  0.00  0.00    +0.000 C 
BRANCH  27  28
ATOM     28  C   UNL     1       7.651   6.433  18.433  0.00  0.00    +0.000 C 
ATOM     29 CL   UNL     1       7.775   8.002  17.580  0.00  0.00    +0.000 Cl
ENDBRANCH  27  28
ENDBRANCH  26  27
BRANCH  26  30
ATOM     30  C   UNL     1       5.769   5.845  15.439  0.00  0.00    +0.000 C 
BRANCH  30  31
ATOM     31  C   UNL     1       6.825   4.876  14.898  0.00  0.00    +0.000 C 
ATOM     32 CL   UNL     1       6.066   3.746  13.737  0.00  0.00    +0.000 Cl
ENDBRANCH  30  31
ENDBRANCH  26  30
ENDBRANCH  21  26
ENDBRANCH   1  21
TORSDOF 10
ENDMDL
MODEL 5
REMARK VINA RESULT:      -7.0      2.214      3.401
REMARK  Name = 
REMARK  12 active torsions:
REMARK  status: ('A' for Active; 'I' for Inactive)
REMARK    1  A    between atoms: C_1  and  C_2
REMARK    2  A    between atoms: C_2  and  C_3
REMARK    3  A    between atoms: C_2  and  C_4
REMARK    4  A    between atoms: C_4  and  C_5
REMARK    5  A    between atoms: C_5  and  C_6
REMARK    6  A    between atoms: C_5  and  N_24
REMARK    7  A    between atoms: C_8  and  O_9
REMARK    8  A    between atoms: C_12  and  O_13
REMARK    9  A    between atoms: N_24  and  C_25
REMARK   10  A    between atoms: N_24  and  C_28
REMARK   11  A    between atoms: C_25  and  C_26
REMARK   12  A    between atoms: C_28  and  C_29
REMARK                            x       y       z     vdW  Elec       q    Type
REMARK                         _______ _______ _______ _____ _____    ______ ____
ROOT
ATOM      1  C   UNL     1       2.567   7.209  18.829  0.00  0.00    +0.000 A 
ATOM      2  C   UNL     1       2.715   8.304  17.972  0.00  0.00    +0.000 A 
ATOM      3  C   UNL     1       1.947   9.453  18.115  0.00  0.00    +0.000 A 
ATOM      4  C   UNL     1       1.112   9.624  19.214  0.00  0.00    +0.000 A 
ATOM      5  C   UNL     1       1.125   8.654  20.216  0.00  0.00    +0.000 A 
ATOM      6  C   UNL     1       1.808   7.428  20.001  0.00  0.00    +0.000 A 
ATOM      7  C   UNL     1       0.465   8.965  21.510  0.00  0.00    +0.000 C 
ATOM      8  O   UNL     1       0.530   8.152  22.429  0.00  0.00    +0.000 OA
ATOM      9  C   UNL     1      -0.224  10.263  21.692  0.00  0.00    +0.000 A 
ATOM     10  C   UNL     1      -0.735  10.631  22.944  0.00  0.00    +0.000 A 
ATOM     11  C   UNL     1      -1.427  11.839  23.092  0.00  0.00    +0.000 A 
ATOM     12  C   UNL     1      -1.625  12.677  21.994  0.00  0.00    +0.000 A 
ATOM     13  C   UNL     1      -1.098  12.322  20.751  0.00  0.00    +0.000 A 
ATOM     14  C   UNL     1      -0.385  11.124  20.609  0.00  0.00    +0.000 A 
ATOM     15  C   UNL     1       0.193  10.778  19.303  0.00  0.00    +0.000 C 
ATOM     16  O   UNL     1      -0.131  11.423  18.313  0.00  0.00    +0.000 OA
ENDROOT
BRANCH   3  17
ATOM     17  O   UNL     1       2.090  10.407  17.150  0.00  0.00    +0.000 OA
ATOM     18  H   UNL     1       2.976  10.287  16.763  0.00  0.00    +0.000 HD
ENDBRANCH   3  17
BRANCH   6  19
ATOM     19  O   UNL     1       1.776   6.430  20.945  0.00  0.00    +0.000 OA
ATOM     20  H   UNL     1       2.698   6.139  21.128  0.00  0.00    +0.000 HD
ENDBRANCH   6  19
BRANCH   1  21
ATOM     21  C   UNL     1       3.262   5.867  18.488  0.00  0.00    +0.000 C 
BRANCH  21  22
ATOM     22  C   UNL     1       3.033   4.809  19.610  0.00  0.00    +0.000 C 
BRANCH  22  24
ATOM     23  C   UNL     1       0.952   3.365  19.936  0.00  0.00    +0.000 C 
ATOM     24  C   UNL     1       2.285   3.516  19.201  0.00  0.00    +0.000 C 
ATOM     25  C   UNL     1       2.034   3.534  17.685  0.00  0.00    +0.000 C 
ENDBRANCH  22  24
ENDBRANCH  21  22
BRANCH  21  26
ATOM     26  N   UNL     1       4.730   6.019  18.084  0.00  0.00    +0.000 NA
BRANCH  26  27
ATOM     27  C   UNL     1       5.653   5.066  18.759  0.00  0.00    +0.000 C 
BRANCH  27  28
ATOM     28  C   UNL     1       6.948   5.613  19.388  0.00  0.00    +0.000 C 
ATOM     29 CL   UNL     1       7.743   6.740  18.245  0.00  0.00    +0.000 Cl
ENDBRANCH  27  28
ENDBRANCH  26  27
BRANCH  26  30
ATOM     30  C   UNL     1       4.935   5.935  16.611  0.00  0.00    +0.000 C 
BRANCH  30  31
ATOM     31  C   UNL     1       5.277   4.558  16.034  0.00  0.00    +0.000 C 
ATOM     32 CL   UNL     1       6.777   4.667  15.064  0.00  0.00    +0.000 Cl
ENDBRANCH  30  31
ENDBRANCH  26  30
ENDBRANCH  21  26
ENDBRANCH   1  21
TORSDOF 10
ENDMDL
MODEL 6
REMARK VINA RESULT:      -6.9      1.159      1.744
REMARK  Name = 
REMARK  12 active torsions:
REMARK  status: ('A' for Active; 'I' for Inactive)
REMARK    1  A    between atoms: C_1  and  C_2
REMARK    2  A    between atoms: C_2  and  C_3
REMARK    3  A    between atoms: C_2  and  C_4
REMARK    4  A    between atoms: C_4  and  C_5
REMARK    5  A    between atoms: C_5  and  C_6
REMARK    6  A    between atoms: C_5  and  N_24
REMARK    7  A    between atoms: C_8  and  O_9
REMARK    8  A    between atoms: C_12  and  O_13
REMARK    9  A    between atoms: N_24  and  C_25
REMARK   10  A    between atoms: N_24  and  C_28
REMARK   11  A    between atoms: C_25  and  C_26
REMARK   12  A    between atoms: C_28  and  C_29
REMARK                            x       y       z     vdW  Elec       q    Type
REMARK                         _______ _______ _______ _____ _____    ______ ____
ROOT
ATOM      1  C   UNL     1       3.208   6.978  18.518  0.00  0.00    +0.000 A 
ATOM      2  C   UNL     1       3.160   8.133  17.730  0.00  0.00    +0.000 A 
ATOM      3  C   UNL     1       2.245   9.148  17.978  0.00  0.00    +0.000 A 
ATOM      4  C   UNL     1       1.446   9.131  19.116  0.00  0.00    +0.000 A 
ATOM      5  C   UNL     1       1.642   8.114  20.051  0.00  0.00    +0.000 A 
ATOM      6  C   UNL     1       2.481   7.014  19.729  0.00  0.00    +0.000 A 
ATOM      7  C   UNL     1       1.006   8.248  21.385  0.00  0.00    +0.000 C 
ATOM      8  O   UNL     1       1.227   7.399  22.245  0.00  0.00    +0.000 OA
ATOM      9  C   UNL     1       0.150   9.421  21.680  0.00  0.00    +0.000 A 
ATOM     10  C   UNL     1      -0.349   9.635  22.971  0.00  0.00    +0.000 A 
ATOM     11  C   UNL     1      -1.197  10.720  23.224  0.00  0.00    +0.000 A 
ATOM     12  C   UNL     1      -1.562  11.586  22.193  0.00  0.00    +0.000 A 
ATOM     13  C   UNL     1      -1.048  11.385  20.910  0.00  0.00    +0.000 A 
ATOM     14  C   UNL     1      -0.181  10.314  20.662  0.00  0.00    +0.000 A 
ATOM     15  C   UNL     1       0.379  10.133  19.315  0.00  0.00    +0.000 C 
ATOM     16  O   UNL     1      -0.078  10.783  18.383  0.00  0.00    +0.000 OA
ENDROOT
BRANCH   3  17
ATOM     17  O   UNL     1       2.207  10.169  17.074  0.00  0.00    +0.000 OA
ATOM     18  H   UNL     1       2.609  10.944  17.506  0.00  0.00    +0.000 HD
ENDBRANCH   3  17
BRANCH   6  19
ATOM     19  O   UNL     1       2.634   5.967  20.605  0.00  0.00    +0.000 OA
ATOM     20  H   UNL     1       2.664   5.128  20.091  0.00  0.00    +0.000 HD
ENDBRANCH   6  19
BRANCH   1  21
ATOM     21  C   UNL     1       4.069   5.773  18.063  0.00  0.00    +0.000 C 
BRANCH  21  22
ATOM     22  C   UNL     1       5.198   6.220  17.085  0.00  0.00    +0.000 C 
BRANCH  22  24
ATOM     23  C   UNL     1       7.460   7.352  17.437  0.00  0.00    +0.000 C 
ATOM     24  C   UNL     1       6.653   6.061  17.589  0.00  0.00    +0.000 C 
ATOM     25  C   UNL     1       6.636   5.640  19.067  0.00  0.00    +0.000 C 
ENDBRANCH  22  24
ENDBRANCH  21  22
BRANCH  21  26
ATOM     26  N   UNL     1       3.248   4.590  17.546  0.00  0.00    +0.000 NA
BRANCH  26  27
ATOM     27  C   UNL     1       3.714   3.262  18.029  0.00  0.00    +0.000 C 
BRANCH  27  28
ATOM     28  C   UNL     1       4.628   3.206  19.268  0.00  0.00    +0.000 C 
ATOM     29 CL   UNL     1       3.728   2.506  20.648  0.00  0.00    +0.000 Cl
ENDBRANCH  27  28
ENDBRANCH  26  27
BRANCH  26  30
ATOM     30  C   UNL     1       1.792   4.728  17.831  0.00  0.00    +0.000 C 
BRANCH  30  31
ATOM     31  C   UNL     1       1.055   3.474  18.312  0.00  0.00    +0.000 C 
ATOM     32 CL   UNL     1       0.708   3.614  20.061  0.00  0.00    +0.000 Cl
ENDBRANCH  30  31
ENDBRANCH  26  30
ENDBRANCH  21  26
ENDBRANCH   1  21
TORSDOF 10
ENDMDL
MODEL 7
REMARK VINA RESULT:      -6.8      1.847      2.942
REMARK  Name = 
REMARK  12 active torsions:
REMARK  status: ('A' for Active; 'I' for Inactive)
REMARK    1  A    between atoms: C_1  and  C_2
REMARK    2  A    between atoms: C_2  and  C_3
REMARK    3  A    between atoms: C_2  and  C_4
REMARK    4  A    between atoms: C_4  and  C_5
REMARK    5  A    between atoms: C_5  and  C_6
REMARK    6  A    between atoms: C_5  and  N_24
REMARK    7  A    between atoms: C_8  and  O_9
REMARK    8  A    between atoms: C_12  and  O_13
REMARK    9  A    between atoms: N_24  and  C_25
REMARK   10  A    between atoms: N_24  and  C_28
REMARK   11  A    between atoms: C_25  and  C_26
REMARK   12  A    between atoms: C_28  and  C_29
REMARK                            x       y       z     vdW  Elec       q    Type
REMARK                         _______ _______ _______ _____ _____    ______ ____
ROOT
ATOM      1  C   UNL     1       2.343   7.545  18.786  0.00  0.00    +0.000 A 
ATOM      2  C   UNL     1       2.557   8.656  17.965  0.00  0.00    +0.000 A 
ATOM      3  C   UNL     1       1.849   9.840  18.137  0.00  0.00    +0.000 A 
ATOM      4  C   UNL     1       1.014  10.022  19.234  0.00  0.00    +0.000 A 
ATOM      5  C   UNL     1       0.966   9.022  20.206  0.00  0.00    +0.000 A 
ATOM      6  C   UNL     1       1.586   7.768  19.958  0.00  0.00    +0.000 A 
ATOM      7  C   UNL     1       0.312   9.328  21.503  0.00  0.00    +0.000 C 
ATOM      8  O   UNL     1       0.324   8.485  22.397  0.00  0.00    +0.000 OA
ATOM      9  C   UNL     1      -0.308  10.655  21.721  0.00  0.00    +0.000 A 
ATOM     10  C   UNL     1      -0.811  11.011  22.979  0.00  0.00    +0.000 A 
ATOM     11  C   UNL     1      -1.439  12.250  23.159  0.00  0.00    +0.000 A 
ATOM     12  C   UNL     1      -1.582  13.130  22.087  0.00  0.00    +0.000 A 
ATOM     13  C   UNL     1      -1.063  12.786  20.837  0.00  0.00    +0.000 A 
ATOM     14  C   UNL     1      -0.413  11.556  20.663  0.00  0.00    +0.000 A 
ATOM     15  C   UNL     1       0.158  11.219  19.352  0.00  0.00    +0.000 C 
ATOM     16  O   UNL     1      -0.122  11.911  18.380  0.00  0.00    +0.000 OA
ENDROOT
BRANCH   3  17
ATOM     17  O   UNL     1       2.053  10.813  17.204  0.00  0.00    +0.000 OA
ATOM     18  H   UNL     1       1.219  10.912  16.711  0.00  0.00    +0.000 HD
ENDBRANCH   3  17
BRANCH   6  19
ATOM     19  O   UNL     1       1.491   6.745  20.870  0.00  0.00    +0.000 OA
ATOM     20  H   UNL     1       1.045   5.980  20.440  0.00  0.00    +0.000 HD
ENDBRANCH   6  19
BRANCH   1  21
ATOM     21  C   UNL     1       2.968   6.179  18.409  0.00  0.00    +0.000 C 
BRANCH  21  22
ATOM     22  C   UNL     1       2.147   4.995  19.006  0.00  0.00    +0.000 C 
BRANCH  22  24
ATOM     23  C   UNL     1       2.574   3.460  17.011  0.00  0.00    +0.000 C 
ATOM     24  C   UNL     1       1.533   3.998  17.994  0.00  0.00    +0.000 C 
ATOM     25  C   UNL     1       0.899   2.825  18.758  0.00  0.00    +0.000 C 
ENDBRANCH  22  24
ENDBRANCH  21  22
BRANCH  21  26
ATOM     26  N   UNL     1       4.468   6.087  18.698  0.00  0.00    +0.000 NA
BRANCH  26  27
ATOM     27  C   UNL     1       4.841   5.027  19.673  0.00  0.00    +0.000 C 
BRANCH  27  28
ATOM     28  C   UNL     1       5.399   3.695  19.139  0.00  0.00    +0.000 C 
ATOM     29 CL   UNL     1       4.483   2.330  19.851  0.00  0.00    +0.000 Cl
ENDBRANCH  27  28
ENDBRANCH  26  27
BRANCH  26  30
ATOM     30  C   UNL     1       5.285   5.922  17.463  0.00  0.00    +0.000 C 
BRANCH  30  31
ATOM     31  C   UNL     1       6.331   7.003  17.172  0.00  0.00    +0.000 C 
ATOM     32 CL   UNL     1       7.747   6.775  18.243  0.00  0.00    +0.000 Cl
ENDBRANCH  30  31
ENDBRANCH  26  30
ENDBRANCH  21  26
ENDBRANCH   1  21
TORSDOF 10
ENDMDL
MODEL 8
REMARK VINA RESULT:      -6.8      1.095      1.400
REMARK  Name = 
REMARK  12 active torsions:
REMARK  status: ('A' for Active; 'I' for Inactive)
REMARK    1  A    between atoms: C_1  and  C_2
REMARK    2  A    between atoms: C_2  and  C_3
REMARK    3  A    between atoms: C_2  and  C_4
REMARK    4  A    between atoms: C_4  and  C_5
REMARK    5  A    between atoms: C_5  and  C_6
REMARK    6  A    between atoms: C_5  and  N_24
REMARK    7  A    between atoms: C_8  and  O_9
REMARK    8  A    between atoms: C_12  and  O_13
REMARK    9  A    between atoms: N_24  and  C_25
REMARK   10  A    between atoms: N_24  and  C_28
REMARK   11  A    between atoms: C_25  and  C_26
REMARK   12  A    between atoms: C_28  and  C_29
REMARK                            x       y       z     vdW  Elec       q    Type
REMARK                         _______ _______ _______ _____ _____    ______ ____
ROOT
ATOM      1  C   UNL     1       2.844   7.066  18.821  0.00  0.00    +0.000 A 
ATOM      2  C   UNL     1       2.871   8.148  17.934  0.00  0.00    +0.000 A 
ATOM      3  C   UNL     1       2.006   9.227  18.072  0.00  0.00    +0.000 A 
ATOM      4  C   UNL     1       1.187   9.351  19.188  0.00  0.00    +0.000 A 
ATOM      5  C   UNL     1       1.313   8.412  20.213  0.00  0.00    +0.000 A 
ATOM      6  C   UNL     1       2.098   7.247  20.007  0.00  0.00    +0.000 A 
ATOM      7  C   UNL     1       0.661   8.696  21.516  0.00  0.00    +0.000 C 
ATOM      8  O   UNL     1       0.822   7.917  22.452  0.00  0.00    +0.000 OA
ATOM      9  C   UNL     1      -0.136   9.933  21.687  0.00  0.00    +0.000 A 
ATOM     10  C   UNL     1      -0.646  10.285  22.944  0.00  0.00    +0.000 A 
ATOM     11  C   UNL     1      -1.440  11.431  23.082  0.00  0.00    +0.000 A 
ATOM     12  C   UNL     1      -1.741  12.219  21.971  0.00  0.00    +0.000 A 
ATOM     13  C   UNL     1      -1.215  11.880  20.723  0.00  0.00    +0.000 A 
ATOM     14  C   UNL     1      -0.402  10.748  20.589  0.00  0.00    +0.000 A 
ATOM     15  C   UNL     1       0.172  10.420  19.276  0.00  0.00    +0.000 C 
ATOM     16  O   UNL     1      -0.234  11.008  18.280  0.00  0.00    +0.000 OA
ENDROOT
BRANCH   3  17
ATOM     17  O   UNL     1       2.039  10.164  17.081  0.00  0.00    +0.000 OA
ATOM     18  H   UNL     1       2.669  10.852  17.363  0.00  0.00    +0.000 HD
ENDBRANCH   3  17
BRANCH   6  19
ATOM     19  O   UNL     1       2.179   6.275  20.975  0.00  0.00    +0.000 OA
ATOM     20  H   UNL     1       1.813   5.437  20.611  0.00  0.00    +0.000 HD
ENDBRANCH   6  19
BRANCH   1  21
ATOM     21  C   UNL     1       3.647   5.783  18.492  0.00  0.00    +0.000 C 
BRANCH  21  22
ATOM     22  C   UNL     1       5.083   6.126  17.990  0.00  0.00    +0.000 C 
BRANCH  22  24
ATOM     23  C   UNL     1       5.234   6.622  15.490  0.00  0.00    +0.000 C 
ATOM     24  C   UNL     1       5.475   5.590  16.592  0.00  0.00    +0.000 C 
ATOM     25  C   UNL     1       6.960   5.189  16.601  0.00  0.00    +0.000 C 
ENDBRANCH  22  24
ENDBRANCH  21  22
BRANCH  21  26
ATOM     26  N   UNL     1       2.901   4.805  17.582  0.00  0.00    +0.000 NA
BRANCH  26  27
ATOM     27  C   UNL     1       3.503   3.446  17.520  0.00  0.00    +0.000 C 
BRANCH  27  28
ATOM     28  C   UNL     1       4.142   2.862  18.794  0.00  0.00    +0.000 C 
ATOM     29 CL   UNL     1       3.892   1.088  18.833  0.00  0.00    +0.000 Cl
ENDBRANCH  27  28
ENDBRANCH  26  27
BRANCH  26  30
ATOM     30  C   UNL     1       1.457   4.683  17.926  0.00  0.00    +0.000 C 
BRANCH  30  31
ATOM     31  C   UNL     1       0.972   3.317  18.419  0.00  0.00    +0.000 C 
ATOM     32 CL   UNL     1       0.834   3.335  20.203  0.00  0.00    +0.000 Cl
ENDBRANCH  30  31
ENDBRANCH  26  30
ENDBRANCH  21  26
ENDBRANCH   1  21
TORSDOF 10
ENDMDL
MODEL 9
REMARK VINA RESULT:      -6.8      3.304      8.177
REMARK  Name = 
REMARK  12 active torsions:
REMARK  status: ('A' for Active; 'I' for Inactive)
REMARK    1  A    between atoms: C_1  and  C_2
REMARK    2  A    between atoms: C_2  and  C_3
REMARK    3  A    between atoms: C_2  and  C_4
REMARK    4  A    between atoms: C_4  and  C_5
REMARK    5  A    between atoms: C_5  and  C_6
REMARK    6  A    between atoms: C_5  and  N_24
REMARK    7  A    between atoms: C_8  and  O_9
REMARK    8  A    between atoms: C_12  and  O_13
REMARK    9  A    between atoms: N_24  and  C_25
REMARK   10  A    between atoms: N_24  and  C_28
REMARK   11  A    between atoms: C_25  and  C_26
REMARK   12  A    between atoms: C_28  and  C_29
REMARK                            x       y       z     vdW  Elec       q    Type
REMARK                         _______ _______ _______ _____ _____    ______ ____
ROOT
ATOM      1  C   UNL     1       1.431   8.759  19.583  0.00  0.00    +0.000 A 
ATOM      2  C   UNL     1       1.554   7.756  20.549  0.00  0.00    +0.000 A 
ATOM      3  C   UNL     1       2.116   6.520  20.253  0.00  0.00    +0.000 A 
ATOM      4  C   UNL     1       2.726   6.287  19.025  0.00  0.00    +0.000 A 
ATOM      5  C   UNL     1       2.837   7.348  18.126  0.00  0.00    +0.000 A 
ATOM      6  C   UNL     1       2.147   8.563  18.381  0.00  0.00    +0.000 A 
ATOM      7  C   UNL     1       3.730   7.188  16.950  0.00  0.00    +0.000 C 
ATOM      8  O   UNL     1       3.897   8.136  16.188  0.00  0.00    +0.000 OA
ATOM      9  C   UNL     1       4.440   5.906  16.733  0.00  0.00    +0.000 A 
ATOM     10  C   UNL     1       5.387   5.779  15.709  0.00  0.00    +0.000 A 
ATOM     11  C   UNL     1       6.016   4.548  15.484  0.00  0.00    +0.000 A 
ATOM     12  C   UNL     1       5.693   3.438  16.265  0.00  0.00    +0.000 A 
ATOM     13  C   UNL     1       4.765   3.569  17.299  0.00  0.00    +0.000 A 
ATOM     14  C   UNL     1       4.154   4.807  17.540  0.00  0.00    +0.000 A 
ATOM     15  C   UNL     1       3.203   4.940  18.653  0.00  0.00    +0.000 C 
ATOM     16  O   UNL     1       2.796   3.932  19.218  0.00  0.00    +0.000 OA
ENDROOT
BRANCH   3  17
ATOM     17  O   UNL     1       2.073   5.578  21.238  0.00  0.00    +0.000 OA
ATOM     18  H   UNL     1       1.345   5.826  21.835  0.00  0.00    +0.000 HD
ENDBRANCH   3  17
BRANCH   6  19
ATOM     19  O   UNL     1       2.185   9.595  17.475  0.00  0.00    +0.000 OA
ATOM     20  H   UNL     1       3.108   9.695  17.149  0.00  0.00    +0.000 HD
ENDBRANCH   6  19
BRANCH   1  21
ATOM     21  C   UNL     1       0.583  10.020  19.887  0.00  0.00    +0.000 C 
BRANCH  21  22
ATOM     22  C   UNL     1      -0.437   9.753  21.035  0.00  0.00    +0.000 C 
BRANCH  22  24
ATOM     23  C   UNL     1      -1.337  11.457  22.711  0.00  0.00    +0.000 C 
ATOM     24  C   UNL     1      -0.192  10.502  22.368  0.00  0.00    +0.000 C 
ATOM     25  C   UNL     1      -0.024   9.478  23.502  0.00  0.00    +0.000 C 
ENDBRANCH  22  24
ENDBRANCH  21  22
BRANCH  21  26
ATOM     26  N   UNL     1      -0.048  10.652  18.645  0.00  0.00    +0.000 NA
BRANCH  26  27
ATOM     27  C   UNL     1      -1.472  10.282  18.426  0.00  0.00    +0.000 C 
BRANCH  27  28
ATOM     28  C   UNL     1      -2.211  10.874  17.211  0.00  0.00    +0.000 C 
ATOM     29 CL   UNL     1      -3.806  11.507  17.727  0.00  0.00    +0.000 Cl
ENDBRANCH  27  28
ENDBRANCH  26  27
BRANCH  26  30
ATOM     30  C   UNL     1       0.078  12.136  18.625  0.00  0.00    +0.000 C 
BRANCH  30  31
ATOM     31  C   UNL     1       1.287  12.741  19.345  0.00  0.00    +0.000 C 
ATOM     32 CL   UNL     1       2.651  12.907  18.198  0.00  0.00    +0.000 Cl
ENDBRANCH  30  31
ENDBRANCH  26  30
ENDBRANCH  21  26
ENDBRANCH   1  21
TORSDOF 10
ENDMDL
