MODEL 1
REMARK VINA RESULT:      -7.7      0.000      0.000
REMARK  Name = 
REMARK  13 active torsions:
REMARK  status: ('A' for Active; 'I' for Inactive)
REMARK    1  A    between atoms: C_1  and  C_2
REMARK    2  A    between atoms: C_2  and  C_3
REMARK    3  A    between atoms: C_3  and  C_4
REMARK    4  A    between atoms: C_4  and  C_5
REMARK    5  A    between atoms: C_5  and  C_6
REMARK    6  A    between atoms: C_6  and  S_7
REMARK    7  A    between atoms: S_7  and  C_10
REMARK    8  A    between atoms: C_10  and  C_11
REMARK    9  A    between atoms: C_10  and  C_12
REMARK   10  A    between atoms: C_12  and  O_13
REMARK   11  A    between atoms: C_12  and  C_14
REMARK   12  A    between atoms: C_12  and  C_20
REMARK   13  A    between atoms: C_14  and  N_15
REMARK                            x       y       z     vdW  Elec       q    Type
REMARK                         _______ _______ _______ _____ _____    ______ ____
ROOT
ATOM      1  C   UNL     1       3.148   6.256  18.726  0.00  0.00    +0.000 C 
ENDROOT
BRANCH   1   2
ATOM      2  C   UNL     1       2.397   7.596  18.957  0.00  0.00    +0.000 A 
ATOM      3  C   UNL     1       2.350   8.606  17.974  0.00  0.00    +0.000 A 
ATOM      4  C   UNL     1       1.622   9.783  18.176  0.00  0.00    +0.000 A 
ATOM      5  C   UNL     1       0.946   9.983  19.379  0.00  0.00    +0.000 A 
ATOM      6  F   UNL     1       0.229  11.098  19.562  0.00  0.00    +0.000 F 
ATOM      7  C   UNL     1       0.987   9.029  20.370  0.00  0.00    +0.000 A 
ATOM      8  C   UNL     1       1.689   7.855  20.148  0.00  0.00    +0.000 A 
ATOM      9  F   UNL     1       1.624   6.940  21.123  0.00  0.00    +0.000 F 
ENDBRANCH   1   2
BRANCH   1  10
ATOM     10  C   UNL     1       4.520   6.554  17.974  0.00  0.00    +0.000 C 
ATOM     11  C   UNL     1       4.417   6.618  16.444  0.00  0.00    +0.000 C 
BRANCH  10  12
ATOM     12  S   UNL     1       5.839   5.334  18.368  0.00  0.00    +0.000 S 
ATOM     13  O   UNL     1       5.311   4.000  18.045  0.00  0.00    +0.000 OA
ATOM     14  O   UNL     1       6.414   5.594  19.662  0.00  0.00    +0.000 OA
BRANCH  12  15
ATOM     15  C   UNL     1       7.135   5.656  17.161  0.00  0.00    +0.000 C 
BRANCH  15  16
ATOM     16  C   UNL     1       7.247   4.459  16.226  0.00  0.00    +0.000 C 
BRANCH  16  17
ATOM     17  C   UNL     1       7.073   4.811  14.753  0.00  0.00    +0.000 C 
BRANCH  17  18
ATOM     18  C   UNL     1       5.933   3.973  14.167  0.00  0.00    +0.000 C 
BRANCH  18  20
ATOM     19  C   UNL     1       4.892   3.391  11.960  0.00  0.00    +0.000 C 
ATOM     20  C   UNL     1       6.196   3.578  12.720  0.00  0.00    +0.000 C 
ENDBRANCH  18  20
ENDBRANCH  17  18
ENDBRANCH  16  17
ENDBRANCH  15  16
ENDBRANCH  12  15
ENDBRANCH  10  12
ENDBRANCH   1  10
BRANCH   1  21
ATOM     21  O   UNL     1       3.478   5.728  20.019  0.00  0.00    +0.000 OA
ATOM     22  H   UNL     1       4.457   5.539  20.024  0.00  0.00    +0.000 HD
ENDBRANCH   1  21
BRANCH   1  23
ATOM     23  C   UNL     1       2.240   5.214  17.984  0.00  0.00    +0.000 C 
BRANCH  23  24
ATOM     24  N   UNL     1       1.903   4.017  18.751  0.00  0.00    +0.000 N 
ATOM     25  C   UNL     1       2.170   2.715  18.428  0.00  0.00    +0.000 A 
ATOM     26  N   UNL     1       1.571   1.918  19.301  0.00  0.00    +0.000 NA
ATOM     27  C   UNL     1       0.969   2.801  20.146  0.00  0.00    +0.000 A 
ATOM     28  N   UNL     1       1.162   4.080  19.875  0.00  0.00    +0.000 NA
ENDBRANCH  23  24
ENDBRANCH   1  23
TORSDOF 11
ENDMDL
MODEL 2
REMARK VINA RESULT:      -7.6      1.310      1.547
REMARK  Name = 
REMARK  13 active torsions:
REMARK  status: ('A' for Active; 'I' for Inactive)
REMARK    1  A    between atoms: C_1  and  C_2
REMARK    2  A    between atoms: C_2  and  C_3
REMARK    3  A    between atoms: C_3  and  C_4
REMARK    4  A    between atoms: C_4  and  C_5
REMARK    5  A    between atoms: C_5  and  C_6
REMARK    6  A    between atoms: C_6  and  S_7
REMARK    7  A    between atoms: S_7  and  C_10
REMARK    8  A    between atoms: C_10  and  C_11
REMARK    9  A    between atoms: C_10  and  C_12
REMARK   10  A    between atoms: C_12  and  O_13
REMARK   11  A    between atoms: C_12  and  C_14
REMARK   12  A    between atoms: C_12  and  C_20
REMARK   13  A    between atoms: C_14  and  N_15
REMARK                            x       y       z     vdW  Elec       q    Type
REMARK                         _______ _______ _______ _____ _____    ______ ____
ROOT
ATOM      1  C   UNL     1       3.115   5.485  18.966  0.00  0.00    +0.000 C 
ENDROOT
BRANCH   1   2
ATOM      2  C   UNL     1       2.604   6.948  18.852  0.00  0.00    +0.000 A 
ATOM      3  C   UNL     1       2.834   7.733  17.703  0.00  0.00    +0.000 A 
ATOM      4  C   UNL     1       2.318   9.028  17.593  0.00  0.00    +0.000 A 
ATOM      5  C   UNL     1       1.581   9.573  18.645  0.00  0.00    +0.000 A 
ATOM      6  F   UNL     1       1.066  10.803  18.529  0.00  0.00    +0.000 F 
ATOM      7  C   UNL     1       1.355   8.844  19.790  0.00  0.00    +0.000 A 
ATOM      8  C   UNL     1       1.847   7.553  19.877  0.00  0.00    +0.000 A 
ATOM      9  F   UNL     1       1.526   6.876  20.986  0.00  0.00    +0.000 F 
ENDBRANCH   1   2
BRANCH   1  10
ATOM     10  C   UNL     1       4.058   5.168  17.722  0.00  0.00    +0.000 C 
ATOM     11  C   UNL     1       3.678   3.911  16.927  0.00  0.00    +0.000 C 
BRANCH  10  12
ATOM     12  S   UNL     1       5.830   4.990  18.185  0.00  0.00    +0.000 S 
ATOM     13  O   UNL     1       5.904   3.968  19.239  0.00  0.00    +0.000 OA
ATOM     14  O   UNL     1       6.446   6.277  18.375  0.00  0.00    +0.000 OA
BRANCH  12  15
ATOM     15  C   UNL     1       6.609   4.260  16.736  0.00  0.00    +0.000 C 
BRANCH  15  16
ATOM     16  C   UNL     1       6.807   5.344  15.684  0.00  0.00    +0.000 C 
BRANCH  16  17
ATOM     17  C   UNL     1       5.887   5.204  14.476  0.00  0.00    +0.000 C 
BRANCH  17  18
ATOM     18  C   UNL     1       6.342   4.011  13.633  0.00  0.00    +0.000 C 
BRANCH  18  20
ATOM     19  C   UNL     1       5.788   2.446  11.752  0.00  0.00    +0.000 C 
ATOM     20  C   UNL     1       5.278   3.575  12.634  0.00  0.00    +0.000 C 
ENDBRANCH  18  20
ENDBRANCH  17  18
ENDBRANCH  16  17
ENDBRANCH  15  16
ENDBRANCH  12  15
ENDBRANCH  10  12
ENDBRANCH   1  10
BRANCH   1  21
ATOM     21  O   UNL     1       3.930   5.413  20.145  0.00  0.00    +0.000 OA
ATOM     22  H   UNL     1       3.515   4.742  20.755  0.00  0.00    +0.000 HD
ENDBRANCH   1  21
BRANCH   1  23
ATOM     23  C   UNL     1       1.926   4.475  19.124  0.00  0.00    +0.000 C 
BRANCH  23  24
ATOM     24  N   UNL     1       2.061   3.512  20.215  0.00  0.00    +0.000 N 
ATOM     25  C   UNL     1       1.237   3.350  21.294  0.00  0.00    +0.000 A 
ATOM     26  N   UNL     1       1.782   2.481  22.132  0.00  0.00    +0.000 NA
ATOM     27  C   UNL     1       2.934   2.133  21.493  0.00  0.00    +0.000 A 
ATOM     28  N   UNL     1       3.136   2.705  20.318  0.00  0.00    +0.000 NA
ENDBRANCH  23  24
ENDBRANCH   1  23
TORSDOF 11
ENDMDL
MODEL 3
REMARK VINA RESULT:      -7.2      2.708      4.192
REMARK  Name = 
REMARK  13 active torsions:
REMARK  status: ('A' for Active; 'I' for Inactive)
REMARK    1  A    between atoms: C_1  and  C_2
REMARK    2  A    between atoms: C_2  and  C_3
REMARK    3  A    between atoms: C_3  and  C_4
REMARK    4  A    between atoms: C_4  and  C_5
REMARK    5  A    between atoms: C_5  and  C_6
REMARK    6  A    between atoms: C_6  and  S_7
REMARK    7  A    between atoms: S_7  and  C_10
REMARK    8  A    between atoms: C_10  and  C_11
REMARK    9  A    between atoms: C_10  and  C_12
REMARK   10  A    between atoms: C_12  and  O_13
REMARK   11  A    between atoms: C_12  and  C_14
REMARK   12  A    between atoms: C_12  and  C_20
REMARK   13  A    between atoms: C_14  and  N_15
REMARK                            x       y       z     vdW  Elec       q    Type
REMARK                         _______ _______ _______ _____ _____    ______ ____
ROOT
ATOM      1  C   UNL     1       4.213   4.737  17.685  0.00  0.00    +0.000 C 
ENDROOT
BRANCH   1   2
ATOM      2  C   UNL     1       3.436   5.989  18.179  0.00  0.00    +0.000 A 
ATOM      3  C   UNL     1       3.084   7.042  17.309  0.00  0.00    +0.000 A 
ATOM      4  C   UNL     1       2.335   8.135  17.758  0.00  0.00    +0.000 A 
ATOM      5  C   UNL     1       1.944   8.207  19.094  0.00  0.00    +0.000 A 
ATOM      6  F   UNL     1       1.206   9.240  19.517  0.00  0.00    +0.000 F 
ATOM      7  C   UNL     1       2.288   7.208  19.977  0.00  0.00    +0.000 A 
ATOM      8  C   UNL     1       3.006   6.117  19.516  0.00  0.00    +0.000 A 
ATOM      9  F   UNL     1       3.240   5.149  20.409  0.00  0.00    +0.000 F 
ENDBRANCH   1   2
BRANCH   1  10
ATOM     10  C   UNL     1       5.186   5.167  16.499  0.00  0.00    +0.000 C 
ATOM     11  C   UNL     1       5.341   4.126  15.382  0.00  0.00    +0.000 C 
BRANCH  10  12
ATOM     12  S   UNL     1       6.883   5.587  17.074  0.00  0.00    +0.000 S 
ATOM     13  O   UNL     1       7.706   5.807  15.876  0.00  0.00    +0.000 OA
ATOM     14  O   UNL     1       7.321   4.677  18.100  0.00  0.00    +0.000 OA
BRANCH  12  15
ATOM     15  C   UNL     1       6.714   7.197  17.859  0.00  0.00    +0.000 C 
BRANCH  15  16
ATOM     16  C   UNL     1       8.101   7.745  18.165  0.00  0.00    +0.000 C 
BRANCH  16  17
ATOM     17  C   UNL     1       8.248   9.237  17.887  0.00  0.00    +0.000 C 
BRANCH  17  18
ATOM     18  C   UNL     1       9.107   9.871  18.985  0.00  0.00    +0.000 C 
BRANCH  18  20
ATOM     19  C   UNL     1      11.022  11.467  19.266  0.00  0.00    +0.000 C 
ATOM     20  C   UNL     1       9.708  11.201  18.547  0.00  0.00    +0.000 C 
ENDBRANCH  18  20
ENDBRANCH  17  18
ENDBRANCH  16  17
ENDBRANCH  15  16
ENDBRANCH  12  15
ENDBRANCH  10  12
ENDBRANCH   1  10
BRANCH   1  21
ATOM     21  O   UNL     1       5.038   4.296  18.773  0.00  0.00    +0.000 OA
ATOM     22  H   UNL     1       5.450   5.105  19.184  0.00  0.00    +0.000 HD
ENDBRANCH   1  21
BRANCH   1  23
ATOM     23  C   UNL     1       3.235   3.573  17.302  0.00  0.00    +0.000 C 
BRANCH  23  24
ATOM     24  N   UNL     1       2.414   3.058  18.395  0.00  0.00    +0.000 N 
ATOM     25  C   UNL     1       1.091   3.306  18.636  0.00  0.00    +0.000 A 
ATOM     26  N   UNL     1       0.755   2.781  19.805  0.00  0.00    +0.000 NA
ATOM     27  C   UNL     1       1.918   2.204  20.219  0.00  0.00    +0.000 A 
ATOM     28  N   UNL     1       2.943   2.318  19.391  0.00  0.00    +0.000 NA
ENDBRANCH  23  24
ENDBRANCH   1  23
TORSDOF 11
ENDMDL
MODEL 4
REMARK VINA RESULT:      -7.1      1.535      1.773
REMARK  Name = 
REMARK  13 active torsions:
REMARK  status: ('A' for Active; 'I' for Inactive)
REMARK    1  A    between atoms: C_1  and  C_2
REMARK    2  A    between atoms: C_2  and  C_3
REMARK    3  A    between atoms: C_3  and  C_4
REMARK    4  A    between atoms: C_4  and  C_5
REMARK    5  A    between atoms: C_5  and  C_6
REMARK    6  A    between atoms: C_6  and  S_7
REMARK    7  A    between atoms: S_7  and  C_10
REMARK    8  A    between atoms: C_10  and  C_11
REMARK    9  A    between atoms: C_10  and  C_12
REMARK   10  A    between atoms: C_12  and  O_13
REMARK   11  A    between atoms: C_12  and  C_14
REMARK   12  A    between atoms: C_12  and  C_20
REMARK   13  A    between atoms: C_14  and  N_15
REMARK                            x       y       z     vdW  Elec       q    Type
REMARK                         _______ _______ _______ _____ _____    ______ ____
ROOT
ATOM      1  C   UNL     1       3.334   5.431  18.657  0.00  0.00    +0.000 C 
ENDROOT
BRANCH   1   2
ATOM      2  C   UNL     1       2.700   6.844  18.777  0.00  0.00    +0.000 A 
ATOM      3  C   UNL     1       2.762   7.783  17.727  0.00  0.00    +0.000 A 
ATOM      4  C   UNL     1       2.136   9.030  17.830  0.00  0.00    +0.000 A 
ATOM      5  C   UNL     1       1.456   9.371  18.998  0.00  0.00    +0.000 A 
ATOM      6  F   UNL     1       0.836  10.554  19.086  0.00  0.00    +0.000 F 
ATOM      7  C   UNL     1       1.392   8.488  20.052  0.00  0.00    +0.000 A 
ATOM      8  C   UNL     1       1.992   7.246  19.929  0.00  0.00    +0.000 A 
ATOM      9  F   UNL     1       1.827   6.410  20.961  0.00  0.00    +0.000 F 
ENDBRANCH   1   2
BRANCH   1  10
ATOM     10  C   UNL     1       3.939   5.258  17.194  0.00  0.00    +0.000 C 
ATOM     11  C   UNL     1       3.665   3.898  16.538  0.00  0.00    +0.000 C 
BRANCH  10  12
ATOM     12  S   UNL     1       5.759   5.524  17.128  0.00  0.00    +0.000 S 
ATOM     13  O   UNL     1       6.398   4.253  17.498  0.00  0.00    +0.000 OA
ATOM     14  O   UNL     1       6.127   6.745  17.796  0.00  0.00    +0.000 OA
BRANCH  12  15
ATOM     15  C   UNL     1       6.121   5.769  15.382  0.00  0.00    +0.000 C 
BRANCH  15  16
ATOM     16  C   UNL     1       6.283   4.409  14.716  0.00  0.00    +0.000 C 
BRANCH  16  17
ATOM     17  C   UNL     1       7.051   4.457  13.400  0.00  0.00    +0.000 C 
BRANCH  17  18
ATOM     18  C   UNL     1       6.374   3.528  12.389  0.00  0.00    +0.000 C 
BRANCH  18  20
ATOM     19  C   UNL     1       4.195   3.141  11.208  0.00  0.00    +0.000 C 
ATOM     20  C   UNL     1       4.856   3.551  12.514  0.00  0.00    +0.000 C 
ENDBRANCH  18  20
ENDBRANCH  17  18
ENDBRANCH  16  17
ENDBRANCH  15  16
ENDBRANCH  12  15
ENDBRANCH  10  12
ENDBRANCH   1  10
BRANCH   1  21
ATOM     21  O   UNL     1       4.433   5.382  19.579  0.00  0.00    +0.000 OA
ATOM     22  H   UNL     1       4.063   5.143  20.474  0.00  0.00    +0.000 HD
ENDBRANCH   1  21
BRANCH   1  23
ATOM     23  C   UNL     1       2.310   4.310  19.048  0.00  0.00    +0.000 C 
BRANCH  23  24
ATOM     24  N   UNL     1       2.786   3.341  20.033  0.00  0.00    +0.000 N 
ATOM     25  C   UNL     1       2.258   3.075  21.266  0.00  0.00    +0.000 A 
ATOM     26  N   UNL     1       3.062   2.245  21.914  0.00  0.00    +0.000 NA
ATOM     27  C   UNL     1       4.057   2.026  21.009  0.00  0.00    +0.000 A 
ATOM     28  N   UNL     1       3.923   2.641  19.847  0.00  0.00    +0.000 NA
ENDBRANCH  23  24
ENDBRANCH   1  23
TORSDOF 11
ENDMDL
MODEL 5
REMARK VINA RESULT:      -7.1      2.273      3.756
REMARK  Name = 
REMARK  13 active torsions:
REMARK  status: ('A' for Active; 'I' for Inactive)
REMARK    1  A    between atoms: C_1  and  C_2
REMARK    2  A    between atoms: C_2  and  C_3
REMARK    3  A    between atoms: C_3  and  C_4
REMARK    4  A    between atoms: C_4  and  C_5
REMARK    5  A    between atoms: C_5  and  C_6
REMARK    6  A    between atoms: C_6  and  S_7
REMARK    7  A    between atoms: S_7  and  C_10
REMARK    8  A    between atoms: C_10  and  C_11
REMARK    9  A    between atoms: C_10  and  C_12
REMARK   10  A    between atoms: C_12  and  O_13
REMARK   11  A    between atoms: C_12  and  C_14
REMARK   12  A    between atoms: C_12  and  C_20
REMARK   13  A    between atoms: C_14  and  N_15
REMARK                            x       y       z     vdW  Elec       q    Type
REMARK                         _______ _______ _______ _____ _____    ______ ____
ROOT
ATOM      1  C   UNL     1       3.572   5.956  18.763  0.00  0.00    +0.000 C 
ENDROOT
BRANCH   1   2
ATOM      2  C   UNL     1       2.740   7.267  18.826  0.00  0.00    +0.000 A 
ATOM      3  C   UNL     1       2.724   8.194  17.763  0.00  0.00    +0.000 A 
ATOM      4  C   UNL     1       1.925   9.341  17.812  0.00  0.00    +0.000 A 
ATOM      5  C   UNL     1       1.143   9.595  18.938  0.00  0.00    +0.000 A 
ATOM      6  F   UNL     1       0.360  10.679  18.974  0.00  0.00    +0.000 F 
ATOM      7  C   UNL     1       1.149   8.723  20.003  0.00  0.00    +0.000 A 
ATOM      8  C   UNL     1       1.924   7.576  19.933  0.00  0.00    +0.000 A 
ATOM      9  F   UNL     1       1.824   6.737  20.970  0.00  0.00    +0.000 F 
ENDBRANCH   1   2
BRANCH   1  10
ATOM     10  C   UNL     1       4.807   6.173  17.782  0.00  0.00    +0.000 C 
ATOM     11  C   UNL     1       4.591   5.668  16.349  0.00  0.00    +0.000 C 
BRANCH  10  12
ATOM     12  S   UNL     1       6.360   5.397  18.392  0.00  0.00    +0.000 S 
ATOM     13  O   UNL     1       6.535   4.137  17.655  0.00  0.00    +0.000 OA
ATOM     14  O   UNL     1       6.415   5.411  19.830  0.00  0.00    +0.000 OA
BRANCH  12  15
ATOM     15  C   UNL     1       7.672   6.489  17.821  0.00  0.00    +0.000 C 
BRANCH  15  16
ATOM     16  C   UNL     1       7.135   7.912  17.755  0.00  0.00    +0.000 C 
BRANCH  16  17
ATOM     17  C   UNL     1       8.214   8.966  17.530  0.00  0.00    +0.000 C 
BRANCH  17  18
ATOM     18  C   UNL     1       8.832   9.348  18.878  0.00  0.00    +0.000 C 
BRANCH  18  20
ATOM     19  C   UNL     1       9.770  11.213  20.268  0.00  0.00    +0.000 C 
ATOM     20  C   UNL     1       9.423  10.752  18.862  0.00  0.00    +0.000 C 
ENDBRANCH  18  20
ENDBRANCH  17  18
ENDBRANCH  16  17
ENDBRANCH  15  16
ENDBRANCH  12  15
ENDBRANCH  10  12
ENDBRANCH   1  10
BRANCH   1  21
ATOM     21  O   UNL     1       4.107   5.732  20.076  0.00  0.00    +0.000 OA
ATOM     22  H   UNL     1       3.374   5.358  20.639  0.00  0.00    +0.000 HD
ENDBRANCH   1  21
BRANCH   1  23
ATOM     23  C   UNL     1       2.675   4.728  18.379  0.00  0.00    +0.000 C 
BRANCH  23  24
ATOM     24  N   UNL     1       2.304   3.851  19.487  0.00  0.00    +0.000 N 
ATOM     25  C   UNL     1       1.079   3.730  20.083  0.00  0.00    +0.000 A 
ATOM     26  N   UNL     1       1.187   2.947  21.145  0.00  0.00    +0.000 NA
ATOM     27  C   UNL     1       2.505   2.604  21.131  0.00  0.00    +0.000 A 
ATOM     28  N   UNL     1       3.218   3.100  20.134  0.00  0.00    +0.000 NA
ENDBRANCH  23  24
ENDBRANCH   1  23
TORSDOF 11
ENDMDL
MODEL 6
REMARK VINA RESULT:      -7.0      2.523      3.843
REMARK  Name = 
REMARK  13 active torsions:
REMARK  status: ('A' for Active; 'I' for Inactive)
REMARK    1  A    between atoms: C_1  and  C_2
REMARK    2  A    between atoms: C_2  and  C_3
REMARK    3  A    between atoms: C_3  and  C_4
REMARK    4  A    between atoms: C_4  and  C_5
REMARK    5  A    between atoms: C_5  and  C_6
REMARK    6  A    between atoms: C_6  and  S_7
REMARK    7  A    between atoms: S_7  and  C_10
REMARK    8  A    between atoms: C_10  and  C_11
REMARK    9  A    between atoms: C_10  and  C_12
REMARK   10  A    between atoms: C_12  and  O_13
REMARK   11  A    between atoms: C_12  and  C_14
REMARK   12  A    between atoms: C_12  and  C_20
REMARK   13  A    between atoms: C_14  and  N_15
REMARK                            x       y       z     vdW  Elec       q    Type
REMARK                         _______ _______ _______ _____ _____    ______ ____
ROOT
ATOM      1  C   UNL     1       4.011   5.955  18.147  0.00  0.00    +0.000 C 
ENDROOT
BRANCH   1   2
ATOM      2  C   UNL     1       3.078   7.146  18.502  0.00  0.00    +0.000 A 
ATOM      3  C   UNL     1       2.921   8.254  17.644  0.00  0.00    +0.000 A 
ATOM      4  C   UNL     1       2.034   9.290  17.951  0.00  0.00    +0.000 A 
ATOM      5  C   UNL     1       1.302   9.249  19.137  0.00  0.00    +0.000 A 
ATOM      6  F   UNL     1       0.434  10.228  19.419  0.00  0.00    +0.000 F 
ATOM      7  C   UNL     1       1.444   8.193  20.009  0.00  0.00    +0.000 A 
ATOM      8  C   UNL     1       2.306   7.159  19.682  0.00  0.00    +0.000 A 
ATOM      9  F   UNL     1       2.339   6.130  20.537  0.00  0.00    +0.000 F 
ENDBRANCH   1   2
BRANCH   1  10
ATOM     10  C   UNL     1       5.243   6.499  17.295  0.00  0.00    +0.000 C 
ATOM     11  C   UNL     1       5.041   6.464  15.774  0.00  0.00    +0.000 C 
BRANCH  10  12
ATOM     12  S   UNL     1       6.813   5.607  17.644  0.00  0.00    +0.000 S 
ATOM     13  O   UNL     1       7.407   5.245  16.349  0.00  0.00    +0.000 OA
ATOM     14  O   UNL     1       6.624   4.606  18.662  0.00  0.00    +0.000 OA
BRANCH  12  15
ATOM     15  C   UNL     1       7.899   6.855  18.353  0.00  0.00    +0.000 C 
BRANCH  15  16
ATOM     16  C   UNL     1       7.434   8.231  17.896  0.00  0.00    +0.000 C 
BRANCH  16  17
ATOM     17  C   UNL     1       8.571   9.218  17.661  0.00  0.00    +0.000 C 
BRANCH  17  18
ATOM     18  C   UNL     1       8.995   9.826  19.000  0.00  0.00    +0.000 C 
BRANCH  18  20
ATOM     19  C   UNL     1      10.479  11.513  17.883  0.00  0.00    +0.000 C 
ATOM     20  C   UNL     1       9.346  11.303  18.875  0.00  0.00    +0.000 C 
ENDBRANCH  18  20
ENDBRANCH  17  18
ENDBRANCH  16  17
ENDBRANCH  15  16
ENDBRANCH  12  15
ENDBRANCH  10  12
ENDBRANCH   1  10
BRANCH   1  21
ATOM     21  O   UNL     1       4.540   5.450  19.382  0.00  0.00    +0.000 OA
ATOM     22  H   UNL     1       5.474   5.788  19.469  0.00  0.00    +0.000 HD
ENDBRANCH   1  21
BRANCH   1  23
ATOM     23  C   UNL     1       3.221   4.801  17.439  0.00  0.00    +0.000 C 
BRANCH  23  24
ATOM     24  N   UNL     1       3.193   3.528  18.156  0.00  0.00    +0.000 N 
ATOM     25  C   UNL     1       3.880   2.384  17.856  0.00  0.00    +0.000 A 
ATOM     26  N   UNL     1       3.470   1.408  18.651  0.00  0.00    +0.000 NA
ATOM     27  C   UNL     1       2.542   2.029  19.432  0.00  0.00    +0.000 A 
ATOM     28  N   UNL     1       2.358   3.316  19.193  0.00  0.00    +0.000 NA
ENDBRANCH  23  24
ENDBRANCH   1  23
TORSDOF 11
ENDMDL
MODEL 7
REMARK VINA RESULT:      -7.0      3.997      6.568
REMARK  Name = 
REMARK  13 active torsions:
REMARK  status: ('A' for Active; 'I' for Inactive)
REMARK    1  A    between atoms: C_1  and  C_2
REMARK    2  A    between atoms: C_2  and  C_3
REMARK    3  A    between atoms: C_3  and  C_4
REMARK    4  A    between atoms: C_4  and  C_5
REMARK    5  A    between atoms: C_5  and  C_6
REMARK    6  A    between atoms: C_6  and  S_7
REMARK    7  A    between atoms: S_7  and  C_10
REMARK    8  A    between atoms: C_10  and  C_11
REMARK    9  A    between atoms: C_10  and  C_12
REMARK   10  A    between atoms: C_12  and  O_13
REMARK   11  A    between atoms: C_12  and  C_14
REMARK   12  A    between atoms: C_12  and  C_20
REMARK   13  A    between atoms: C_14  and  N_15
REMARK                            x       y       z     vdW  Elec       q    Type
REMARK                         _______ _______ _______ _____ _____    ______ ____
ROOT
ATOM      1  C   UNL     1       5.571   5.153  16.524  0.00  0.00    +0.000 C 
ENDROOT
BRANCH   1   2
ATOM      2  C   UNL     1       6.573   6.105  17.234  0.00  0.00    +0.000 A 
ATOM      3  C   UNL     1       6.748   7.444  16.828  0.00  0.00    +0.000 A 
ATOM      4  C   UNL     1       7.612   8.304  17.513  0.00  0.00    +0.000 A 
ATOM      5  C   UNL     1       8.338   7.833  18.606  0.00  0.00    +0.000 A 
ATOM      6  F   UNL     1       9.145   8.663  19.277  0.00  0.00    +0.000 F 
ATOM      7  C   UNL     1       8.209   6.526  19.018  0.00  0.00    +0.000 A 
ATOM      8  C   UNL     1       7.330   5.690  18.349  0.00  0.00    +0.000 A 
ATOM      9  F   UNL     1       7.199   4.456  18.849  0.00  0.00    +0.000 F 
ENDBRANCH   1   2
BRANCH   1  10
ATOM     10  C   UNL     1       4.525   4.612  17.596  0.00  0.00    +0.000 C 
ATOM     11  C   UNL     1       3.838   3.292  17.219  0.00  0.00    +0.000 C 
BRANCH  10  12
ATOM     12  S   UNL     1       3.188   5.818  17.973  0.00  0.00    +0.000 S 
ATOM     13  O   UNL     1       1.920   5.214  17.537  0.00  0.00    +0.000 OA
ATOM     14  O   UNL     1       3.549   7.142  17.540  0.00  0.00    +0.000 OA
BRANCH  12  15
ATOM     15  C   UNL     1       3.115   5.872  19.771  0.00  0.00    +0.000 C 
BRANCH  15  16
ATOM     16  C   UNL     1       3.303   4.462  20.315  0.00  0.00    +0.000 C 
BRANCH  16  17
ATOM     17  C   UNL     1       2.384   4.127  21.484  0.00  0.00    +0.000 C 
BRANCH  17  18
ATOM     18  C   UNL     1       1.190   3.319  20.969  0.00  0.00    +0.000 C 
BRANCH  18  20
ATOM     19  C   UNL     1       0.677   2.269  18.749  0.00  0.00    +0.000 C 
ATOM     20  C   UNL     1       1.607   2.263  19.953  0.00  0.00    +0.000 C 
ENDBRANCH  18  20
ENDBRANCH  17  18
ENDBRANCH  16  17
ENDBRANCH  15  16
ENDBRANCH  12  15
ENDBRANCH  10  12
ENDBRANCH   1  10
BRANCH   1  21
ATOM     21  O   UNL     1       4.838   5.942  15.576  0.00  0.00    +0.000 OA
ATOM     22  H   UNL     1       4.808   5.431  14.720  0.00  0.00    +0.000 HD
ENDBRANCH   1  21
BRANCH   1  23
ATOM     23  C   UNL     1       6.318   4.013  15.747  0.00  0.00    +0.000 C 
BRANCH  23  24
ATOM     24  N   UNL     1       6.678   4.327  14.366  0.00  0.00    +0.000 N 
ATOM     25  C   UNL     1       6.273   3.683  13.230  0.00  0.00    +0.000 A 
ATOM     26  N   UNL     1       6.936   4.171  12.193  0.00  0.00    +0.000 NA
ATOM     27  C   UNL     1       7.719   5.129  12.763  0.00  0.00    +0.000 A 
ATOM     28  N   UNL     1       7.580   5.284  14.069  0.00  0.00    +0.000 NA
ENDBRANCH  23  24
ENDBRANCH   1  23
TORSDOF 11
ENDMDL
MODEL 8
REMARK VINA RESULT:      -7.0      3.877      6.133
REMARK  Name = 
REMARK  13 active torsions:
REMARK  status: ('A' for Active; 'I' for Inactive)
REMARK    1  A    between atoms: C_1  and  C_2
REMARK    2  A    between atoms: C_2  and  C_3
REMARK    3  A    between atoms: C_3  and  C_4
REMARK    4  A    between atoms: C_4  and  C_5
REMARK    5  A    between atoms: C_5  and  C_6
REMARK    6  A    between atoms: C_6  and  S_7
REMARK    7  A    between atoms: S_7  and  C_10
REMARK    8  A    between atoms: C_10  and  C_11
REMARK    9  A    between atoms: C_10  and  C_12
REMARK   10  A    between atoms: C_12  and  O_13
REMARK   11  A    between atoms: C_12  and  C_14
REMARK   12  A    between atoms: C_12  and  C_20
REMARK   13  A    between atoms: C_14  and  N_15
REMARK                            x       y       z     vdW  Elec       q    Type
REMARK                         _______ _______ _______ _____ _____    ______ ____
ROOT
ATOM      1  C   UNL     1       5.074   4.255  17.369  0.00  0.00    +0.000 C 
ENDROOT
BRANCH   1   2
ATOM      2  C   UNL     1       3.663   3.773  17.807  0.00  0.00    +0.000 A 
ATOM      3  C   UNL     1       2.484   4.373  17.320  0.00  0.00    +0.000 A 
ATOM      4  C   UNL     1       1.221   3.890  17.679  0.00  0.00    +0.000 A 
ATOM      5  C   UNL     1       1.115   2.810  18.554  0.00  0.00    +0.000 A 
ATOM      6  F   UNL     1      -0.093   2.333  18.878  0.00  0.00    +0.000 F 
ATOM      7  C   UNL     1       2.244   2.212  19.066  0.00  0.00    +0.000 A 
ATOM      8  C   UNL     1       3.489   2.681  18.682  0.00  0.00    +0.000 A 
ATOM      9  F   UNL     1       4.542   2.006  19.158  0.00  0.00    +0.000 F 
ENDBRANCH   1   2
BRANCH   1  10
ATOM     10  C   UNL     1       5.808   4.911  18.621  0.00  0.00    +0.000 C 
ATOM     11  C   UNL     1       5.175   6.211  19.133  0.00  0.00    +0.000 C 
BRANCH  10  12
ATOM     12  S   UNL     1       7.585   5.272  18.310  0.00  0.00    +0.000 S 
ATOM     13  O   UNL     1       8.044   4.336  17.272  0.00  0.00    +0.000 OA
ATOM     14  O   UNL     1       8.312   5.398  19.546  0.00  0.00    +0.000 OA
BRANCH  12  15
ATOM     15  C   UNL     1       7.593   6.900  17.544  0.00  0.00    +0.000 C 
BRANCH  15  16
ATOM     16  C   UNL     1       8.345   7.867  18.449  0.00  0.00    +0.000 C 
BRANCH  16  17
ATOM     17  C   UNL     1       8.283   9.318  17.985  0.00  0.00    +0.000 C 
BRANCH  17  18
ATOM     18  C   UNL     1       9.239  10.159  18.835  0.00  0.00    +0.000 C 
BRANCH  18  20
ATOM     19  C   UNL     1       8.592  12.289  17.679  0.00  0.00    +0.000 C 
ATOM     20  C   UNL     1       9.745  11.386  18.087  0.00  0.00    +0.000 C 
ENDBRANCH  18  20
ENDBRANCH  17  18
ENDBRANCH  16  17
ENDBRANCH  15  16
ENDBRANCH  12  15
ENDBRANCH  10  12
ENDBRANCH   1  10
BRANCH   1  21
ATOM     21  O   UNL     1       5.824   3.088  17.001  0.00  0.00    +0.000 OA
ATOM     22  H   UNL     1       6.787   3.344  16.978  0.00  0.00    +0.000 HD
ENDBRANCH   1  21
BRANCH   1  23
ATOM     23  C   UNL     1       4.993   5.203  16.123  0.00  0.00    +0.000 C 
BRANCH  23  24
ATOM     24  N   UNL     1       5.725   4.751  14.942  0.00  0.00    +0.000 N 
ATOM     25  C   UNL     1       6.924   5.215  14.474  0.00  0.00    +0.000 A 
ATOM     26  N   UNL     1       7.177   4.658  13.299  0.00  0.00    +0.000 NA
ATOM     27  C   UNL     1       6.100   3.845  13.115  0.00  0.00    +0.000 A 
ATOM     28  N   UNL     1       5.208   3.843  14.092  0.00  0.00    +0.000 NA
ENDBRANCH  23  24
ENDBRANCH   1  23
TORSDOF 11
ENDMDL
MODEL 9
REMARK VINA RESULT:      -6.9      2.488      4.038
REMARK  Name = 
REMARK  13 active torsions:
REMARK  status: ('A' for Active; 'I' for Inactive)
REMARK    1  A    between atoms: C_1  and  C_2
REMARK    2  A    between atoms: C_2  and  C_3
REMARK    3  A    between atoms: C_3  and  C_4
REMARK    4  A    between atoms: C_4  and  C_5
REMARK    5  A    between atoms: C_5  and  C_6
REMARK    6  A    between atoms: C_6  and  S_7
REMARK    7  A    between atoms: S_7  and  C_10
REMARK    8  A    between atoms: C_10  and  C_11
REMARK    9  A    between atoms: C_10  and  C_12
REMARK   10  A    between atoms: C_12  and  O_13
REMARK   11  A    between atoms: C_12  and  C_14
REMARK   12  A    between atoms: C_12  and  C_20
REMARK   13  A    between atoms: C_14  and  N_15
REMARK                            x       y       z     vdW  Elec       q    Type
REMARK                         _______ _______ _______ _____ _____    ______ ____
ROOT
ATOM      1  C   UNL     1       4.696   4.945  18.064  0.00  0.00    +0.000 C 
ENDROOT
BRANCH   1   2
ATOM      2  C   UNL     1       3.764   6.141  18.404  0.00  0.00    +0.000 A 
ATOM      3  C   UNL     1       3.660   7.270  17.566  0.00  0.00    +0.000 A 
ATOM      4  C   UNL     1       2.773   8.312  17.857  0.00  0.00    +0.000 A 
ATOM      5  C   UNL     1       1.988   8.254  19.008  0.00  0.00    +0.000 A 
ATOM      6  F   UNL     1       1.122   9.238  19.273  0.00  0.00    +0.000 F 
ATOM      7  C   UNL     1       2.078   7.176  19.861  0.00  0.00    +0.000 A 
ATOM      8  C   UNL     1       2.940   6.138  19.548  0.00  0.00    +0.000 A 
ATOM      9  F   UNL     1       2.921   5.090  20.380  0.00  0.00    +0.000 F 
ENDBRANCH   1   2
BRANCH   1  10
ATOM     10  C   UNL     1       6.066   5.508  17.478  0.00  0.00    +0.000 C 
ATOM     11  C   UNL     1       6.551   4.821  16.194  0.00  0.00    +0.000 C 
BRANCH  10  12
ATOM     12  S   UNL     1       7.456   5.426  18.681  0.00  0.00    +0.000 S 
ATOM     13  O   UNL     1       8.403   4.416  18.186  0.00  0.00    +0.000 OA
ATOM     14  O   UNL     1       6.965   5.360  20.033  0.00  0.00    +0.000 OA
BRANCH  12  15
ATOM     15  C   UNL     1       8.294   7.010  18.520  0.00  0.00    +0.000 C 
BRANCH  15  16
ATOM     16  C   UNL     1       7.543   7.866  17.509  0.00  0.00    +0.000 C 
BRANCH  16  17
ATOM     17  C   UNL     1       7.572   9.358  17.823  0.00  0.00    +0.000 C 
BRANCH  17  18
ATOM     18  C   UNL     1       9.024   9.844  17.817  0.00  0.00    +0.000 C 
BRANCH  18  20
ATOM     19  C   UNL     1       9.286  10.598  20.195  0.00  0.00    +0.000 C 
ATOM     20  C   UNL     1       9.234  11.037  18.741  0.00  0.00    +0.000 C 
ENDBRANCH  18  20
ENDBRANCH  17  18
ENDBRANCH  16  17
ENDBRANCH  15  16
ENDBRANCH  12  15
ENDBRANCH  10  12
ENDBRANCH   1  10
BRANCH   1  21
ATOM     21  O   UNL     1       5.004   4.284  19.300  0.00  0.00    +0.000 OA
ATOM     22  H   UNL     1       5.722   4.809  19.750  0.00  0.00    +0.000 HD
ENDBRANCH   1  21
BRANCH   1  23
ATOM     23  C   UNL     1       3.986   3.917  17.117  0.00  0.00    +0.000 C 
BRANCH  23  24
ATOM     24  N   UNL     1       2.846   3.212  17.699  0.00  0.00    +0.000 N 
ATOM     25  C   UNL     1       1.534   3.595  17.692  0.00  0.00    +0.000 A 
ATOM     26  N   UNL     1       0.834   2.767  18.453  0.00  0.00    +0.000 NA
ATOM     27  C   UNL     1       1.779   1.884  18.881  0.00  0.00    +0.000 A 
ATOM     28  N   UNL     1       3.005   2.091  18.432  0.00  0.00    +0.000 NA
ENDBRANCH  23  24
ENDBRANCH   1  23
TORSDOF 11
ENDMDL
