MODEL 1
REMARK VINA RESULT:      -6.6      0.000      0.000
REMARK  Name = 
REMARK  8 active torsions:
REMARK  status: ('A' for Active; 'I' for Inactive)
REMARK    1  A    between atoms: C_1  and  O_2
REMARK    2  A    between atoms: O_2  and  C_3
REMARK    3  A    between atoms: C_8  and  O_9
REMARK    4  A    between atoms: O_9  and  C_10
REMARK    5  A    between atoms: C_11  and  N_12
REMARK    6  A    between atoms: N_12  and  C_13
REMARK    7  A    between atoms: N_12  and  C_14
REMARK    8  A    between atoms: C_15  and  C_16
REMARK                            x       y       z     vdW  Elec       q    Type
REMARK                         _______ _______ _______ _____ _____    ______ ____
ROOT
ATOM      1  C   UNL     1       6.586   4.781  16.591  0.00  0.00    +0.000 A 
ATOM      2  C   UNL     1       5.436   4.042  16.291  0.00  0.00    +0.000 A 
ATOM      3  C   UNL     1       4.399   4.006  17.209  0.00  0.00    +0.000 A 
ATOM      4  C   UNL     1       4.465   4.700  18.417  0.00  0.00    +0.000 A 
ATOM      5  C   UNL     1       5.571   5.499  18.687  0.00  0.00    +0.000 A 
ATOM      6  C   UNL     1       6.656   5.516  17.795  0.00  0.00    +0.000 A 
ATOM      7  C   UNL     1       3.173   4.511  19.208  0.00  0.00    +0.000 C 
ATOM      8  C   UNL     1       2.381   3.694  18.172  0.00  0.00    +0.000 C 
ATOM      9  C   UNL     1       0.926   3.390  18.295  0.00  0.00    +0.000 C 
ATOM     10  C   UNL     1       3.093   3.396  17.071  0.00  0.00    +0.000 C 
ENDROOT
BRANCH   7  11
ATOM     11  N   UNL     1       3.347   3.830  20.519  0.00  0.00    +0.000 NA
ATOM     12  C   UNL     1       2.143   3.901  21.354  0.00  0.00    +0.000 C 
ATOM     13  C   UNL     1       3.691   2.413  20.365  0.00  0.00    +0.000 C 
ENDBRANCH   7  11
BRANCH   1  15
ATOM     14  C   UNL     1       7.037   4.797  14.259  0.00  0.00    +0.000 C 
ATOM     15  O   UNL     1       7.528   4.756  15.592  0.00  0.00    +0.000 OA
ENDBRANCH   1  15
BRANCH   6  16
ATOM     16  O   UNL     1       7.750   6.313  18.019  0.00  0.00    +0.000 OA
ATOM     17  C   UNL     1       7.615   7.669  17.598  0.00  0.00    +0.000 C 
ENDBRANCH   6  16
TORSDOF 3
ENDMDL
MODEL 2
REMARK VINA RESULT:      -6.5      1.141      1.210
REMARK  Name = 
REMARK  8 active torsions:
REMARK  status: ('A' for Active; 'I' for Inactive)
REMARK    1  A    between atoms: C_1  and  O_2
REMARK    2  A    between atoms: O_2  and  C_3
REMARK    3  A    between atoms: C_8  and  O_9
REMARK    4  A    between atoms: O_9  and  C_10
REMARK    5  A    between atoms: C_11  and  N_12
REMARK    6  A    between atoms: N_12  and  C_13
REMARK    7  A    between atoms: N_12  and  C_14
REMARK    8  A    between atoms: C_15  and  C_16
REMARK                            x       y       z     vdW  Elec       q    Type
REMARK                         _______ _______ _______ _____ _____    ______ ____
ROOT
ATOM      1  C   UNL     1       5.950   4.928  16.161  0.00  0.00    +0.000 A 
ATOM      2  C   UNL     1       5.097   3.830  16.329  0.00  0.00    +0.000 A 
ATOM      3  C   UNL     1       4.008   3.947  17.178  0.00  0.00    +0.000 A 
ATOM      4  C   UNL     1       3.730   5.133  17.856  0.00  0.00    +0.000 A 
ATOM      5  C   UNL     1       4.528   6.250  17.634  0.00  0.00    +0.000 A 
ATOM      6  C   UNL     1       5.665   6.147  16.816  0.00  0.00    +0.000 A 
ATOM      7  C   UNL     1       2.456   4.984  18.684  0.00  0.00    +0.000 C 
ATOM      8  C   UNL     1       2.056   3.564  18.245  0.00  0.00    +0.000 C 
ATOM      9  C   UNL     1       0.739   2.940  18.565  0.00  0.00    +0.000 C 
ATOM     10  C   UNL     1       2.951   2.988  17.424  0.00  0.00    +0.000 C 
ENDROOT
BRANCH   7  11
ATOM     11  N   UNL     1       2.652   5.137  20.150  0.00  0.00    +0.000 NA
ATOM     12  C   UNL     1       1.602   5.947  20.777  0.00  0.00    +0.000 C 
ATOM     13  C   UNL     1       2.681   3.844  20.842  0.00  0.00    +0.000 C 
ENDBRANCH   7  11
BRANCH   1  15
ATOM     14  C   UNL     1       6.601   4.336  13.956  0.00  0.00    +0.000 C 
ATOM     15  O   UNL     1       6.976   4.694  15.280  0.00  0.00    +0.000 OA
ENDBRANCH   1  15
BRANCH   6  16
ATOM     16  O   UNL     1       6.457   7.236  16.557  0.00  0.00    +0.000 OA
ATOM     17  C   UNL     1       7.497   7.473  17.503  0.00  0.00    +0.000 C 
ENDBRANCH   6  16
TORSDOF 3
ENDMDL
MODEL 3
REMARK VINA RESULT:      -6.4      1.295      3.026
REMARK  Name = 
REMARK  8 active torsions:
REMARK  status: ('A' for Active; 'I' for Inactive)
REMARK    1  A    between atoms: C_1  and  O_2
REMARK    2  A    between atoms: O_2  and  C_3
REMARK    3  A    between atoms: C_8  and  O_9
REMARK    4  A    between atoms: O_9  and  C_10
REMARK    5  A    between atoms: C_11  and  N_12
REMARK    6  A    between atoms: N_12  and  C_13
REMARK    7  A    between atoms: N_12  and  C_14
REMARK    8  A    between atoms: C_15  and  C_16
REMARK                            x       y       z     vdW  Elec       q    Type
REMARK                         _______ _______ _______ _____ _____    ______ ____
ROOT
ATOM      1  C   UNL     1       6.258   5.788  16.849  0.00  0.00    +0.000 A 
ATOM      2  C   UNL     1       5.555   6.160  18.001  0.00  0.00    +0.000 A 
ATOM      3  C   UNL     1       4.570   5.318  18.490  0.00  0.00    +0.000 A 
ATOM      4  C   UNL     1       4.271   4.102  17.875  0.00  0.00    +0.000 A 
ATOM      5  C   UNL     1       5.018   3.690  16.777  0.00  0.00    +0.000 A 
ATOM      6  C   UNL     1       5.991   4.546  16.232  0.00  0.00    +0.000 A 
ATOM      7  C   UNL     1       3.177   3.371  18.649  0.00  0.00    +0.000 C 
ATOM      8  C   UNL     1       3.027   4.351  19.826  0.00  0.00    +0.000 C 
ATOM      9  C   UNL     1       2.235   4.054  21.055  0.00  0.00    +0.000 C 
ATOM     10  C   UNL     1       3.794   5.450  19.706  0.00  0.00    +0.000 C 
ENDROOT
BRANCH   7  11
ATOM     11  N   UNL     1       1.924   3.145  17.880  0.00  0.00    +0.000 NA
ATOM     12  C   UNL     1       0.962   2.307  18.604  0.00  0.00    +0.000 C 
ATOM     13  C   UNL     1       1.246   4.402  17.545  0.00  0.00    +0.000 C 
ENDBRANCH   7  11
BRANCH   1  15
ATOM     14  C   UNL     1       7.618   7.633  17.470  0.00  0.00    +0.000 C 
ATOM     15  O   UNL     1       7.221   6.694  16.480  0.00  0.00    +0.000 OA
ENDBRANCH   1  15
BRANCH   6  16
ATOM     16  O   UNL     1       6.762   4.159  15.165  0.00  0.00    +0.000 OA
ATOM     17  C   UNL     1       6.060   3.986  13.936  0.00  0.00    +0.000 C 
ENDBRANCH   6  16
TORSDOF 3
ENDMDL
MODEL 4
REMARK VINA RESULT:      -6.3      2.456      3.864
REMARK  Name = 
REMARK  8 active torsions:
REMARK  status: ('A' for Active; 'I' for Inactive)
REMARK    1  A    between atoms: C_1  and  O_2
REMARK    2  A    between atoms: O_2  and  C_3
REMARK    3  A    between atoms: C_8  and  O_9
REMARK    4  A    between atoms: O_9  and  C_10
REMARK    5  A    between atoms: C_11  and  N_12
REMARK    6  A    between atoms: N_12  and  C_13
REMARK    7  A    between atoms: N_12  and  C_14
REMARK    8  A    between atoms: C_15  and  C_16
REMARK                            x       y       z     vdW  Elec       q    Type
REMARK                         _______ _______ _______ _____ _____    ______ ____
ROOT
ATOM      1  C   UNL     1       3.177   7.213  18.053  0.00  0.00    +0.000 A 
ATOM      2  C   UNL     1       2.290   6.802  19.056  0.00  0.00    +0.000 A 
ATOM      3  C   UNL     1       2.346   5.495  19.511  0.00  0.00    +0.000 A 
ATOM      4  C   UNL     1       3.274   4.582  19.008  0.00  0.00    +0.000 A 
ATOM      5  C   UNL     1       4.208   5.004  18.069  0.00  0.00    +0.000 A 
ATOM      6  C   UNL     1       4.144   6.311  17.556  0.00  0.00    +0.000 A 
ATOM      7  C   UNL     1       3.131   3.237  19.716  0.00  0.00    +0.000 C 
ATOM      8  C   UNL     1       2.052   3.625  20.743  0.00  0.00    +0.000 C 
ATOM      9  C   UNL     1       1.648   2.758  21.887  0.00  0.00    +0.000 C 
ATOM     10  C   UNL     1       1.604   4.885  20.594  0.00  0.00    +0.000 C 
ENDROOT
BRANCH   7  11
ATOM     11  N   UNL     1       2.749   2.109  18.826  0.00  0.00    +0.000 NA
ATOM     12  C   UNL     1       2.156   2.564  17.563  0.00  0.00    +0.000 C 
ATOM     13  C   UNL     1       3.895   1.256  18.491  0.00  0.00    +0.000 C 
ENDBRANCH   7  11
BRANCH   1  15
ATOM     14  C   UNL     1       1.743   9.099  17.880  0.00  0.00    +0.000 C 
ATOM     15  O   UNL     1       3.037   8.534  17.707  0.00  0.00    +0.000 OA
ENDBRANCH   1  15
BRANCH   6  16
ATOM     16  O   UNL     1       5.066   6.766  16.649  0.00  0.00    +0.000 OA
ATOM     17  C   UNL     1       5.483   5.814  15.673  0.00  0.00    +0.000 C 
ENDBRANCH   6  16
TORSDOF 3
ENDMDL
MODEL 5
REMARK VINA RESULT:      -6.2      2.795      5.304
REMARK  Name = 
REMARK  8 active torsions:
REMARK  status: ('A' for Active; 'I' for Inactive)
REMARK    1  A    between atoms: C_1  and  O_2
REMARK    2  A    between atoms: O_2  and  C_3
REMARK    3  A    between atoms: C_8  and  O_9
REMARK    4  A    between atoms: O_9  and  C_10
REMARK    5  A    between atoms: C_11  and  N_12
REMARK    6  A    between atoms: N_12  and  C_13
REMARK    7  A    between atoms: N_12  and  C_14
REMARK    8  A    between atoms: C_15  and  C_16
REMARK                            x       y       z     vdW  Elec       q    Type
REMARK                         _______ _______ _______ _____ _____    ______ ____
ROOT
ATOM      1  C   UNL     1       2.812   2.540  18.737  0.00  0.00    +0.000 A 
ATOM      2  C   UNL     1       3.189   2.789  17.412  0.00  0.00    +0.000 A 
ATOM      3  C   UNL     1       4.317   3.555  17.165  0.00  0.00    +0.000 A 
ATOM      4  C   UNL     1       5.096   4.069  18.202  0.00  0.00    +0.000 A 
ATOM      5  C   UNL     1       4.772   3.761  19.518  0.00  0.00    +0.000 A 
ATOM      6  C   UNL     1       3.607   3.026  19.798  0.00  0.00    +0.000 A 
ATOM      7  C   UNL     1       6.289   4.836  17.637  0.00  0.00    +0.000 C 
ATOM      8  C   UNL     1       6.067   4.549  16.142  0.00  0.00    +0.000 C 
ATOM      9  C   UNL     1       7.066   4.866  15.080  0.00  0.00    +0.000 C 
ATOM     10  C   UNL     1       4.942   3.855  15.894  0.00  0.00    +0.000 C 
ENDROOT
BRANCH   7  11
ATOM     11  N   UNL     1       6.313   6.282  17.984  0.00  0.00    +0.000 NA
ATOM     12  C   UNL     1       7.641   6.881  17.808  0.00  0.00    +0.000 C 
ATOM     13  C   UNL     1       5.369   7.060  17.175  0.00  0.00    +0.000 C 
ENDBRANCH   7  11
BRANCH   1  15
ATOM     14  C   UNL     1       0.440   2.420  18.777  0.00  0.00    +0.000 C 
ATOM     15  O   UNL     1       1.693   1.752  18.848  0.00  0.00    +0.000 OA
ENDBRANCH   1  15
BRANCH   6  16
ATOM     16  O   UNL     1       3.274   2.683  21.084  0.00  0.00    +0.000 OA
ATOM     17  C   UNL     1       2.298   3.518  21.705  0.00  0.00    +0.000 C 
ENDBRANCH   6  16
TORSDOF 3
ENDMDL
MODEL 6
REMARK VINA RESULT:      -6.1      0.907      1.192
REMARK  Name = 
REMARK  8 active torsions:
REMARK  status: ('A' for Active; 'I' for Inactive)
REMARK    1  A    between atoms: C_1  and  O_2
REMARK    2  A    between atoms: O_2  and  C_3
REMARK    3  A    between atoms: C_8  and  O_9
REMARK    4  A    between atoms: O_9  and  C_10
REMARK    5  A    between atoms: C_11  and  N_12
REMARK    6  A    between atoms: N_12  and  C_13
REMARK    7  A    between atoms: N_12  and  C_14
REMARK    8  A    between atoms: C_15  and  C_16
REMARK                            x       y       z     vdW  Elec       q    Type
REMARK                         _______ _______ _______ _____ _____    ______ ____
ROOT
ATOM      1  C   UNL     1       6.141   4.555  16.542  0.00  0.00    +0.000 A 
ATOM      2  C   UNL     1       4.857   4.132  16.180  0.00  0.00    +0.000 A 
ATOM      3  C   UNL     1       3.942   3.829  17.176  0.00  0.00    +0.000 A 
ATOM      4  C   UNL     1       4.262   3.950  18.528  0.00  0.00    +0.000 A 
ATOM      5  C   UNL     1       5.510   4.444  18.894  0.00  0.00    +0.000 A 
ATOM      6  C   UNL     1       6.472   4.715  17.906  0.00  0.00    +0.000 A 
ATOM      7  C   UNL     1       3.058   3.587  19.392  0.00  0.00    +0.000 C 
ATOM      8  C   UNL     1       2.025   3.361  18.274  0.00  0.00    +0.000 C 
ATOM      9  C   UNL     1       0.564   3.189  18.518  0.00  0.00    +0.000 C 
ATOM     10  C   UNL     1       2.546   3.472  17.039  0.00  0.00    +0.000 C 
ENDROOT
BRANCH   7  11
ATOM     11  N   UNL     1       3.266   2.411  20.278  0.00  0.00    +0.000 NA
ATOM     12  C   UNL     1       4.682   2.054  20.418  0.00  0.00    +0.000 C 
ATOM     13  C   UNL     1       2.734   2.635  21.628  0.00  0.00    +0.000 C 
ENDBRANCH   7  11
BRANCH   1  15
ATOM     14  C   UNL     1       6.626   4.192  14.245  0.00  0.00    +0.000 C 
ATOM     15  O   UNL     1       6.944   4.847  15.467  0.00  0.00    +0.000 OA
ENDBRANCH   1  15
BRANCH   6  16
ATOM     16  O   UNL     1       7.702   5.226  18.232  0.00  0.00    +0.000 OA
ATOM     17  C   UNL     1       7.758   6.645  18.361  0.00  0.00    +0.000 C 
ENDBRANCH   6  16
TORSDOF 3
ENDMDL
MODEL 7
REMARK VINA RESULT:      -6.0      1.318      2.802
REMARK  Name = 
REMARK  8 active torsions:
REMARK  status: ('A' for Active; 'I' for Inactive)
REMARK    1  A    between atoms: C_1  and  O_2
REMARK    2  A    between atoms: O_2  and  C_3
REMARK    3  A    between atoms: C_8  and  O_9
REMARK    4  A    between atoms: O_9  and  C_10
REMARK    5  A    between atoms: C_11  and  N_12
REMARK    6  A    between atoms: N_12  and  C_13
REMARK    7  A    between atoms: N_12  and  C_14
REMARK    8  A    between atoms: C_15  and  C_16
REMARK                            x       y       z     vdW  Elec       q    Type
REMARK                         _______ _______ _______ _____ _____    ______ ____
ROOT
ATOM      1  C   UNL     1       5.969   6.370  17.262  0.00  0.00    +0.000 A 
ATOM      2  C   UNL     1       4.909   6.670  18.127  0.00  0.00    +0.000 A 
ATOM      3  C   UNL     1       4.245   5.635  18.764  0.00  0.00    +0.000 A 
ATOM      4  C   UNL     1       4.614   4.302  18.579  0.00  0.00    +0.000 A 
ATOM      5  C   UNL     1       5.714   4.002  17.783  0.00  0.00    +0.000 A 
ATOM      6  C   UNL     1       6.377   5.029  17.089  0.00  0.00    +0.000 A 
ATOM      7  C   UNL     1       3.737   3.387  19.429  0.00  0.00    +0.000 C 
ATOM      8  C   UNL     1       2.922   4.462  20.169  0.00  0.00    +0.000 C 
ATOM      9  C   UNL     1       2.027   4.173  21.326  0.00  0.00    +0.000 C 
ATOM     10  C   UNL     1       3.199   5.714  19.762  0.00  0.00    +0.000 C 
ENDROOT
BRANCH   7  11
ATOM     11  N   UNL     1       2.913   2.424  18.651  0.00  0.00    +0.000 NA
ATOM     12  C   UNL     1       2.399   3.002  17.404  0.00  0.00    +0.000 C 
ATOM     13  C   UNL     1       3.664   1.214  18.297  0.00  0.00    +0.000 C 
ENDBRANCH   7  11
BRANCH   1  15
ATOM     14  C   UNL     1       7.633   8.054  17.447  0.00  0.00    +0.000 C 
ATOM     15  O   UNL     1       6.558   7.481  16.713  0.00  0.00    +0.000 OA
ENDBRANCH   1  15
BRANCH   6  16
ATOM     16  O   UNL     1       7.480   4.769  16.317  0.00  0.00    +0.000 OA
ATOM     17  C   UNL     1       7.238   4.690  14.913  0.00  0.00    +0.000 C 
ENDBRANCH   6  16
TORSDOF 3
ENDMDL
MODEL 8
REMARK VINA RESULT:      -5.9      3.245      5.641
REMARK  Name = 
REMARK  8 active torsions:
REMARK  status: ('A' for Active; 'I' for Inactive)
REMARK    1  A    between atoms: C_1  and  O_2
REMARK    2  A    between atoms: O_2  and  C_3
REMARK    3  A    between atoms: C_8  and  O_9
REMARK    4  A    between atoms: O_9  and  C_10
REMARK    5  A    between atoms: C_11  and  N_12
REMARK    6  A    between atoms: N_12  and  C_13
REMARK    7  A    between atoms: N_12  and  C_14
REMARK    8  A    between atoms: C_15  and  C_16
REMARK                            x       y       z     vdW  Elec       q    Type
REMARK                         _______ _______ _______ _____ _____    ______ ____
ROOT
ATOM      1  C   UNL     1       2.059   6.149  20.303  0.00  0.00    +0.000 A 
ATOM      2  C   UNL     1       2.539   6.875  19.206  0.00  0.00    +0.000 A 
ATOM      3  C   UNL     1       3.531   6.322  18.413  0.00  0.00    +0.000 A 
ATOM      4  C   UNL     1       4.054   5.054  18.669  0.00  0.00    +0.000 A 
ATOM      5  C   UNL     1       3.528   4.296  19.710  0.00  0.00    +0.000 A 
ATOM      6  C   UNL     1       2.554   4.851  20.558  0.00  0.00    +0.000 A 
ATOM      7  C   UNL     1       5.099   4.689  17.618  0.00  0.00    +0.000 C 
ATOM      8  C   UNL     1       4.962   5.925  16.712  0.00  0.00    +0.000 C 
ATOM      9  C   UNL     1       5.593   6.038  15.365  0.00  0.00    +0.000 C 
ATOM     10  C   UNL     1       4.100   6.842  17.187  0.00  0.00    +0.000 C 
ENDROOT
BRANCH   7  11
ATOM     11  N   UNL     1       6.468   4.477  18.158  0.00  0.00    +0.000 NA
ATOM     12  C   UNL     1       7.492   4.464  17.108  0.00  0.00    +0.000 C 
ATOM     13  C   UNL     1       6.847   5.512  19.127  0.00  0.00    +0.000 C 
ENDBRANCH   7  11
BRANCH   1  15
ATOM     14  C   UNL     1       1.168   8.210  21.076  0.00  0.00    +0.000 C 
ATOM     15  O   UNL     1       1.064   6.794  20.993  0.00  0.00    +0.000 OA
ENDBRANCH   1  15
BRANCH   6  16
ATOM     16  O   UNL     1       1.998   4.120  21.576  0.00  0.00    +0.000 OA
ATOM     17  C   UNL     1       2.335   2.735  21.589  0.00  0.00    +0.000 C 
ENDBRANCH   6  16
TORSDOF 3
ENDMDL
MODEL 9
REMARK VINA RESULT:      -5.9      2.708      5.179
REMARK  Name = 
REMARK  8 active torsions:
REMARK  status: ('A' for Active; 'I' for Inactive)
REMARK    1  A    between atoms: C_1  and  O_2
REMARK    2  A    between atoms: O_2  and  C_3
REMARK    3  A    between atoms: C_8  and  O_9
REMARK    4  A    between atoms: O_9  and  C_10
REMARK    5  A    between atoms: C_11  and  N_12
REMARK    6  A    between atoms: N_12  and  C_13
REMARK    7  A    between atoms: N_12  and  C_14
REMARK    8  A    between atoms: C_15  and  C_16
REMARK                            x       y       z     vdW  Elec       q    Type
REMARK                         _______ _______ _______ _____ _____    ______ ____
ROOT
ATOM      1  C   UNL     1       2.679   3.979  18.428  0.00  0.00    +0.000 A 
ATOM      2  C   UNL     1       3.019   4.194  17.087  0.00  0.00    +0.000 A 
ATOM      3  C   UNL     1       4.349   4.396  16.753  0.00  0.00    +0.000 A 
ATOM      4  C   UNL     1       5.358   4.375  17.715  0.00  0.00    +0.000 A 
ATOM      5  C   UNL     1       5.037   4.085  19.036  0.00  0.00    +0.000 A 
ATOM      6  C   UNL     1       3.692   3.922  19.410  0.00  0.00    +0.000 A 
ATOM      7  C   UNL     1       6.720   4.587  17.059  0.00  0.00    +0.000 C 
ATOM      8  C   UNL     1       6.270   4.617  15.587  0.00  0.00    +0.000 C 
ATOM      9  C   UNL     1       7.213   4.580  14.432  0.00  0.00    +0.000 C 
ATOM     10  C   UNL     1       4.936   4.537  15.437  0.00  0.00    +0.000 C 
ENDROOT
BRANCH   7  11
ATOM     11  N   UNL     1       7.434   5.814  17.503  0.00  0.00    +0.000 NA
ATOM     12  C   UNL     1       6.638   7.031  17.310  0.00  0.00    +0.000 C 
ATOM     13  C   UNL     1       7.806   5.754  18.921  0.00  0.00    +0.000 C 
ENDBRANCH   7  11
BRANCH   1  15
ATOM     14  C   UNL     1       0.904   2.415  18.639  0.00  0.00    +0.000 C 
ATOM     15  O   UNL     1       1.337   3.769  18.624  0.00  0.00    +0.000 OA
ENDBRANCH   1  15
BRANCH   6  16
ATOM     16  O   UNL     1       3.345   3.610  20.700  0.00  0.00    +0.000 OA
ATOM     17  C   UNL     1       3.557   2.252  21.077  0.00  0.00    +0.000 C 
ENDBRANCH   6  16
TORSDOF 3
ENDMDL
