MODEL 1
REMARK VINA RESULT:      -8.6      0.000      0.000
REMARK  Name = 
REMARK  5 active torsions:
REMARK  status: ('A' for Active; 'I' for Inactive)
REMARK    1  A    between atoms: C_2  and  C_3
REMARK    2  A    between atoms: C_3  and  C_4
REMARK    3  A    between atoms: C_4  and  C_5
REMARK    4  A    between atoms: N_10  and  C_11
REMARK    5  A    between atoms: N_14  and  C_15
REMARK                            x       y       z     vdW  Elec       q    Type
REMARK                         _______ _______ _______ _____ _____    ______ ____
ROOT
ATOM      1  C   UNL     1       6.929   5.941  16.723  0.00  0.00    +0.000 C 
ATOM      2  C   UNL     1       5.673   5.748  15.865  0.00  0.00    +0.000 C 
ATOM      3  C   UNL     1       4.400   6.067  16.641  0.00  0.00    +0.000 C 
ATOM      4  N   UNL     1       4.376   5.300  17.886  0.00  0.00    +0.000 N 
ATOM      5  C   UNL     1       5.511   5.512  18.788  0.00  0.00    +0.000 C 
ATOM      6  C   UNL     1       6.812   5.191  18.054  0.00  0.00    +0.000 C 
ENDROOT
BRANCH   4   7
ATOM      7  C   UNL     1       3.368   4.396  18.171  0.00  0.00    +0.000 A 
ATOM      8  C   UNL     1       3.315   3.131  17.558  0.00  0.00    +0.000 A 
ATOM      9  C   UNL     1       2.299   2.207  17.838  0.00  0.00    +0.000 A 
ATOM     10  C   UNL     1       1.304   2.527  18.751  0.00  0.00    +0.000 A 
ATOM     11  C   UNL     1       1.338   3.767  19.368  0.00  0.00    +0.000 A 
ATOM     12  F   UNL     1       0.379   4.091  20.248  0.00  0.00    +0.000 F 
ATOM     13  C   UNL     1       2.347   4.688  19.089  0.00  0.00    +0.000 A 
ENDBRANCH   4   7
BRANCH   1  16
ATOM     14  O   UNL     1       8.525   7.074  18.787  0.00  0.00    +0.000 OA
ATOM     15  C   UNL     1       8.012   7.815  17.955  0.00  0.00    +0.000 C 
ATOM     16  N   UNL     1       7.221   7.361  16.921  0.00  0.00    +0.000 N 
ATOM     17  H   UNL     1       6.695   8.044  16.390  0.00  0.00    +0.000 HD
BRANCH  15  18
ATOM     18  C   UNL     1       8.162   9.322  17.980  0.00  0.00    +0.000 C 
BRANCH  18  19
ATOM     19  C   UNL     1       9.142   9.752  19.068  0.00  0.00    +0.000 C 
BRANCH  19  20
ATOM     20  C   UNL     1       9.679  11.137  18.842  0.00  0.00    +0.000 A 
ATOM     21  C   UNL     1      10.750  11.725  19.595  0.00  0.00    +0.000 A 
ATOM     22  C   UNL     1      11.062  12.998  19.170  0.00  0.00    +0.000 A 
ATOM     23  S   UNL     1      10.069  13.501  17.873  0.00  0.00    +0.000 S 
ATOM     24  C   UNL     1       9.226  12.013  17.872  0.00  0.00    +0.000 A 
ENDBRANCH  19  20
ENDBRANCH  18  19
ENDBRANCH  15  18
ENDBRANCH   1  16
TORSDOF 5
ENDMDL
MODEL 2
REMARK VINA RESULT:      -8.5      1.025      1.075
REMARK  Name = 
REMARK  5 active torsions:
REMARK  status: ('A' for Active; 'I' for Inactive)
REMARK    1  A    between atoms: C_2  and  C_3
REMARK    2  A    between atoms: C_3  and  C_4
REMARK    3  A    between atoms: C_4  and  C_5
REMARK    4  A    between atoms: N_10  and  C_11
REMARK    5  A    between atoms: N_14  and  C_15
REMARK                            x       y       z     vdW  Elec       q    Type
REMARK                         _______ _______ _______ _____ _____    ______ ____
ROOT
ATOM      1  C   UNL     1       6.757   5.880  16.986  0.00  0.00    +0.000 C 
ATOM      2  C   UNL     1       5.460   5.602  16.217  0.00  0.00    +0.000 C 
ATOM      3  C   UNL     1       4.226   5.970  17.033  0.00  0.00    +0.000 C 
ATOM      4  N   UNL     1       4.281   5.309  18.336  0.00  0.00    +0.000 N 
ATOM      5  C   UNL     1       5.459   5.608  19.154  0.00  0.00    +0.000 C 
ATOM      6  C   UNL     1       6.724   5.242  18.379  0.00  0.00    +0.000 C 
ENDROOT
BRANCH   4   7
ATOM      7  C   UNL     1       3.304   4.421  18.750  0.00  0.00    +0.000 A 
ATOM      8  C   UNL     1       2.229   4.062  17.916  0.00  0.00    +0.000 A 
ATOM      9  C   UNL     1       1.234   3.164  18.323  0.00  0.00    +0.000 A 
ATOM     10  C   UNL     1       1.292   2.593  19.587  0.00  0.00    +0.000 A 
ATOM     11  C   UNL     1       2.342   2.931  20.425  0.00  0.00    +0.000 A 
ATOM     12  F   UNL     1       2.406   2.390  21.650  0.00  0.00    +0.000 F 
ATOM     13  C   UNL     1       3.332   3.825  20.021  0.00  0.00    +0.000 A 
ENDBRANCH   4   7
BRANCH   1  16
ATOM     14  O   UNL     1       8.527   7.187  18.789  0.00  0.00    +0.000 OA
ATOM     15  C   UNL     1       7.917   7.856  17.962  0.00  0.00    +0.000 C 
ATOM     16  N   UNL     1       7.036   7.316  17.049  0.00  0.00    +0.000 N 
ATOM     17  H   UNL     1       6.445   7.950  16.527  0.00  0.00    +0.000 HD
BRANCH  15  18
ATOM     18  C   UNL     1       8.036   9.363  17.863  0.00  0.00    +0.000 C 
BRANCH  18  19
ATOM     19  C   UNL     1       9.064   9.893  18.860  0.00  0.00    +0.000 C 
BRANCH  19  20
ATOM     20  C   UNL     1       9.689  11.183  18.407  0.00  0.00    +0.000 A 
ATOM     21  C   UNL     1      11.079  11.342  18.088  0.00  0.00    +0.000 A 
ATOM     22  C   UNL     1      11.387  12.621  17.677  0.00  0.00    +0.000 A 
ATOM     23  S   UNL     1      10.016  13.641  17.681  0.00  0.00    +0.000 S 
ATOM     24  C   UNL     1       9.006  12.371  18.222  0.00  0.00    +0.000 A 
ENDBRANCH  19  20
ENDBRANCH  18  19
ENDBRANCH  15  18
ENDBRANCH   1  16
TORSDOF 5
ENDMDL
MODEL 3
REMARK VINA RESULT:      -8.4      0.977      1.445
REMARK  Name = 
REMARK  5 active torsions:
REMARK  status: ('A' for Active; 'I' for Inactive)
REMARK    1  A    between atoms: C_2  and  C_3
REMARK    2  A    between atoms: C_3  and  C_4
REMARK    3  A    between atoms: C_4  and  C_5
REMARK    4  A    between atoms: N_10  and  C_11
REMARK    5  A    between atoms: N_14  and  C_15
REMARK                            x       y       z     vdW  Elec       q    Type
REMARK                         _______ _______ _______ _____ _____    ______ ____
ROOT
ATOM      1  C   UNL     1       6.460   6.062  17.015  0.00  0.00    +0.000 C 
ATOM      2  C   UNL     1       5.082   5.992  16.346  0.00  0.00    +0.000 C 
ATOM      3  C   UNL     1       3.971   6.450  17.284  0.00  0.00    +0.000 C 
ATOM      4  N   UNL     1       4.046   5.702  18.539  0.00  0.00    +0.000 N 
ATOM      5  C   UNL     1       5.313   5.803  19.268  0.00  0.00    +0.000 C 
ATOM      6  C   UNL     1       6.457   5.341  18.367  0.00  0.00    +0.000 C 
ENDROOT
BRANCH   4   7
ATOM      7  C   UNL     1       3.002   4.911  18.985  0.00  0.00    +0.000 A 
ATOM      8  C   UNL     1       2.269   5.237  20.141  0.00  0.00    +0.000 A 
ATOM      9  C   UNL     1       1.210   4.444  20.603  0.00  0.00    +0.000 A 
ATOM     10  C   UNL     1       0.852   3.295  19.911  0.00  0.00    +0.000 A 
ATOM     11  C   UNL     1       1.559   2.956  18.769  0.00  0.00    +0.000 A 
ATOM     12  F   UNL     1       1.227   1.846  18.094  0.00  0.00    +0.000 F 
ATOM     13  C   UNL     1       2.614   3.743  18.309  0.00  0.00    +0.000 A 
ENDBRANCH   4   7
BRANCH   1  16
ATOM     14  O   UNL     1       8.502   7.028  18.744  0.00  0.00    +0.000 OA
ATOM     15  C   UNL     1       7.924   7.817  18.005  0.00  0.00    +0.000 C 
ATOM     16  N   UNL     1       6.920   7.446  17.135  0.00  0.00    +0.000 N 
ATOM     17  H   UNL     1       6.377   8.179  16.695  0.00  0.00    +0.000 HD
BRANCH  15  18
ATOM     18  C   UNL     1       8.222   9.302  17.978  0.00  0.00    +0.000 C 
BRANCH  18  19
ATOM     19  C   UNL     1       8.968   9.727  19.240  0.00  0.00    +0.000 C 
BRANCH  19  20
ATOM     20  C   UNL     1       9.812  10.952  19.022  0.00  0.00    +0.000 A 
ATOM     21  C   UNL     1      10.602  11.585  20.039  0.00  0.00    +0.000 A 
ATOM     22  C   UNL     1      11.298  12.677  19.570  0.00  0.00    +0.000 A 
ATOM     23  S   UNL     1      11.005  12.957  17.910  0.00  0.00    +0.000 S 
ATOM     24  C   UNL     1       9.953  11.612  17.815  0.00  0.00    +0.000 A 
ENDBRANCH  19  20
ENDBRANCH  18  19
ENDBRANCH  15  18
ENDBRANCH   1  16
TORSDOF 5
ENDMDL
MODEL 4
REMARK VINA RESULT:      -8.2      1.400      1.643
REMARK  Name = 
REMARK  5 active torsions:
REMARK  status: ('A' for Active; 'I' for Inactive)
REMARK    1  A    between atoms: C_2  and  C_3
REMARK    2  A    between atoms: C_3  and  C_4
REMARK    3  A    between atoms: C_4  and  C_5
REMARK    4  A    between atoms: N_10  and  C_11
REMARK    5  A    between atoms: N_14  and  C_15
REMARK                            x       y       z     vdW  Elec       q    Type
REMARK                         _______ _______ _______ _____ _____    ______ ____
ROOT
ATOM      1  C   UNL     1       5.672   6.113  17.345  0.00  0.00    +0.000 C 
ATOM      2  C   UNL     1       4.197   6.530  17.336  0.00  0.00    +0.000 C 
ATOM      3  C   UNL     1       3.540   6.326  18.696  0.00  0.00    +0.000 C 
ATOM      4  N   UNL     1       3.750   4.950  19.144  0.00  0.00    +0.000 N 
ATOM      5  C   UNL     1       5.147   4.522  19.257  0.00  0.00    +0.000 C 
ATOM      6  C   UNL     1       5.845   4.698  17.908  0.00  0.00    +0.000 C 
ENDROOT
BRANCH   4   7
ATOM      7  C   UNL     1       2.695   4.091  19.399  0.00  0.00    +0.000 A 
ATOM      8  C   UNL     1       1.891   3.582  18.363  0.00  0.00    +0.000 A 
ATOM      9  C   UNL     1       0.819   2.712  18.608  0.00  0.00    +0.000 A 
ATOM     10  C   UNL     1       0.525   2.325  19.908  0.00  0.00    +0.000 A 
ATOM     11  C   UNL     1       1.306   2.813  20.943  0.00  0.00    +0.000 A 
ATOM     12  F   UNL     1       1.029   2.450  22.204  0.00  0.00    +0.000 F 
ATOM     13  C   UNL     1       2.371   3.679  20.701  0.00  0.00    +0.000 A 
ENDBRANCH   4   7
BRANCH   1  16
ATOM     14  O   UNL     1       8.149   7.210  16.477  0.00  0.00    +0.000 OA
ATOM     15  C   UNL     1       7.684   7.566  17.555  0.00  0.00    +0.000 C 
ATOM     16  N   UNL     1       6.494   7.090  18.062  0.00  0.00    +0.000 N 
ATOM     17  H   UNL     1       6.273   7.295  19.028  0.00  0.00    +0.000 HD
BRANCH  15  18
ATOM     18  C   UNL     1       8.377   8.551  18.473  0.00  0.00    +0.000 C 
BRANCH  18  19
ATOM     19  C   UNL     1       8.575   9.895  17.777  0.00  0.00    +0.000 C 
BRANCH  19  20
ATOM     20  C   UNL     1       9.422  10.839  18.583  0.00  0.00    +0.000 A 
ATOM     21  C   UNL     1       9.544  10.801  20.012  0.00  0.00    +0.000 A 
ATOM     22  C   UNL     1      10.400  11.763  20.500  0.00  0.00    +0.000 A 
ATOM     23  S   UNL     1      11.057  12.726  19.250  0.00  0.00    +0.000 S 
ATOM     24  C   UNL     1      10.204  11.850  18.054  0.00  0.00    +0.000 A 
ENDBRANCH  19  20
ENDBRANCH  18  19
ENDBRANCH  15  18
ENDBRANCH   1  16
TORSDOF 5
ENDMDL
MODEL 5
REMARK VINA RESULT:      -8.1      1.584      2.135
REMARK  Name = 
REMARK  5 active torsions:
REMARK  status: ('A' for Active; 'I' for Inactive)
REMARK    1  A    between atoms: C_2  and  C_3
REMARK    2  A    between atoms: C_3  and  C_4
REMARK    3  A    between atoms: C_4  and  C_5
REMARK    4  A    between atoms: N_10  and  C_11
REMARK    5  A    between atoms: N_14  and  C_15
REMARK                            x       y       z     vdW  Elec       q    Type
REMARK                         _______ _______ _______ _____ _____    ______ ____
ROOT
ATOM      1  C   UNL     1       5.150   6.532  17.263  0.00  0.00    +0.000 C 
ATOM      2  C   UNL     1       3.750   6.957  17.722  0.00  0.00    +0.000 C 
ATOM      3  C   UNL     1       3.483   6.562  19.170  0.00  0.00    +0.000 C 
ATOM      4  N   UNL     1       3.743   5.133  19.348  0.00  0.00    +0.000 N 
ATOM      5  C   UNL     1       5.095   4.684  19.007  0.00  0.00    +0.000 C 
ATOM      6  C   UNL     1       5.403   5.049  17.556  0.00  0.00    +0.000 C 
ENDROOT
BRANCH   4   7
ATOM      7  C   UNL     1       2.759   4.254  19.766  0.00  0.00    +0.000 A 
ATOM      8  C   UNL     1       2.544   3.979  21.129  0.00  0.00    +0.000 A 
ATOM      9  C   UNL     1       1.552   3.091  21.565  0.00  0.00    +0.000 A 
ATOM     10  C   UNL     1       0.739   2.453  20.639  0.00  0.00    +0.000 A 
ATOM     11  C   UNL     1       0.931   2.710  19.292  0.00  0.00    +0.000 A 
ATOM     12  F   UNL     1       0.155   2.096  18.387  0.00  0.00    +0.000 F 
ATOM     13  C   UNL     1       1.919   3.592  18.857  0.00  0.00    +0.000 A 
ENDBRANCH   4   7
BRANCH   1  16
ATOM     14  O   UNL     1       7.844   6.786  16.387  0.00  0.00    +0.000 OA
ATOM     15  C   UNL     1       7.465   7.445  17.350  0.00  0.00    +0.000 C 
ATOM     16  N   UNL     1       6.181   7.388  17.850  0.00  0.00    +0.000 N 
ATOM     17  H   UNL     1       6.001   7.822  18.747  0.00  0.00    +0.000 HD
BRANCH  15  18
ATOM     18  C   UNL     1       8.371   8.380  18.125  0.00  0.00    +0.000 C 
BRANCH  18  19
ATOM     19  C   UNL     1       8.180   9.823  17.665  0.00  0.00    +0.000 C 
BRANCH  19  20
ATOM     20  C   UNL     1       9.056  10.785  18.420  0.00  0.00    +0.000 A 
ATOM     21  C   UNL     1       9.533  12.031  17.893  0.00  0.00    +0.000 A 
ATOM     22  C   UNL     1      10.298  12.733  18.798  0.00  0.00    +0.000 A 
ATOM     23  S   UNL     1      10.458  11.900  20.282  0.00  0.00    +0.000 S 
ATOM     24  C   UNL     1       9.496  10.603  19.718  0.00  0.00    +0.000 A 
ENDBRANCH  19  20
ENDBRANCH  18  19
ENDBRANCH  15  18
ENDBRANCH   1  16
TORSDOF 5
ENDMDL
MODEL 6
REMARK VINA RESULT:      -8.1      1.299      1.510
REMARK  Name = 
REMARK  5 active torsions:
REMARK  status: ('A' for Active; 'I' for Inactive)
REMARK    1  A    between atoms: C_2  and  C_3
REMARK    2  A    between atoms: C_3  and  C_4
REMARK    3  A    between atoms: C_4  and  C_5
REMARK    4  A    between atoms: N_10  and  C_11
REMARK    5  A    between atoms: N_14  and  C_15
REMARK                            x       y       z     vdW  Elec       q    Type
REMARK                         _______ _______ _______ _____ _____    ______ ____
ROOT
ATOM      1  C   UNL     1       5.862   6.247  17.179  0.00  0.00    +0.000 C 
ATOM      2  C   UNL     1       4.398   6.307  16.729  0.00  0.00    +0.000 C 
ATOM      3  C   UNL     1       3.443   6.408  17.914  0.00  0.00    +0.000 C 
ATOM      4  N   UNL     1       3.716   5.327  18.860  0.00  0.00    +0.000 N 
ATOM      5  C   UNL     1       5.080   5.273  19.392  0.00  0.00    +0.000 C 
ATOM      6  C   UNL     1       6.073   5.159  18.237  0.00  0.00    +0.000 C 
ENDROOT
BRANCH   4   7
ATOM      7  C   UNL     1       2.758   4.386  19.195  0.00  0.00    +0.000 A 
ATOM      8  C   UNL     1       2.029   3.691  18.213  0.00  0.00    +0.000 A 
ATOM      9  C   UNL     1       1.057   2.736  18.539  0.00  0.00    +0.000 A 
ATOM     10  C   UNL     1       0.789   2.448  19.869  0.00  0.00    +0.000 A 
ATOM     11  C   UNL     1       1.495   3.119  20.854  0.00  0.00    +0.000 A 
ATOM     12  F   UNL     1       1.242   2.853  22.143  0.00  0.00    +0.000 F 
ATOM     13  C   UNL     1       2.462   4.070  20.531  0.00  0.00    +0.000 A 
ENDBRANCH   4   7
BRANCH   1  16
ATOM     14  O   UNL     1       8.388   7.438  16.637  0.00  0.00    +0.000 OA
ATOM     15  C   UNL     1       7.575   8.049  17.321  0.00  0.00    +0.000 C 
ATOM     16  N   UNL     1       6.328   7.555  17.641  0.00  0.00    +0.000 N 
ATOM     17  H   UNL     1       5.793   8.039  18.351  0.00  0.00    +0.000 HD
BRANCH  15  18
ATOM     18  C   UNL     1       7.854   9.411  17.924  0.00  0.00    +0.000 C 
BRANCH  18  19
ATOM     19  C   UNL     1       8.959   9.324  18.973  0.00  0.00    +0.000 C 
BRANCH  19  20
ATOM     20  C   UNL     1       9.660  10.637  19.178  0.00  0.00    +0.000 A 
ATOM     21  C   UNL     1      10.246  11.417  18.125  0.00  0.00    +0.000 A 
ATOM     22  C   UNL     1      10.806  12.590  18.580  0.00  0.00    +0.000 A 
ATOM     23  S   UNL     1      10.644  12.762  20.273  0.00  0.00    +0.000 S 
ATOM     24  C   UNL     1       9.814  11.271  20.397  0.00  0.00    +0.000 A 
ENDBRANCH  19  20
ENDBRANCH  18  19
ENDBRANCH  15  18
ENDBRANCH   1  16
TORSDOF 5
ENDMDL
MODEL 7
REMARK VINA RESULT:      -8.0      1.475      1.765
REMARK  Name = 
REMARK  5 active torsions:
REMARK  status: ('A' for Active; 'I' for Inactive)
REMARK    1  A    between atoms: C_2  and  C_3
REMARK    2  A    between atoms: C_3  and  C_4
REMARK    3  A    between atoms: C_4  and  C_5
REMARK    4  A    between atoms: N_10  and  C_11
REMARK    5  A    between atoms: N_14  and  C_15
REMARK                            x       y       z     vdW  Elec       q    Type
REMARK                         _______ _______ _______ _____ _____    ______ ____
ROOT
ATOM      1  C   UNL     1       7.283   6.295  17.148  0.00  0.00    +0.000 C 
ATOM      2  C   UNL     1       6.329   5.801  16.054  0.00  0.00    +0.000 C 
ATOM      3  C   UNL     1       4.868   6.016  16.434  0.00  0.00    +0.000 C 
ATOM      4  N   UNL     1       4.607   5.422  17.744  0.00  0.00    +0.000 N 
ATOM      5  C   UNL     1       5.431   5.921  18.848  0.00  0.00    +0.000 C 
ATOM      6  C   UNL     1       6.908   5.715  18.515  0.00  0.00    +0.000 C 
ENDROOT
BRANCH   4   7
ATOM      7  C   UNL     1       3.672   4.416  17.921  0.00  0.00    +0.000 A 
ATOM      8  C   UNL     1       2.290   4.678  17.890  0.00  0.00    +0.000 A 
ATOM      9  C   UNL     1       1.334   3.670  18.068  0.00  0.00    +0.000 A 
ATOM     10  C   UNL     1       1.741   2.360  18.280  0.00  0.00    +0.000 A 
ATOM     11  C   UNL     1       3.097   2.078  18.313  0.00  0.00    +0.000 A 
ATOM     12  F   UNL     1       3.503   0.818  18.522  0.00  0.00    +0.000 F 
ATOM     13  C   UNL     1       4.049   3.082  18.138  0.00  0.00    +0.000 A 
ENDBRANCH   4   7
BRANCH   1  16
ATOM     14  O   UNL     1       8.798   7.899  18.943  0.00  0.00    +0.000 OA
ATOM     15  C   UNL     1       8.114   8.448  18.086  0.00  0.00    +0.000 C 
ATOM     16  N   UNL     1       7.344   7.758  17.173  0.00  0.00    +0.000 N 
ATOM     17  H   UNL     1       6.676   8.282  16.622  0.00  0.00    +0.000 HD
BRANCH  15  18
ATOM     18  C   UNL     1       8.009   9.953  17.944  0.00  0.00    +0.000 C 
BRANCH  18  19
ATOM     19  C   UNL     1       9.394  10.594  17.941  0.00  0.00    +0.000 C 
BRANCH  19  20
ATOM     20  C   UNL     1       9.620  11.473  19.139  0.00  0.00    +0.000 A 
ATOM     21  C   UNL     1       9.362  11.080  20.495  0.00  0.00    +0.000 A 
ATOM     22  C   UNL     1       9.677  12.065  21.404  0.00  0.00    +0.000 A 
ATOM     23  S   UNL     1      10.275  13.473  20.641  0.00  0.00    +0.000 S 
ATOM     24  C   UNL     1      10.122  12.761  19.093  0.00  0.00    +0.000 A 
ENDBRANCH  19  20
ENDBRANCH  18  19
ENDBRANCH  15  18
ENDBRANCH   1  16
TORSDOF 5
ENDMDL
MODEL 8
REMARK VINA RESULT:      -7.9      1.510      1.948
REMARK  Name = 
REMARK  5 active torsions:
REMARK  status: ('A' for Active; 'I' for Inactive)
REMARK    1  A    between atoms: C_2  and  C_3
REMARK    2  A    between atoms: C_3  and  C_4
REMARK    3  A    between atoms: C_4  and  C_5
REMARK    4  A    between atoms: N_10  and  C_11
REMARK    5  A    between atoms: N_14  and  C_15
REMARK                            x       y       z     vdW  Elec       q    Type
REMARK                         _______ _______ _______ _____ _____    ______ ____
ROOT
ATOM      1  C   UNL     1       5.401   6.462  17.120  0.00  0.00    +0.000 C 
ATOM      2  C   UNL     1       3.876   6.623  17.085  0.00  0.00    +0.000 C 
ATOM      3  C   UNL     1       3.275   6.640  18.486  0.00  0.00    +0.000 C 
ATOM      4  N   UNL     1       3.718   5.459  19.227  0.00  0.00    +0.000 N 
ATOM      5  C   UNL     1       5.167   5.300  19.368  0.00  0.00    +0.000 C 
ATOM      6  C   UNL     1       5.813   5.266  17.983  0.00  0.00    +0.000 C 
ENDROOT
BRANCH   4   7
ATOM      7  C   UNL     1       2.824   4.526  19.723  0.00  0.00    +0.000 A 
ATOM      8  C   UNL     1       2.751   4.228  21.096  0.00  0.00    +0.000 A 
ATOM      9  C   UNL     1       1.851   3.286  21.610  0.00  0.00    +0.000 A 
ATOM     10  C   UNL     1       0.990   2.613  20.755  0.00  0.00    +0.000 A 
ATOM     11  C   UNL     1       1.043   2.891  19.399  0.00  0.00    +0.000 A 
ATOM     12  F   UNL     1       0.219   2.244  18.562  0.00  0.00    +0.000 F 
ATOM     13  C   UNL     1       1.939   3.828  18.886  0.00  0.00    +0.000 A 
ENDBRANCH   4   7
BRANCH   1  16
ATOM     14  O   UNL     1       8.083   7.243  16.583  0.00  0.00    +0.000 OA
ATOM     15  C   UNL     1       7.364   7.990  17.239  0.00  0.00    +0.000 C 
ATOM     16  N   UNL     1       6.053   7.699  17.553  0.00  0.00    +0.000 N 
ATOM     17  H   UNL     1       5.589   8.278  18.241  0.00  0.00    +0.000 HD
BRANCH  15  18
ATOM     18  C   UNL     1       7.838   9.312  17.808  0.00  0.00    +0.000 C 
BRANCH  18  19
ATOM     19  C   UNL     1       8.949   9.093  18.832  0.00  0.00    +0.000 C 
BRANCH  19  20
ATOM     20  C   UNL     1       9.502  10.387  19.362  0.00  0.00    +0.000 A 
ATOM     21  C   UNL     1       9.211  10.921  20.661  0.00  0.00    +0.000 A 
ATOM     22  C   UNL     1       9.865  12.109  20.906  0.00  0.00    +0.000 A 
ATOM     23  S   UNL     1      10.824  12.597  19.579  0.00  0.00    +0.000 S 
ATOM     24  C   UNL     1      10.374  11.214  18.677  0.00  0.00    +0.000 A 
ENDBRANCH  19  20
ENDBRANCH  18  19
ENDBRANCH  15  18
ENDBRANCH   1  16
TORSDOF 5
ENDMDL
MODEL 9
REMARK VINA RESULT:      -7.8      1.273      1.429
REMARK  Name = 
REMARK  5 active torsions:
REMARK  status: ('A' for Active; 'I' for Inactive)
REMARK    1  A    between atoms: C_2  and  C_3
REMARK    2  A    between atoms: C_3  and  C_4
REMARK    3  A    between atoms: C_4  and  C_5
REMARK    4  A    between atoms: N_10  and  C_11
REMARK    5  A    between atoms: N_14  and  C_15
REMARK                            x       y       z     vdW  Elec       q    Type
REMARK                         _______ _______ _______ _____ _____    ______ ____
ROOT
ATOM      1  C   UNL     1       7.009   6.063  17.484  0.00  0.00    +0.000 C 
ATOM      2  C   UNL     1       5.585   6.473  17.091  0.00  0.00    +0.000 C 
ATOM      3  C   UNL     1       4.609   6.323  18.254  0.00  0.00    +0.000 C 
ATOM      4  N   UNL     1       4.694   4.968  18.797  0.00  0.00    +0.000 N 
ATOM      5  C   UNL     1       6.017   4.552  19.271  0.00  0.00    +0.000 C 
ATOM      6  C   UNL     1       7.028   4.674  18.132  0.00  0.00    +0.000 C 
ENDROOT
BRANCH   4   7
ATOM      7  C   UNL     1       3.604   4.116  18.819  0.00  0.00    +0.000 A 
ATOM      8  C   UNL     1       3.353   3.210  17.772  0.00  0.00    +0.000 A 
ATOM      9  C   UNL     1       2.252   2.343  17.782  0.00  0.00    +0.000 A 
ATOM     10  C   UNL     1       1.368   2.359  18.851  0.00  0.00    +0.000 A 
ATOM     11  C   UNL     1       1.596   3.242  19.894  0.00  0.00    +0.000 A 
ATOM     12  F   UNL     1       0.747   3.270  20.931  0.00  0.00    +0.000 F 
ATOM     13  C   UNL     1       2.690   4.106  19.885  0.00  0.00    +0.000 A 
ENDBRANCH   4   7
BRANCH   1  16
ATOM     14  O   UNL     1       8.105   8.551  16.649  0.00  0.00    +0.000 OA
ATOM     15  C   UNL     1       8.135   8.256  17.839  0.00  0.00    +0.000 C 
ATOM     16  N   UNL     1       7.633   7.073  18.340  0.00  0.00    +0.000 N 
ATOM     17  H   UNL     1       7.856   6.830  19.297  0.00  0.00    +0.000 HD
BRANCH  15  18
ATOM     18  C   UNL     1       8.754   9.142  18.900  0.00  0.00    +0.000 C 
BRANCH  18  19
ATOM     19  C   UNL     1       8.752  10.602  18.455  0.00  0.00    +0.000 C 
BRANCH  19  20
ATOM     20  C   UNL     1      10.090  11.261  18.645  0.00  0.00    +0.000 A 
ATOM     21  C   UNL     1      10.839  11.893  17.597  0.00  0.00    +0.000 A 
ATOM     22  C   UNL     1      12.022  12.440  18.043  0.00  0.00    +0.000 A 
ATOM     23  S   UNL     1      12.249  12.191  19.719  0.00  0.00    +0.000 S 
ATOM     24  C   UNL     1      10.759  11.361  19.851  0.00  0.00    +0.000 A 
ENDBRANCH  19  20
ENDBRANCH  18  19
ENDBRANCH  15  18
ENDBRANCH   1  16
TORSDOF 5
ENDMDL
