MODEL 1
REMARK VINA RESULT:      -7.7      0.000      0.000
REMARK  Name = 
REMARK  7 active torsions:
REMARK  status: ('A' for Active; 'I' for Inactive)
REMARK    1  A    between atoms: C_2  and  O_3
REMARK    2  A    between atoms: C_2  and  C_4
REMARK    3  A    between atoms: C_4  and  O_5
REMARK    4  A    between atoms: O_5  and  C_6
REMARK    5  A    between atoms: C_9  and  C_10
REMARK    6  A    between atoms: C_12  and  C_13
REMARK    7  A    between atoms: C_19  and  C_20
REMARK                            x       y       z     vdW  Elec       q    Type
REMARK                         _______ _______ _______ _____ _____    ______ ____
ROOT
ATOM      1  C   UNL     1       2.289   8.142  18.385  0.00  0.00    +0.000 A 
ATOM      2  N   UNL     1       1.666   7.012  18.648  0.00  0.00    +0.000 NA
ATOM      3  C   UNL     1       2.547   5.997  18.322  0.00  0.00    +0.000 A 
ATOM      4  C   UNL     1       3.709   6.512  17.754  0.00  0.00    +0.000 A 
ATOM      5  N   UNL     1       3.506   7.873  17.804  0.00  0.00    +0.000 N 
ATOM      6  H   UNL     1       4.143   8.569  17.453  0.00  0.00    +0.000 HD
ENDROOT
BRANCH   1  10
ATOM      7  C   UNL     1       0.936  12.125  19.170  0.00  0.00    +0.000 A 
ATOM      8  C   UNL     1       0.330  11.039  19.802  0.00  0.00    +0.000 A 
ATOM      9  C   UNL     1       0.769   9.739  19.542  0.00  0.00    +0.000 A 
ATOM     10  C   UNL     1       1.803   9.499  18.626  0.00  0.00    +0.000 A 
ATOM     11  C   UNL     1       2.354  10.589  17.942  0.00  0.00    +0.000 A 
ATOM     12  C   UNL     1       1.924  11.894  18.211  0.00  0.00    +0.000 A 
BRANCH   7  13
ATOM     13  O   UNL     1       0.629  13.438  19.419  0.00  0.00    +0.000 OA
BRANCH  13  14
ATOM     14  C   UNL     1       1.756  14.250  19.776  0.00  0.00    +0.000 C 
BRANCH  14  16
ATOM     15  O   UNL     1       1.295  14.353  22.150  0.00  0.00    +0.000 OA
ATOM     16  C   UNL     1       2.073  14.074  21.248  0.00  0.00    +0.000 C 
BRANCH  16  17
ATOM     17  O   UNL     1       3.311  13.575  21.480  0.00  0.00    +0.000 OA
ATOM     18  H   UNL     1       3.403  12.705  21.030  0.00  0.00    +0.000 HD
ENDBRANCH  16  17
ENDBRANCH  14  16
ENDBRANCH  13  14
ENDBRANCH   7  13
ENDBRANCH   1  10
BRANCH   3  19
ATOM     19  C   UNL     1       2.224   4.599  18.570  0.00  0.00    +0.000 A 
ATOM     20  C   UNL     1       2.506   3.639  17.589  0.00  0.00    +0.000 A 
ATOM     21  C   UNL     1       2.242   2.286  17.825  0.00  0.00    +0.000 A 
ATOM     22  C   UNL     1       1.696   1.880  19.041  0.00  0.00    +0.000 A 
ATOM     23  C   UNL     1       1.387   2.829  20.013  0.00  0.00    +0.000 A 
ATOM     24  C   UNL     1       1.630   4.181  19.769  0.00  0.00    +0.000 A 
ENDBRANCH   3  19
BRANCH   4  25
ATOM     25  C   UNL     1       4.923   5.925  17.177  0.00  0.00    +0.000 A 
ATOM     26  C   UNL     1       5.107   5.867  15.788  0.00  0.00    +0.000 A 
ATOM     27  C   UNL     1       6.223   5.237  15.234  0.00  0.00    +0.000 A 
ATOM     28  C   UNL     1       7.200   4.696  16.064  0.00  0.00    +0.000 A 
ATOM     29  C   UNL     1       7.059   4.783  17.447  0.00  0.00    +0.000 A 
ATOM     30  C   UNL     1       5.924   5.387  18.000  0.00  0.00    +0.000 A 
ENDBRANCH   4  25
TORSDOF 7
ENDMDL
MODEL 2
REMARK VINA RESULT:      -7.6      4.338      8.824
REMARK  Name = 
REMARK  7 active torsions:
REMARK  status: ('A' for Active; 'I' for Inactive)
REMARK    1  A    between atoms: C_2  and  O_3
REMARK    2  A    between atoms: C_2  and  C_4
REMARK    3  A    between atoms: C_4  and  O_5
REMARK    4  A    between atoms: O_5  and  C_6
REMARK    5  A    between atoms: C_9  and  C_10
REMARK    6  A    between atoms: C_12  and  C_13
REMARK    7  A    between atoms: C_19  and  C_20
REMARK                            x       y       z     vdW  Elec       q    Type
REMARK                         _______ _______ _______ _____ _____    ______ ____
ROOT
ATOM      1  C   UNL     1       1.475   8.763  18.909  0.00  0.00    +0.000 A 
ATOM      2  N   UNL     1       1.448   9.590  19.933  0.00  0.00    +0.000 NA
ATOM      3  C   UNL     1       0.268  10.304  19.824  0.00  0.00    +0.000 A 
ATOM      4  C   UNL     1      -0.405   9.976  18.650  0.00  0.00    +0.000 A 
ATOM      5  N   UNL     1       0.394   9.002  18.094  0.00  0.00    +0.000 N 
ATOM      6  H   UNL     1       0.223   8.543  17.214  0.00  0.00    +0.000 HD
ENDROOT
BRANCH   1  10
ATOM      7  C   UNL     1       4.359   5.735  17.999  0.00  0.00    +0.000 A 
ATOM      8  C   UNL     1       3.566   5.630  19.142  0.00  0.00    +0.000 A 
ATOM      9  C   UNL     1       2.628   6.620  19.441  0.00  0.00    +0.000 A 
ATOM     10  C   UNL     1       2.484   7.747  18.618  0.00  0.00    +0.000 A 
ATOM     11  C   UNL     1       3.336   7.879  17.515  0.00  0.00    +0.000 A 
ATOM     12  C   UNL     1       4.268   6.881  17.207  0.00  0.00    +0.000 A 
BRANCH   7  13
ATOM     13  O   UNL     1       5.248   4.779  17.582  0.00  0.00    +0.000 OA
BRANCH  13  14
ATOM     14  C   UNL     1       5.597   4.865  16.193  0.00  0.00    +0.000 C 
BRANCH  14  16
ATOM     15  O   UNL     1       7.868   4.379  16.875  0.00  0.00    +0.000 OA
ATOM     16  C   UNL     1       7.105   4.839  16.037  0.00  0.00    +0.000 C 
BRANCH  16  17
ATOM     17  O   UNL     1       7.539   5.380  14.872  0.00  0.00    +0.000 OA
ATOM     18  H   UNL     1       7.452   4.716  14.151  0.00  0.00    +0.000 HD
ENDBRANCH  16  17
ENDBRANCH  14  16
ENDBRANCH  13  14
ENDBRANCH   7  13
ENDBRANCH   1  10
BRANCH   3  19
ATOM     19  C   UNL     1      -0.142  11.259  20.845  0.00  0.00    +0.000 A 
ATOM     20  C   UNL     1       0.162  12.617  20.685  0.00  0.00    +0.000 A 
ATOM     21  C   UNL     1      -0.259  13.555  21.633  0.00  0.00    +0.000 A 
ATOM     22  C   UNL     1      -0.989  13.144  22.748  0.00  0.00    +0.000 A 
ATOM     23  C   UNL     1      -1.275  11.793  22.930  0.00  0.00    +0.000 A 
ATOM     24  C   UNL     1      -0.834  10.855  21.995  0.00  0.00    +0.000 A 
ENDBRANCH   3  19
BRANCH   4  25
ATOM     25  C   UNL     1      -1.631  10.445  17.998  0.00  0.00    +0.000 A 
ATOM     26  C   UNL     1      -2.497  11.338  18.645  0.00  0.00    +0.000 A 
ATOM     27  C   UNL     1      -3.705  11.723  18.061  0.00  0.00    +0.000 A 
ATOM     28  C   UNL     1      -4.045  11.258  16.794  0.00  0.00    +0.000 A 
ATOM     29  C   UNL     1      -3.178  10.406  16.115  0.00  0.00    +0.000 A 
ATOM     30  C   UNL     1      -1.982   9.997  16.715  0.00  0.00    +0.000 A 
ENDBRANCH   4  25
TORSDOF 7
ENDMDL
MODEL 3
REMARK VINA RESULT:      -7.6      4.228      8.877
REMARK  Name = 
REMARK  7 active torsions:
REMARK  status: ('A' for Active; 'I' for Inactive)
REMARK    1  A    between atoms: C_2  and  O_3
REMARK    2  A    between atoms: C_2  and  C_4
REMARK    3  A    between atoms: C_4  and  O_5
REMARK    4  A    between atoms: O_5  and  C_6
REMARK    5  A    between atoms: C_9  and  C_10
REMARK    6  A    between atoms: C_12  and  C_13
REMARK    7  A    between atoms: C_19  and  C_20
REMARK                            x       y       z     vdW  Elec       q    Type
REMARK                         _______ _______ _______ _____ _____    ______ ____
ROOT
ATOM      1  C   UNL     1       1.263   9.023  18.986  0.00  0.00    +0.000 A 
ATOM      2  N   UNL     1       1.268   9.912  19.958  0.00  0.00    +0.000 NA
ATOM      3  C   UNL     1       0.094  10.633  19.830  0.00  0.00    +0.000 A 
ATOM      4  C   UNL     1      -0.608  10.243  18.694  0.00  0.00    +0.000 A 
ATOM      5  N   UNL     1       0.167   9.226  18.181  0.00  0.00    +0.000 N 
ATOM      6  H   UNL     1      -0.028   8.717  17.334  0.00  0.00    +0.000 HD
ENDROOT
BRANCH   1  10
ATOM      7  C   UNL     1       4.091   5.909  18.201  0.00  0.00    +0.000 A 
ATOM      8  C   UNL     1       3.326   5.886  19.367  0.00  0.00    +0.000 A 
ATOM      9  C   UNL     1       2.406   6.904  19.625  0.00  0.00    +0.000 A 
ATOM     10  C   UNL     1       2.254   7.979  18.736  0.00  0.00    +0.000 A 
ATOM     11  C   UNL     1       3.080   8.031  17.606  0.00  0.00    +0.000 A 
ATOM     12  C   UNL     1       3.993   7.003  17.340  0.00  0.00    +0.000 A 
BRANCH   7  13
ATOM     13  O   UNL     1       4.960   4.918  17.824  0.00  0.00    +0.000 OA
BRANCH  13  14
ATOM     14  C   UNL     1       6.212   4.933  18.525  0.00  0.00    +0.000 C 
BRANCH  14  16
ATOM     15  O   UNL     1       7.541   6.217  16.962  0.00  0.00    +0.000 OA
ATOM     16  C   UNL     1       7.348   5.160  17.547  0.00  0.00    +0.000 C 
BRANCH  16  17
ATOM     17  O   UNL     1       8.141   4.074  17.375  0.00  0.00    +0.000 OA
ATOM     18  H   UNL     1       8.900   4.312  16.798  0.00  0.00    +0.000 HD
ENDBRANCH  16  17
ENDBRANCH  14  16
ENDBRANCH  13  14
ENDBRANCH   7  13
ENDBRANCH   1  10
BRANCH   3  19
ATOM     19  C   UNL     1      -0.282  11.653  20.800  0.00  0.00    +0.000 A 
ATOM     20  C   UNL     1      -0.928  11.277  21.985  0.00  0.00    +0.000 A 
ATOM     21  C   UNL     1      -1.260  12.236  22.947  0.00  0.00    +0.000 A 
ATOM     22  C   UNL     1      -0.949  13.578  22.734  0.00  0.00    +0.000 A 
ATOM     23  C   UNL     1      -0.330  13.967  21.548  0.00  0.00    +0.000 A 
ATOM     24  C   UNL     1      -0.019  13.011  20.579  0.00  0.00    +0.000 A 
ENDBRANCH   3  19
BRANCH   4  25
ATOM     25  C   UNL     1      -1.843  10.687  18.040  0.00  0.00    +0.000 A 
ATOM     26  C   UNL     1      -2.784  11.465  18.728  0.00  0.00    +0.000 A 
ATOM     27  C   UNL     1      -3.997  11.822  18.136  0.00  0.00    +0.000 A 
ATOM     28  C   UNL     1      -4.269  11.444  16.824  0.00  0.00    +0.000 A 
ATOM     29  C   UNL     1      -3.328  10.709  16.108  0.00  0.00    +0.000 A 
ATOM     30  C   UNL     1      -2.126  10.326  16.713  0.00  0.00    +0.000 A 
ENDBRANCH   4  25
TORSDOF 7
ENDMDL
MODEL 4
REMARK VINA RESULT:      -7.6      0.127      1.426
REMARK  Name = 
REMARK  7 active torsions:
REMARK  status: ('A' for Active; 'I' for Inactive)
REMARK    1  A    between atoms: C_2  and  O_3
REMARK    2  A    between atoms: C_2  and  C_4
REMARK    3  A    between atoms: C_4  and  O_5
REMARK    4  A    between atoms: O_5  and  C_6
REMARK    5  A    between atoms: C_9  and  C_10
REMARK    6  A    between atoms: C_12  and  C_13
REMARK    7  A    between atoms: C_19  and  C_20
REMARK                            x       y       z     vdW  Elec       q    Type
REMARK                         _______ _______ _______ _____ _____    ______ ____
ROOT
ATOM      1  C   UNL     1       2.320   8.145  18.336  0.00  0.00    +0.000 A 
ATOM      2  N   UNL     1       1.688   7.024  18.617  0.00  0.00    +0.000 NA
ATOM      3  C   UNL     1       2.555   5.997  18.292  0.00  0.00    +0.000 A 
ATOM      4  C   UNL     1       3.715   6.493  17.705  0.00  0.00    +0.000 A 
ATOM      5  N   UNL     1       3.527   7.857  17.744  0.00  0.00    +0.000 N 
ATOM      6  H   UNL     1       4.168   8.543  17.380  0.00  0.00    +0.000 HD
ENDROOT
BRANCH   1  10
ATOM      7  C   UNL     1       1.011  12.146  19.103  0.00  0.00    +0.000 A 
ATOM      8  C   UNL     1       0.334  11.065  19.668  0.00  0.00    +0.000 A 
ATOM      9  C   UNL     1       0.759   9.759  19.414  0.00  0.00    +0.000 A 
ATOM     10  C   UNL     1       1.850   9.509  18.569  0.00  0.00    +0.000 A 
ATOM     11  C   UNL     1       2.476  10.597  17.949  0.00  0.00    +0.000 A 
ATOM     12  C   UNL     1       2.059  11.908  18.213  0.00  0.00    +0.000 A 
BRANCH   7  13
ATOM     13  O   UNL     1       0.718  13.461  19.356  0.00  0.00    +0.000 OA
BRANCH  13  14
ATOM     14  C   UNL     1       1.853  14.258  19.723  0.00  0.00    +0.000 C 
BRANCH  14  16
ATOM     15  O   UNL     1       3.340  13.601  21.516  0.00  0.00    +0.000 OA
ATOM     16  C   UNL     1       2.232  13.983  21.165  0.00  0.00    +0.000 C 
BRANCH  16  17
ATOM     17  O   UNL     1       1.223  14.200  22.042  0.00  0.00    +0.000 OA
ATOM     18  H   UNL     1       0.722  15.003  21.773  0.00  0.00    +0.000 HD
ENDBRANCH  16  17
ENDBRANCH  14  16
ENDBRANCH  13  14
ENDBRANCH   7  13
ENDBRANCH   1  10
BRANCH   3  19
ATOM     19  C   UNL     1       2.220   4.604  18.557  0.00  0.00    +0.000 A 
ATOM     20  C   UNL     1       1.513   4.271  19.720  0.00  0.00    +0.000 A 
ATOM     21  C   UNL     1       1.146   2.946  19.971  0.00  0.00    +0.000 A 
ATOM     22  C   UNL     1       1.479   1.942  19.063  0.00  0.00    +0.000 A 
ATOM     23  C   UNL     1       2.204   2.258  17.916  0.00  0.00    +0.000 A 
ATOM     24  C   UNL     1       2.590   3.578  17.677  0.00  0.00    +0.000 A 
ENDBRANCH   3  19
BRANCH   4  25
ATOM     25  C   UNL     1       4.916   5.889  17.121  0.00  0.00    +0.000 A 
ATOM     26  C   UNL     1       5.935   5.374  17.935  0.00  0.00    +0.000 A 
ATOM     27  C   UNL     1       7.115   4.871  17.384  0.00  0.00    +0.000 A 
ATOM     28  C   UNL     1       7.276   4.832  16.002  0.00  0.00    +0.000 A 
ATOM     29  C   UNL     1       6.258   5.297  15.174  0.00  0.00    +0.000 A 
ATOM     30  C   UNL     1       5.089   5.829  15.729  0.00  0.00    +0.000 A 
ENDBRANCH   4  25
TORSDOF 7
ENDMDL
MODEL 5
REMARK VINA RESULT:      -7.5      1.263      3.994
REMARK  Name = 
REMARK  7 active torsions:
REMARK  status: ('A' for Active; 'I' for Inactive)
REMARK    1  A    between atoms: C_2  and  O_3
REMARK    2  A    between atoms: C_2  and  C_4
REMARK    3  A    between atoms: C_4  and  O_5
REMARK    4  A    between atoms: O_5  and  C_6
REMARK    5  A    between atoms: C_9  and  C_10
REMARK    6  A    between atoms: C_12  and  C_13
REMARK    7  A    between atoms: C_19  and  C_20
REMARK                            x       y       z     vdW  Elec       q    Type
REMARK                         _______ _______ _______ _____ _____    ______ ____
ROOT
ATOM      1  C   UNL     1       2.277   8.442  18.171  0.00  0.00    +0.000 A 
ATOM      2  N   UNL     1       3.491   8.171  17.740  0.00  0.00    +0.000 NA
ATOM      3  C   UNL     1       3.619   6.795  17.780  0.00  0.00    +0.000 A 
ATOM      4  C   UNL     1       2.489   6.207  18.340  0.00  0.00    +0.000 A 
ATOM      5  N   UNL     1       1.664   7.283  18.582  0.00  0.00    +0.000 N 
ATOM      6  H   UNL     1       0.754   7.233  19.011  0.00  0.00    +0.000 HD
ENDROOT
BRANCH   1  10
ATOM      7  C   UNL     1       0.417  12.282  18.506  0.00  0.00    +0.000 A 
ATOM      8  C   UNL     1      -0.356  11.121  18.536  0.00  0.00    +0.000 A 
ATOM      9  C   UNL     1       0.250   9.868  18.423  0.00  0.00    +0.000 A 
ATOM     10  C   UNL     1       1.637   9.754  18.250  0.00  0.00    +0.000 A 
ATOM     11  C   UNL     1       2.395  10.927  18.147  0.00  0.00    +0.000 A 
ATOM     12  C   UNL     1       1.790  12.183  18.273  0.00  0.00    +0.000 A 
BRANCH   7  13
ATOM     13  O   UNL     1      -0.077  13.547  18.688  0.00  0.00    +0.000 OA
BRANCH  13  14
ATOM     14  C   UNL     1       0.930  14.554  18.858  0.00  0.00    +0.000 C 
BRANCH  14  16
ATOM     15  O   UNL     1       0.835  16.667  20.036  0.00  0.00    +0.000 OA
ATOM     16  C   UNL     1       0.290  15.856  19.299  0.00  0.00    +0.000 C 
BRANCH  16  17
ATOM     17  O   UNL     1      -0.956  16.045  18.801  0.00  0.00    +0.000 OA
ATOM     18  H   UNL     1      -1.531  15.291  19.064  0.00  0.00    +0.000 HD
ENDBRANCH  16  17
ENDBRANCH  14  16
ENDBRANCH  13  14
ENDBRANCH   7  13
ENDBRANCH   1  10
BRANCH   3  19
ATOM     19  C   UNL     1       4.814   6.125  17.284  0.00  0.00    +0.000 A 
ATOM     20  C   UNL     1       5.692   5.515  18.189  0.00  0.00    +0.000 A 
ATOM     21  C   UNL     1       6.823   4.832  17.730  0.00  0.00    +0.000 A 
ATOM     22  C   UNL     1       7.085   4.751  16.363  0.00  0.00    +0.000 A 
ATOM     23  C   UNL     1       6.233   5.376  15.456  0.00  0.00    +0.000 A 
ATOM     24  C   UNL     1       5.117   6.077  15.916  0.00  0.00    +0.000 A 
ENDBRANCH   3  19
BRANCH   4  25
ATOM     25  C   UNL     1       2.102   4.835  18.684  0.00  0.00    +0.000 A 
ATOM     26  C   UNL     1       1.607   4.521  19.957  0.00  0.00    +0.000 A 
ATOM     27  C   UNL     1       1.313   3.204  20.313  0.00  0.00    +0.000 A 
ATOM     28  C   UNL     1       1.466   2.180  19.382  0.00  0.00    +0.000 A 
ATOM     29  C   UNL     1       1.913   2.476  18.098  0.00  0.00    +0.000 A 
ATOM     30  C   UNL     1       2.236   3.793  17.752  0.00  0.00    +0.000 A 
ENDBRANCH   4  25
TORSDOF 7
ENDMDL
MODEL 6
REMARK VINA RESULT:      -7.5      0.674      1.295
REMARK  Name = 
REMARK  7 active torsions:
REMARK  status: ('A' for Active; 'I' for Inactive)
REMARK    1  A    between atoms: C_2  and  O_3
REMARK    2  A    between atoms: C_2  and  C_4
REMARK    3  A    between atoms: C_4  and  O_5
REMARK    4  A    between atoms: O_5  and  C_6
REMARK    5  A    between atoms: C_9  and  C_10
REMARK    6  A    between atoms: C_12  and  C_13
REMARK    7  A    between atoms: C_19  and  C_20
REMARK                            x       y       z     vdW  Elec       q    Type
REMARK                         _______ _______ _______ _____ _____    ______ ____
ROOT
ATOM      1  C   UNL     1       2.158   8.390  18.211  0.00  0.00    +0.000 A 
ATOM      2  N   UNL     1       1.525   7.284  18.546  0.00  0.00    +0.000 NA
ATOM      3  C   UNL     1       2.422   6.250  18.354  0.00  0.00    +0.000 A 
ATOM      4  C   UNL     1       3.608   6.717  17.797  0.00  0.00    +0.000 A 
ATOM      5  N   UNL     1       3.401   8.076  17.714  0.00  0.00    +0.000 N 
ATOM      6  H   UNL     1       4.053   8.742  17.332  0.00  0.00    +0.000 HD
ENDROOT
BRANCH   1  10
ATOM      7  C   UNL     1       0.721  12.403  18.591  0.00  0.00    +0.000 A 
ATOM      8  C   UNL     1      -0.146  11.325  18.775  0.00  0.00    +0.000 A 
ATOM      9  C   UNL     1       0.322  10.015  18.646  0.00  0.00    +0.000 A 
ATOM     10  C   UNL     1       1.658   9.760  18.305  0.00  0.00    +0.000 A 
ATOM     11  C   UNL     1       2.502  10.848  18.051  0.00  0.00    +0.000 A 
ATOM     12  C   UNL     1       2.037  12.161  18.192  0.00  0.00    +0.000 A 
BRANCH   7  13
ATOM     13  O   UNL     1       0.374  13.716  18.773  0.00  0.00    +0.000 OA
BRANCH  13  14
ATOM     14  C   UNL     1       1.258  14.445  19.635  0.00  0.00    +0.000 C 
BRANCH  14  16
ATOM     15  O   UNL     1       1.581  14.178  22.019  0.00  0.00    +0.000 OA
ATOM     16  C   UNL     1       0.810  14.300  21.077  0.00  0.00    +0.000 C 
BRANCH  16  17
ATOM     17  O   UNL     1      -0.536  14.317  21.231  0.00  0.00    +0.000 OA
ATOM     18  H   UNL     1      -0.899  13.425  21.030  0.00  0.00    +0.000 HD
ENDBRANCH  16  17
ENDBRANCH  14  16
ENDBRANCH  13  14
ENDBRANCH   7  13
ENDBRANCH   1  10
BRANCH   3  19
ATOM     19  C   UNL     1       2.090   4.877  18.712  0.00  0.00    +0.000 A 
ATOM     20  C   UNL     1       1.632   4.590  20.005  0.00  0.00    +0.000 A 
ATOM     21  C   UNL     1       1.269   3.286  20.355  0.00  0.00    +0.000 A 
ATOM     22  C   UNL     1       1.358   2.258  19.417  0.00  0.00    +0.000 A 
ATOM     23  C   UNL     1       1.836   2.527  18.137  0.00  0.00    +0.000 A 
ATOM     24  C   UNL     1       2.220   3.825  17.795  0.00  0.00    +0.000 A 
ENDBRANCH   3  19
BRANCH   4  25
ATOM     25  C   UNL     1       4.849   6.089  17.333  0.00  0.00    +0.000 A 
ATOM     26  C   UNL     1       5.152   6.010  15.966  0.00  0.00    +0.000 A 
ATOM     27  C   UNL     1       6.292   5.341  15.516  0.00  0.00    +0.000 A 
ATOM     28  C   UNL     1       7.176   4.779  16.433  0.00  0.00    +0.000 A 
ATOM     29  C   UNL     1       6.917   4.885  17.797  0.00  0.00    +0.000 A 
ATOM     30  C   UNL     1       5.758   5.529  18.244  0.00  0.00    +0.000 A 
ENDBRANCH   4  25
TORSDOF 7
ENDMDL
MODEL 7
REMARK VINA RESULT:      -7.5      4.200      9.040
REMARK  Name = 
REMARK  7 active torsions:
REMARK  status: ('A' for Active; 'I' for Inactive)
REMARK    1  A    between atoms: C_2  and  O_3
REMARK    2  A    between atoms: C_2  and  C_4
REMARK    3  A    between atoms: C_4  and  O_5
REMARK    4  A    between atoms: O_5  and  C_6
REMARK    5  A    between atoms: C_9  and  C_10
REMARK    6  A    between atoms: C_12  and  C_13
REMARK    7  A    between atoms: C_19  and  C_20
REMARK                            x       y       z     vdW  Elec       q    Type
REMARK                         _______ _______ _______ _____ _____    ______ ____
ROOT
ATOM      1  C   UNL     1       1.367   9.199  18.492  0.00  0.00    +0.000 A 
ATOM      2  N   UNL     1       1.595  10.401  18.978  0.00  0.00    +0.000 NA
ATOM      3  C   UNL     1       0.421  11.114  18.817  0.00  0.00    +0.000 A 
ATOM      4  C   UNL     1      -0.527  10.363  18.128  0.00  0.00    +0.000 A 
ATOM      5  N   UNL     1       0.112   9.158  17.933  0.00  0.00    +0.000 N 
ATOM      6  H   UNL     1      -0.275   8.369  17.440  0.00  0.00    +0.000 HD
ENDROOT
BRANCH   1  10
ATOM      7  C   UNL     1       4.102   5.908  18.553  0.00  0.00    +0.000 A 
ATOM      8  C   UNL     1       4.120   6.817  17.495  0.00  0.00    +0.000 A 
ATOM      9  C   UNL     1       3.224   7.889  17.473  0.00  0.00    +0.000 A 
ATOM     10  C   UNL     1       2.277   8.055  18.494  0.00  0.00    +0.000 A 
ATOM     11  C   UNL     1       2.219   7.096  19.512  0.00  0.00    +0.000 A 
ATOM     12  C   UNL     1       3.125   6.029  19.542  0.00  0.00    +0.000 A 
BRANCH   7  13
ATOM     13  O   UNL     1       4.990   4.875  18.701  0.00  0.00    +0.000 OA
BRANCH  13  14
ATOM     14  C   UNL     1       5.844   4.663  17.568  0.00  0.00    +0.000 C 
BRANCH  14  16
ATOM     15  O   UNL     1       7.684   5.232  19.035  0.00  0.00    +0.000 OA
ATOM     16  C   UNL     1       7.297   4.704  18.001  0.00  0.00    +0.000 C 
BRANCH  16  17
ATOM     17  O   UNL     1       8.139   4.098  17.130  0.00  0.00    +0.000 OA
ATOM     18  H   UNL     1       8.302   4.694  16.364  0.00  0.00    +0.000 HD
ENDBRANCH  16  17
ENDBRANCH  14  16
ENDBRANCH  13  14
ENDBRANCH   7  13
ENDBRANCH   1  10
BRANCH   3  19
ATOM     19  C   UNL     1       0.277  12.471  19.329  0.00  0.00    +0.000 A 
ATOM     20  C   UNL     1       0.512  13.559  18.479  0.00  0.00    +0.000 A 
ATOM     21  C   UNL     1       0.339  14.868  18.939  0.00  0.00    +0.000 A 
ATOM     22  C   UNL     1      -0.072  15.101  20.250  0.00  0.00    +0.000 A 
ATOM     23  C   UNL     1      -0.283  14.027  21.111  0.00  0.00    +0.000 A 
ATOM     24  C   UNL     1      -0.088  12.721  20.658  0.00  0.00    +0.000 A 
ENDBRANCH   3  19
BRANCH   4  25
ATOM     25  C   UNL     1      -1.883  10.616  17.632  0.00  0.00    +0.000 A 
ATOM     26  C   UNL     1      -2.283  10.169  16.365  0.00  0.00    +0.000 A 
ATOM     27  C   UNL     1      -3.547  10.478  15.857  0.00  0.00    +0.000 A 
ATOM     28  C   UNL     1      -4.450  11.202  16.630  0.00  0.00    +0.000 A 
ATOM     29  C   UNL     1      -4.088  11.616  17.909  0.00  0.00    +0.000 A 
ATOM     30  C   UNL     1      -2.811  11.332  18.404  0.00  0.00    +0.000 A 
ENDBRANCH   4  25
TORSDOF 7
ENDMDL
MODEL 8
REMARK VINA RESULT:      -7.5      1.496      4.104
REMARK  Name = 
REMARK  7 active torsions:
REMARK  status: ('A' for Active; 'I' for Inactive)
REMARK    1  A    between atoms: C_2  and  O_3
REMARK    2  A    between atoms: C_2  and  C_4
REMARK    3  A    between atoms: C_4  and  O_5
REMARK    4  A    between atoms: O_5  and  C_6
REMARK    5  A    between atoms: C_9  and  C_10
REMARK    6  A    between atoms: C_12  and  C_13
REMARK    7  A    between atoms: C_19  and  C_20
REMARK                            x       y       z     vdW  Elec       q    Type
REMARK                         _______ _______ _______ _____ _____    ______ ____
ROOT
ATOM      1  C   UNL     1       2.211   8.504  18.291  0.00  0.00    +0.000 A 
ATOM      2  N   UNL     1       3.403   8.232  17.801  0.00  0.00    +0.000 NA
ATOM      3  C   UNL     1       3.561   6.862  17.906  0.00  0.00    +0.000 A 
ATOM      4  C   UNL     1       2.479   6.285  18.564  0.00  0.00    +0.000 A 
ATOM      5  N   UNL     1       1.648   7.358  18.798  0.00  0.00    +0.000 N 
ATOM      6  H   UNL     1       0.766   7.315  19.283  0.00  0.00    +0.000 HD
ENDROOT
BRANCH   1  10
ATOM      7  C   UNL     1       0.264  12.315  18.324  0.00  0.00    +0.000 A 
ATOM      8  C   UNL     1       1.653  12.236  18.229  0.00  0.00    +0.000 A 
ATOM      9  C   UNL     1       2.289  10.993  18.222  0.00  0.00    +0.000 A 
ATOM     10  C   UNL     1       1.550   9.807  18.339  0.00  0.00    +0.000 A 
ATOM     11  C   UNL     1       0.163   9.900  18.509  0.00  0.00    +0.000 A 
ATOM     12  C   UNL     1      -0.477  11.145  18.502  0.00  0.00    +0.000 A 
BRANCH   7  13
ATOM     13  O   UNL     1      -0.453  13.482  18.260  0.00  0.00    +0.000 OA
BRANCH  13  14
ATOM     14  C   UNL     1      -0.232  14.371  19.363  0.00  0.00    +0.000 C 
BRANCH  14  16
ATOM     15  O   UNL     1       1.189  16.179  18.608  0.00  0.00    +0.000 OA
ATOM     16  C   UNL     1       0.063  15.767  18.851  0.00  0.00    +0.000 C 
BRANCH  16  17
ATOM     17  O   UNL     1      -1.045  16.530  18.687  0.00  0.00    +0.000 OA
ATOM     18  H   UNL     1      -1.245  16.612  17.727  0.00  0.00    +0.000 HD
ENDBRANCH  16  17
ENDBRANCH  14  16
ENDBRANCH  13  14
ENDBRANCH   7  13
ENDBRANCH   1  10
BRANCH   3  19
ATOM     19  C   UNL     1       4.739   6.189  17.375  0.00  0.00    +0.000 A 
ATOM     20  C   UNL     1       5.608   5.522  18.248  0.00  0.00    +0.000 A 
ATOM     21  C   UNL     1       6.721   4.834  17.753  0.00  0.00    +0.000 A 
ATOM     22  C   UNL     1       6.974   4.806  16.382  0.00  0.00    +0.000 A 
ATOM     23  C   UNL     1       6.131   5.487  15.508  0.00  0.00    +0.000 A 
ATOM     24  C   UNL     1       5.033   6.192  16.004  0.00  0.00    +0.000 A 
ENDBRANCH   3  19
BRANCH   4  25
ATOM     25  C   UNL     1       2.142   4.927  19.002  0.00  0.00    +0.000 A 
ATOM     26  C   UNL     1       1.854   3.919  18.071  0.00  0.00    +0.000 A 
ATOM     27  C   UNL     1       1.454   2.647  18.484  0.00  0.00    +0.000 A 
ATOM     28  C   UNL     1       1.381   2.348  19.842  0.00  0.00    +0.000 A 
ATOM     29  C   UNL     1       1.706   3.321  20.783  0.00  0.00    +0.000 A 
ATOM     30  C   UNL     1       2.077   4.604  20.366  0.00  0.00    +0.000 A 
ENDBRANCH   4  25
TORSDOF 7
ENDMDL
MODEL 9
REMARK VINA RESULT:      -7.5      0.765      3.825
REMARK  Name = 
REMARK  7 active torsions:
REMARK  status: ('A' for Active; 'I' for Inactive)
REMARK    1  A    between atoms: C_2  and  O_3
REMARK    2  A    between atoms: C_2  and  C_4
REMARK    3  A    between atoms: C_4  and  O_5
REMARK    4  A    between atoms: O_5  and  C_6
REMARK    5  A    between atoms: C_9  and  C_10
REMARK    6  A    between atoms: C_12  and  C_13
REMARK    7  A    between atoms: C_19  and  C_20
REMARK                            x       y       z     vdW  Elec       q    Type
REMARK                         _______ _______ _______ _____ _____    ______ ____
ROOT
ATOM      1  C   UNL     1       2.365   8.308  18.115  0.00  0.00    +0.000 A 
ATOM      2  N   UNL     1       3.577   8.052  17.666  0.00  0.00    +0.000 NA
ATOM      3  C   UNL     1       3.706   6.675  17.659  0.00  0.00    +0.000 A 
ATOM      4  C   UNL     1       2.580   6.068  18.207  0.00  0.00    +0.000 A 
ATOM      5  N   UNL     1       1.756   7.135  18.491  0.00  0.00    +0.000 N 
ATOM      6  H   UNL     1       0.849   7.069  18.924  0.00  0.00    +0.000 HD
ENDROOT
BRANCH   1  10
ATOM      7  C   UNL     1       0.514  12.137  18.591  0.00  0.00    +0.000 A 
ATOM      8  C   UNL     1      -0.245  10.971  18.697  0.00  0.00    +0.000 A 
ATOM      9  C   UNL     1       0.358   9.721  18.538  0.00  0.00    +0.000 A 
ATOM     10  C   UNL     1       1.725   9.616  18.242  0.00  0.00    +0.000 A 
ATOM     11  C   UNL     1       2.462  10.793  18.065  0.00  0.00    +0.000 A 
ATOM     12  C   UNL     1       1.861  12.046  18.237  0.00  0.00    +0.000 A 
BRANCH   7  13
ATOM     13  O   UNL     1       0.028  13.400  18.808  0.00  0.00    +0.000 OA
BRANCH  13  14
ATOM     14  C   UNL     1      -0.459  13.623  20.139  0.00  0.00    +0.000 C 
BRANCH  14  16
ATOM     15  O   UNL     1       1.449  13.618  21.628  0.00  0.00    +0.000 OA
ATOM     16  C   UNL     1       0.626  14.257  20.987  0.00  0.00    +0.000 C 
BRANCH  16  17
ATOM     17  O   UNL     1       0.604  15.612  20.973  0.00  0.00    +0.000 OA
ATOM     18  H   UNL     1       0.086  15.938  21.743  0.00  0.00    +0.000 HD
ENDBRANCH  16  17
ENDBRANCH  14  16
ENDBRANCH  13  14
ENDBRANCH   7  13
ENDBRANCH   1  10
BRANCH   3  19
ATOM     19  C   UNL     1       4.898   6.024  17.133  0.00  0.00    +0.000 A 
ATOM     20  C   UNL     1       5.863   5.527  18.018  0.00  0.00    +0.000 A 
ATOM     21  C   UNL     1       6.994   4.862  17.534  0.00  0.00    +0.000 A 
ATOM     22  C   UNL     1       7.170   4.687  16.162  0.00  0.00    +0.000 A 
ATOM     23  C   UNL     1       6.230   5.200  15.272  0.00  0.00    +0.000 A 
ATOM     24  C   UNL     1       5.113   5.884  15.755  0.00  0.00    +0.000 A 
ENDBRANCH   3  19
BRANCH   4  25
ATOM     25  C   UNL     1       2.196   4.685  18.507  0.00  0.00    +0.000 A 
ATOM     26  C   UNL     1       1.504   4.366  19.683  0.00  0.00    +0.000 A 
ATOM     27  C   UNL     1       1.208   3.042  20.011  0.00  0.00    +0.000 A 
ATOM     28  C   UNL     1       1.559   2.014  19.139  0.00  0.00    +0.000 A 
ATOM     29  C   UNL     1       2.207   2.313  17.944  0.00  0.00    +0.000 A 
ATOM     30  C   UNL     1       2.530   3.639  17.633  0.00  0.00    +0.000 A 
ENDBRANCH   4  25
TORSDOF 7
ENDMDL
