MODEL 1
REMARK VINA RESULT:      -8.2      0.000      0.000
REMARK  Name = 
REMARK  4 active torsions:
REMARK  status: ('A' for Active; 'I' for Inactive)
REMARK    1  A    between atoms: C_2  and  C_3
REMARK    2  A    between atoms: C_15  and  C_16
REMARK    3  A    between atoms: C_16  and  O_17
REMARK    4  A    between atoms: O_17  and  C_18
REMARK                            x       y       z     vdW  Elec       q    Type
REMARK                         _______ _______ _______ _____ _____    ______ ____
ROOT
ATOM      1  O   UNL     1       3.474   4.053  19.887  0.00  0.00    +0.000 OA
ATOM      2  C   UNL     1       3.745   4.842  18.974  0.00  0.00    +0.000 C 
ATOM      3  N   UNL     1       3.082   6.096  18.847  0.00  0.00    +0.000 N 
ATOM      4  C   UNL     1       3.518   7.100  17.875  0.00  0.00    +0.000 C 
ATOM      5  C   UNL     1       2.711   8.362  17.700  0.00  0.00    +0.000 C 
ATOM      6  N   UNL     1       1.896   8.653  18.834  0.00  0.00    +0.000 N 
ATOM      7  N   UNL     1       1.174   9.778  18.829  0.00  0.00    +0.000 NA
ATOM      8  C   UNL     1       0.540   9.742  20.008  0.00  0.00    +0.000 A 
ATOM      9  C   UNL     1       0.850   8.562  20.727  0.00  0.00    +0.000 A 
ATOM     10  C   UNL     1       1.721   7.857  19.917  0.00  0.00    +0.000 A 
ATOM     11  C   UNL     1       2.425   6.560  20.080  0.00  0.00    +0.000 C 
ENDROOT
BRANCH   2  12
ATOM     12  C   UNL     1       4.905   4.503  18.097  0.00  0.00    +0.000 A 
ATOM     13  C   UNL     1       6.183   4.700  18.613  0.00  0.00    +0.000 A 
ATOM     14  N   UNL     1       7.330   4.616  17.881  0.00  0.00    +0.000 NA
ATOM     15  C   UNL     1       7.189   4.330  16.567  0.00  0.00    +0.000 A 
ATOM     16  C   UNL     1       5.967   4.064  15.982  0.00  0.00    +0.000 A 
ATOM     17  F   UNL     1       5.869   3.823  14.669  0.00  0.00    +0.000 F 
ATOM     18  C   UNL     1       4.824   4.081  16.769  0.00  0.00    +0.000 A 
ENDBRANCH   2  12
BRANCH   8  19
ATOM     19  C   UNL     1      -0.354  10.871  20.403  0.00  0.00    +0.000 C 
BRANCH  19  20
ATOM     20  O   UNL     1      -0.713  11.644  19.254  0.00  0.00    +0.000 OA
BRANCH  20  21
ATOM     21  C   UNL     1      -1.964  11.437  18.749  0.00  0.00    +0.000 A 
ATOM     22  C   UNL     1      -3.143  12.025  19.219  0.00  0.00    +0.000 A 
ATOM     23  C   UNL     1      -4.361  11.753  18.594  0.00  0.00    +0.000 A 
ATOM     24  C   UNL     1      -4.407  10.889  17.503  0.00  0.00    +0.000 A 
ATOM     25  C   UNL     1      -3.233  10.298  17.048  0.00  0.00    +0.000 A 
ATOM     26  F   UNL     1      -3.278   9.465  16.001  0.00  0.00    +0.000 F 
ATOM     27  C   UNL     1      -2.017  10.563  17.664  0.00  0.00    +0.000 A 
ENDBRANCH  20  21
ENDBRANCH  19  20
ENDBRANCH   8  19
TORSDOF 4
ENDMDL
MODEL 2
REMARK VINA RESULT:      -8.2      2.131      2.669
REMARK  Name = 
REMARK  4 active torsions:
REMARK  status: ('A' for Active; 'I' for Inactive)
REMARK    1  A    between atoms: C_2  and  C_3
REMARK    2  A    between atoms: C_15  and  C_16
REMARK    3  A    between atoms: C_16  and  O_17
REMARK    4  A    between atoms: O_17  and  C_18
REMARK                            x       y       z     vdW  Elec       q    Type
REMARK                         _______ _______ _______ _____ _____    ______ ____
ROOT
ATOM      1  O   UNL     1       4.513   6.060  16.693  0.00  0.00    +0.000 OA
ATOM      2  C   UNL     1       3.935   5.744  17.740  0.00  0.00    +0.000 C 
ATOM      3  N   UNL     1       3.168   6.684  18.485  0.00  0.00    +0.000 N 
ATOM      4  C   UNL     1       2.347   6.273  19.625  0.00  0.00    +0.000 C 
ATOM      5  C   UNL     1       1.645   7.323  20.450  0.00  0.00    +0.000 C 
ATOM      6  N   UNL     1       1.467   8.548  19.742  0.00  0.00    +0.000 N 
ATOM      7  N   UNL     1       0.806   9.543  20.343  0.00  0.00    +0.000 NA
ATOM      8  C   UNL     1       0.822  10.521  19.428  0.00  0.00    +0.000 A 
ATOM      9  C   UNL     1       1.534  10.131  18.267  0.00  0.00    +0.000 A 
ATOM     10  C   UNL     1       1.967   8.842  18.517  0.00  0.00    +0.000 A 
ATOM     11  C   UNL     1       2.746   7.866  17.714  0.00  0.00    +0.000 C 
ENDROOT
BRANCH   2  12
ATOM     12  C   UNL     1       3.943   4.299  18.117  0.00  0.00    +0.000 A 
ATOM     13  C   UNL     1       3.148   3.434  17.369  0.00  0.00    +0.000 A 
ATOM     14  N   UNL     1       2.904   2.134  17.700  0.00  0.00    +0.000 NA
ATOM     15  C   UNL     1       3.475   1.683  18.839  0.00  0.00    +0.000 A 
ATOM     16  C   UNL     1       4.322   2.451  19.612  0.00  0.00    +0.000 A 
ATOM     17  F   UNL     1       4.835   1.977  20.754  0.00  0.00    +0.000 F 
ATOM     18  C   UNL     1       4.614   3.747  19.209  0.00  0.00    +0.000 A 
ENDBRANCH   2  12
BRANCH   8  19
ATOM     19  C   UNL     1       0.134  11.815  19.714  0.00  0.00    +0.000 C 
BRANCH  19  20
ATOM     20  O   UNL     1      -0.525  12.295  18.539  0.00  0.00    +0.000 OA
BRANCH  20  21
ATOM     21  C   UNL     1      -1.823  11.906  18.370  0.00  0.00    +0.000 A 
ATOM     22  C   UNL     1      -2.894  12.242  19.205  0.00  0.00    +0.000 A 
ATOM     23  C   UNL     1      -4.184  11.804  18.904  0.00  0.00    +0.000 A 
ATOM     24  C   UNL     1      -4.409  11.023  17.772  0.00  0.00    +0.000 A 
ATOM     25  C   UNL     1      -3.339  10.683  16.953  0.00  0.00    +0.000 A 
ATOM     26  F   UNL     1      -3.555   9.930  15.866  0.00  0.00    +0.000 F 
ATOM     27  C   UNL     1      -2.051  11.114  17.244  0.00  0.00    +0.000 A 
ENDBRANCH  20  21
ENDBRANCH  19  20
ENDBRANCH   8  19
TORSDOF 4
ENDMDL
MODEL 3
REMARK VINA RESULT:      -8.2      0.960      1.055
REMARK  Name = 
REMARK  4 active torsions:
REMARK  status: ('A' for Active; 'I' for Inactive)
REMARK    1  A    between atoms: C_2  and  C_3
REMARK    2  A    between atoms: C_15  and  C_16
REMARK    3  A    between atoms: C_16  and  O_17
REMARK    4  A    between atoms: O_17  and  C_18
REMARK                            x       y       z     vdW  Elec       q    Type
REMARK                         _______ _______ _______ _____ _____    ______ ____
ROOT
ATOM      1  O   UNL     1       3.968   3.529  18.868  0.00  0.00    +0.000 OA
ATOM      2  C   UNL     1       4.134   4.484  18.100  0.00  0.00    +0.000 C 
ATOM      3  N   UNL     1       3.442   5.715  18.277  0.00  0.00    +0.000 N 
ATOM      4  C   UNL     1       3.763   6.898  17.477  0.00  0.00    +0.000 C 
ATOM      5  C   UNL     1       2.923   8.142  17.623  0.00  0.00    +0.000 C 
ATOM      6  N   UNL     1       2.221   8.187  18.864  0.00  0.00    +0.000 N 
ATOM      7  N   UNL     1       1.484   9.267  19.142  0.00  0.00    +0.000 NA
ATOM      8  C   UNL     1       0.972   8.990  20.347  0.00  0.00    +0.000 A 
ATOM      9  C   UNL     1       1.371   7.707  20.796  0.00  0.00    +0.000 A 
ATOM     10  C   UNL     1       2.167   7.197  19.788  0.00  0.00    +0.000 A 
ATOM     11  C   UNL     1       2.905   5.917  19.634  0.00  0.00    +0.000 C 
ENDROOT
BRANCH   2  12
ATOM     12  C   UNL     1       5.205   4.355  17.068  0.00  0.00    +0.000 A 
ATOM     13  C   UNL     1       6.508   4.665  17.449  0.00  0.00    +0.000 A 
ATOM     14  N   UNL     1       7.556   4.776  16.585  0.00  0.00    +0.000 NA
ATOM     15  C   UNL     1       7.285   4.576  15.276  0.00  0.00    +0.000 A 
ATOM     16  C   UNL     1       6.037   4.210  14.814  0.00  0.00    +0.000 A 
ATOM     17  F   UNL     1       5.802   4.060  13.505  0.00  0.00    +0.000 F 
ATOM     18  C   UNL     1       5.007   4.028  15.726  0.00  0.00    +0.000 A 
ENDBRANCH   2  12
BRANCH   8  19
ATOM     19  C   UNL     1       0.104   9.993  21.033  0.00  0.00    +0.000 C 
BRANCH  19  20
ATOM     20  O   UNL     1      -0.081  11.140  20.199  0.00  0.00    +0.000 OA
BRANCH  20  21
ATOM     21  C   UNL     1      -1.328  11.311  19.669  0.00  0.00    +0.000 A 
ATOM     22  C   UNL     1      -2.262  12.271  20.072  0.00  0.00    +0.000 A 
ATOM     23  C   UNL     1      -3.497  12.363  19.426  0.00  0.00    +0.000 A 
ATOM     24  C   UNL     1      -3.805  11.493  18.383  0.00  0.00    +0.000 A 
ATOM     25  C   UNL     1      -2.876  10.533  17.996  0.00  0.00    +0.000 A 
ATOM     26  F   UNL     1      -3.173   9.695  16.995  0.00  0.00    +0.000 F 
ATOM     27  C   UNL     1      -1.645  10.434  18.632  0.00  0.00    +0.000 A 
ENDBRANCH  20  21
ENDBRANCH  19  20
ENDBRANCH   8  19
TORSDOF 4
ENDMDL
MODEL 4
REMARK VINA RESULT:      -8.1      2.916      3.245
REMARK  Name = 
REMARK  4 active torsions:
REMARK  status: ('A' for Active; 'I' for Inactive)
REMARK    1  A    between atoms: C_2  and  C_3
REMARK    2  A    between atoms: C_15  and  C_16
REMARK    3  A    between atoms: C_16  and  O_17
REMARK    4  A    between atoms: O_17  and  C_18
REMARK                            x       y       z     vdW  Elec       q    Type
REMARK                         _______ _______ _______ _____ _____    ______ ____
ROOT
ATOM      1  O   UNL     1       4.172   3.389  18.898  0.00  0.00    +0.000 OA
ATOM      2  C   UNL     1       4.240   4.376  18.156  0.00  0.00    +0.000 C 
ATOM      3  N   UNL     1       3.491   5.559  18.415  0.00  0.00    +0.000 N 
ATOM      4  C   UNL     1       3.699   6.783  17.639  0.00  0.00    +0.000 C 
ATOM      5  C   UNL     1       2.800   7.972  17.876  0.00  0.00    +0.000 C 
ATOM      6  N   UNL     1       2.170   7.937  19.155  0.00  0.00    +0.000 N 
ATOM      7  N   UNL     1       1.392   8.963  19.512  0.00  0.00    +0.000 NA
ATOM      8  C   UNL     1       0.967   8.618  20.734  0.00  0.00    +0.000 A 
ATOM      9  C   UNL     1       1.463   7.347  21.114  0.00  0.00    +0.000 A 
ATOM     10  C   UNL     1       2.226   6.916  20.045  0.00  0.00    +0.000 A 
ATOM     11  C   UNL     1       3.024   5.687  19.805  0.00  0.00    +0.000 C 
ENDROOT
BRANCH   2  12
ATOM     12  C   UNL     1       5.254   4.342  17.061  0.00  0.00    +0.000 A 
ATOM     13  C   UNL     1       6.552   4.739  17.372  0.00  0.00    +0.000 A 
ATOM     14  N   UNL     1       7.536   4.941  16.451  0.00  0.00    +0.000 NA
ATOM     15  C   UNL     1       7.203   4.743  15.156  0.00  0.00    +0.000 A 
ATOM     16  C   UNL     1       5.959   4.294  14.760  0.00  0.00    +0.000 A 
ATOM     17  F   UNL     1       5.659   4.149  13.464  0.00  0.00    +0.000 F 
ATOM     18  C   UNL     1       5.000   4.024  15.726  0.00  0.00    +0.000 A 
ENDBRANCH   2  12
BRANCH   8  19
ATOM     19  C   UNL     1       0.086   9.548  21.502  0.00  0.00    +0.000 C 
BRANCH  19  20
ATOM     20  O   UNL     1       0.212  10.880  20.997  0.00  0.00    +0.000 OA
BRANCH  20  21
ATOM     21  C   UNL     1      -0.362  11.869  21.744  0.00  0.00    +0.000 A 
ATOM     22  C   UNL     1       0.062  13.201  21.800  0.00  0.00    +0.000 A 
ATOM     23  C   UNL     1      -0.631  14.126  22.582  0.00  0.00    +0.000 A 
ATOM     24  C   UNL     1      -1.745  13.723  23.315  0.00  0.00    +0.000 A 
ATOM     25  C   UNL     1      -2.154  12.395  23.264  0.00  0.00    +0.000 A 
ATOM     26  F   UNL     1      -3.223  12.007  23.971  0.00  0.00    +0.000 F 
ATOM     27  C   UNL     1      -1.470  11.468  22.489  0.00  0.00    +0.000 A 
ENDBRANCH  20  21
ENDBRANCH  19  20
ENDBRANCH   8  19
TORSDOF 4
ENDMDL
MODEL 5
REMARK VINA RESULT:      -8.0      1.083      1.401
REMARK  Name = 
REMARK  4 active torsions:
REMARK  status: ('A' for Active; 'I' for Inactive)
REMARK    1  A    between atoms: C_2  and  C_3
REMARK    2  A    between atoms: C_15  and  C_16
REMARK    3  A    between atoms: C_16  and  O_17
REMARK    4  A    between atoms: O_17  and  C_18
REMARK                            x       y       z     vdW  Elec       q    Type
REMARK                         _______ _______ _______ _____ _____    ______ ____
ROOT
ATOM      1  O   UNL     1       3.227   4.521  20.196  0.00  0.00    +0.000 OA
ATOM      2  C   UNL     1       3.533   5.226  19.227  0.00  0.00    +0.000 C 
ATOM      3  N   UNL     1       2.874   6.460  18.963  0.00  0.00    +0.000 N 
ATOM      4  C   UNL     1       3.348   7.375  17.922  0.00  0.00    +0.000 C 
ATOM      5  C   UNL     1       2.548   8.614  17.604  0.00  0.00    +0.000 C 
ATOM      6  N   UNL     1       1.689   9.002  18.676  0.00  0.00    +0.000 N 
ATOM      7  N   UNL     1       0.968  10.119  18.542  0.00  0.00    +0.000 NA
ATOM      8  C   UNL     1       0.289  10.187  19.694  0.00  0.00    +0.000 A 
ATOM      9  C   UNL     1       0.572   9.077  20.528  0.00  0.00    +0.000 A 
ATOM     10  C   UNL     1       1.473   8.305  19.818  0.00  0.00    +0.000 A 
ATOM     11  C   UNL     1       2.171   7.031  20.124  0.00  0.00    +0.000 C 
ENDROOT
BRANCH   2  12
ATOM     12  C   UNL     1       4.725   4.813  18.429  0.00  0.00    +0.000 A 
ATOM     13  C   UNL     1       5.980   5.001  19.002  0.00  0.00    +0.000 A 
ATOM     14  N   UNL     1       7.160   4.851  18.335  0.00  0.00    +0.000 NA
ATOM     15  C   UNL     1       7.078   4.505  17.031  0.00  0.00    +0.000 A 
ATOM     16  C   UNL     1       5.881   4.244  16.396  0.00  0.00    +0.000 A 
ATOM     17  F   UNL     1       5.843   3.943  15.092  0.00  0.00    +0.000 F 
ATOM     18  C   UNL     1       4.700   4.329  17.120  0.00  0.00    +0.000 A 
ENDBRANCH   2  12
BRANCH   8  19
ATOM     19  C   UNL     1      -0.620  11.343  19.952  0.00  0.00    +0.000 C 
BRANCH  19  20
ATOM     20  O   UNL     1      -0.943  12.003  18.725  0.00  0.00    +0.000 OA
BRANCH  20  21
ATOM     21  C   UNL     1      -2.171  11.731  18.193  0.00  0.00    +0.000 A 
ATOM     22  C   UNL     1      -2.413  11.226  16.911  0.00  0.00    +0.000 A 
ATOM     23  C   UNL     1      -3.718  10.961  16.496  0.00  0.00    +0.000 A 
ATOM     24  C   UNL     1      -4.787  11.205  17.356  0.00  0.00    +0.000 A 
ATOM     25  C   UNL     1      -4.540  11.718  18.625  0.00  0.00    +0.000 A 
ATOM     26  F   UNL     1      -5.567  11.954  19.451  0.00  0.00    +0.000 F 
ATOM     27  C   UNL     1      -3.244  11.984  19.047  0.00  0.00    +0.000 A 
ENDBRANCH  20  21
ENDBRANCH  19  20
ENDBRANCH   8  19
TORSDOF 4
ENDMDL
MODEL 6
REMARK VINA RESULT:      -8.0      2.297      2.893
REMARK  Name = 
REMARK  4 active torsions:
REMARK  status: ('A' for Active; 'I' for Inactive)
REMARK    1  A    between atoms: C_2  and  C_3
REMARK    2  A    between atoms: C_15  and  C_16
REMARK    3  A    between atoms: C_16  and  O_17
REMARK    4  A    between atoms: O_17  and  C_18
REMARK                            x       y       z     vdW  Elec       q    Type
REMARK                         _______ _______ _______ _____ _____    ______ ____
ROOT
ATOM      1  O   UNL     1       4.298   2.915  17.756  0.00  0.00    +0.000 OA
ATOM      2  C   UNL     1       4.433   4.046  17.276  0.00  0.00    +0.000 C 
ATOM      3  N   UNL     1       3.732   5.170  17.799  0.00  0.00    +0.000 N 
ATOM      4  C   UNL     1       4.018   6.532  17.346  0.00  0.00    +0.000 C 
ATOM      5  C   UNL     1       3.169   7.674  17.847  0.00  0.00    +0.000 C 
ATOM      6  N   UNL     1       2.501   7.365  19.069  0.00  0.00    +0.000 N 
ATOM      7  N   UNL     1       1.760   8.315  19.649  0.00  0.00    +0.000 NA
ATOM      8  C   UNL     1       1.284   7.709  20.744  0.00  0.00    +0.000 A 
ATOM      9  C   UNL     1       1.710   6.359  20.815  0.00  0.00    +0.000 A 
ATOM     10  C   UNL     1       2.483   6.159  19.687  0.00  0.00    +0.000 A 
ATOM     11  C   UNL     1       3.230   4.984  19.171  0.00  0.00    +0.000 C 
ENDROOT
BRANCH   2  12
ATOM     12  C   UNL     1       5.476   4.224  16.223  0.00  0.00    +0.000 A 
ATOM     13  C   UNL     1       6.602   4.975  16.551  0.00  0.00    +0.000 A 
ATOM     14  N   UNL     1       7.544   5.381  15.654  0.00  0.00    +0.000 NA
ATOM     15  C   UNL     1       7.345   5.025  14.365  0.00  0.00    +0.000 A 
ATOM     16  C   UNL     1       6.290   4.234  13.958  0.00  0.00    +0.000 A 
ATOM     17  F   UNL     1       6.109   3.937  12.665  0.00  0.00    +0.000 F 
ATOM     18  C   UNL     1       5.388   3.771  14.906  0.00  0.00    +0.000 A 
ENDBRANCH   2  12
BRANCH   8  19
ATOM     19  C   UNL     1       0.425   8.470  21.698  0.00  0.00    +0.000 C 
BRANCH  19  20
ATOM     20  O   UNL     1       0.727   9.867  21.630  0.00  0.00    +0.000 OA
BRANCH  20  21
ATOM     21  C   UNL     1      -0.327  10.724  21.773  0.00  0.00    +0.000 A 
ATOM     22  C   UNL     1      -1.007  10.991  22.966  0.00  0.00    +0.000 A 
ATOM     23  C   UNL     1      -2.053  11.915  22.986  0.00  0.00    +0.000 A 
ATOM     24  C   UNL     1      -2.428  12.569  21.815  0.00  0.00    +0.000 A 
ATOM     25  C   UNL     1      -1.756  12.289  20.630  0.00  0.00    +0.000 A 
ATOM     26  F   UNL     1      -2.117  12.917  19.504  0.00  0.00    +0.000 F 
ATOM     27  C   UNL     1      -0.713  11.372  20.601  0.00  0.00    +0.000 A 
ENDBRANCH  20  21
ENDBRANCH  19  20
ENDBRANCH   8  19
TORSDOF 4
ENDMDL
MODEL 7
REMARK VINA RESULT:      -8.0      3.051      9.474
REMARK  Name = 
REMARK  4 active torsions:
REMARK  status: ('A' for Active; 'I' for Inactive)
REMARK    1  A    between atoms: C_2  and  C_3
REMARK    2  A    between atoms: C_15  and  C_16
REMARK    3  A    between atoms: C_16  and  O_17
REMARK    4  A    between atoms: O_17  and  C_18
REMARK                            x       y       z     vdW  Elec       q    Type
REMARK                         _______ _______ _______ _____ _____    ______ ____
ROOT
ATOM      1  O   UNL     1      -0.618  11.885  18.483  0.00  0.00    +0.000 OA
ATOM      2  C   UNL     1      -0.403  11.386  19.594  0.00  0.00    +0.000 C 
ATOM      3  N   UNL     1       0.253  10.130  19.736  0.00  0.00    +0.000 N 
ATOM      4  C   UNL     1       0.660   9.621  21.046  0.00  0.00    +0.000 C 
ATOM      5  C   UNL     1       1.246   8.235  21.154  0.00  0.00    +0.000 C 
ATOM      6  N   UNL     1       1.782   7.769  19.916  0.00  0.00    +0.000 N 
ATOM      7  N   UNL     1       2.382   6.575  19.891  0.00  0.00    +0.000 NA
ATOM      8  C   UNL     1       2.757   6.446  18.611  0.00  0.00    +0.000 A 
ATOM      9  C   UNL     1       2.347   7.559  17.837  0.00  0.00    +0.000 A 
ATOM     10  C   UNL     1       1.686   8.395  18.718  0.00  0.00    +0.000 A 
ATOM     11  C   UNL     1       1.031   9.718  18.556  0.00  0.00    +0.000 C 
ENDROOT
BRANCH   2  12
ATOM     12  C   UNL     1      -0.716  12.221  20.792  0.00  0.00    +0.000 A 
ATOM     13  C   UNL     1       0.247  13.138  21.208  0.00  0.00    +0.000 A 
ATOM     14  N   UNL     1       0.191  13.832  22.380  0.00  0.00    +0.000 NA
ATOM     15  C   UNL     1      -0.873  13.591  23.176  0.00  0.00    +0.000 A 
ATOM     16  C   UNL     1      -1.903  12.742  22.820  0.00  0.00    +0.000 A 
ATOM     17  F   UNL     1      -2.919  12.502  23.656  0.00  0.00    +0.000 F 
ATOM     18  C   UNL     1      -1.857  12.108  21.586  0.00  0.00    +0.000 A 
ENDBRANCH   2  12
BRANCH   8  19
ATOM     19  C   UNL     1       3.512   5.233  18.179  0.00  0.00    +0.000 C 
BRANCH  19  20
ATOM     20  O   UNL     1       4.557   5.597  17.272  0.00  0.00    +0.000 OA
BRANCH  20  21
ATOM     21  C   UNL     1       5.754   5.942  17.832  0.00  0.00    +0.000 A 
ATOM     22  C   UNL     1       6.398   5.259  18.869  0.00  0.00    +0.000 A 
ATOM     23  C   UNL     1       7.639   5.698  19.334  0.00  0.00    +0.000 A 
ATOM     24  C   UNL     1       8.237   6.824  18.771  0.00  0.00    +0.000 A 
ATOM     25  C   UNL     1       7.585   7.505  17.749  0.00  0.00    +0.000 A 
ATOM     26  F   UNL     1       8.158   8.587  17.209  0.00  0.00    +0.000 F 
ATOM     27  C   UNL     1       6.350   7.075  17.279  0.00  0.00    +0.000 A 
ENDBRANCH  20  21
ENDBRANCH  19  20
ENDBRANCH   8  19
TORSDOF 4
ENDMDL
MODEL 8
REMARK VINA RESULT:      -8.0      3.074      3.724
REMARK  Name = 
REMARK  4 active torsions:
REMARK  status: ('A' for Active; 'I' for Inactive)
REMARK    1  A    between atoms: C_2  and  C_3
REMARK    2  A    between atoms: C_15  and  C_16
REMARK    3  A    between atoms: C_16  and  O_17
REMARK    4  A    between atoms: O_17  and  C_18
REMARK                            x       y       z     vdW  Elec       q    Type
REMARK                         _______ _______ _______ _____ _____    ______ ____
ROOT
ATOM      1  O   UNL     1       4.569   6.044  16.656  0.00  0.00    +0.000 OA
ATOM      2  C   UNL     1       3.978   5.741  17.699  0.00  0.00    +0.000 C 
ATOM      3  N   UNL     1       3.218   6.696  18.434  0.00  0.00    +0.000 N 
ATOM      4  C   UNL     1       2.381   6.302  19.568  0.00  0.00    +0.000 C 
ATOM      5  C   UNL     1       1.689   7.366  20.383  0.00  0.00    +0.000 C 
ATOM      6  N   UNL     1       1.536   8.591  19.669  0.00  0.00    +0.000 N 
ATOM      7  N   UNL     1       0.886   9.598  20.261  0.00  0.00    +0.000 NA
ATOM      8  C   UNL     1       0.925  10.572  19.342  0.00  0.00    +0.000 A 
ATOM      9  C   UNL     1       1.641  10.167  18.189  0.00  0.00    +0.000 A 
ATOM     10  C   UNL     1       2.052   8.873  18.447  0.00  0.00    +0.000 A 
ATOM     11  C   UNL     1       2.822   7.881  17.655  0.00  0.00    +0.000 C 
ENDROOT
BRANCH   2  12
ATOM     12  C   UNL     1       3.959   4.298  18.082  0.00  0.00    +0.000 A 
ATOM     13  C   UNL     1       3.146   3.445  17.340  0.00  0.00    +0.000 A 
ATOM     14  N   UNL     1       2.878   2.152  17.677  0.00  0.00    +0.000 NA
ATOM     15  C   UNL     1       3.445   1.693  18.815  0.00  0.00    +0.000 A 
ATOM     16  C   UNL     1       4.310   2.449  19.582  0.00  0.00    +0.000 A 
ATOM     17  F   UNL     1       4.818   1.968  20.723  0.00  0.00    +0.000 F 
ATOM     18  C   UNL     1       4.624   3.737  19.172  0.00  0.00    +0.000 A 
ENDBRANCH   2  12
BRANCH   8  19
ATOM     19  C   UNL     1       0.255  11.878  19.618  0.00  0.00    +0.000 C 
BRANCH  19  20
ATOM     20  O   UNL     1      -0.106  11.968  20.999  0.00  0.00    +0.000 OA
BRANCH  20  21
ATOM     21  C   UNL     1      -1.407  12.280  21.268  0.00  0.00    +0.000 A 
ATOM     22  C   UNL     1      -2.327  12.805  20.354  0.00  0.00    +0.000 A 
ATOM     23  C   UNL     1      -3.643  13.054  20.748  0.00  0.00    +0.000 A 
ATOM     24  C   UNL     1      -4.043  12.786  22.055  0.00  0.00    +0.000 A 
ATOM     25  C   UNL     1      -3.120  12.275  22.961  0.00  0.00    +0.000 A 
ATOM     26  F   UNL     1      -3.504  12.020  24.218  0.00  0.00    +0.000 F 
ATOM     27  C   UNL     1      -1.809  12.024  22.579  0.00  0.00    +0.000 A 
ENDBRANCH  20  21
ENDBRANCH  19  20
ENDBRANCH   8  19
TORSDOF 4
ENDMDL
MODEL 9
REMARK VINA RESULT:      -8.0      3.044      9.507
REMARK  Name = 
REMARK  4 active torsions:
REMARK  status: ('A' for Active; 'I' for Inactive)
REMARK    1  A    between atoms: C_2  and  C_3
REMARK    2  A    between atoms: C_15  and  C_16
REMARK    3  A    between atoms: C_16  and  O_17
REMARK    4  A    between atoms: O_17  and  C_18
REMARK                            x       y       z     vdW  Elec       q    Type
REMARK                         _______ _______ _______ _____ _____    ______ ____
ROOT
ATOM      1  O   UNL     1      -0.380  11.899  18.403  0.00  0.00    +0.000 OA
ATOM      2  C   UNL     1      -0.241  11.396  19.524  0.00  0.00    +0.000 C 
ATOM      3  N   UNL     1       0.387  10.131  19.703  0.00  0.00    +0.000 N 
ATOM      4  C   UNL     1       0.706   9.615  21.035  0.00  0.00    +0.000 C 
ATOM      5  C   UNL     1       1.265   8.221  21.176  0.00  0.00    +0.000 C 
ATOM      6  N   UNL     1       1.871   7.749  19.973  0.00  0.00    +0.000 N 
ATOM      7  N   UNL     1       2.456   6.548  19.982  0.00  0.00    +0.000 NA
ATOM      8  C   UNL     1       2.908   6.415  18.729  0.00  0.00    +0.000 A 
ATOM      9  C   UNL     1       2.562   7.535  17.933  0.00  0.00    +0.000 A 
ATOM     10  C   UNL     1       1.858   8.379  18.773  0.00  0.00    +0.000 A 
ATOM     11  C   UNL     1       1.233   9.710  18.573  0.00  0.00    +0.000 C 
ENDROOT
BRANCH   2  12
ATOM     12  C   UNL     1      -0.617  12.232  20.702  0.00  0.00    +0.000 A 
ATOM     13  C   UNL     1       0.338  13.119  21.193  0.00  0.00    +0.000 A 
ATOM     14  N   UNL     1       0.216  13.809  22.363  0.00  0.00    +0.000 NA
ATOM     15  C   UNL     1      -0.910  13.594  23.078  0.00  0.00    +0.000 A 
ATOM     16  C   UNL     1      -1.934  12.777  22.641  0.00  0.00    +0.000 A 
ATOM     17  F   UNL     1      -3.016  12.562  23.400  0.00  0.00    +0.000 F 
ATOM     18  C   UNL     1      -1.817  12.148  21.410  0.00  0.00    +0.000 A 
ENDBRANCH   2  12
BRANCH   8  19
ATOM     19  C   UNL     1       3.673   5.193  18.341  0.00  0.00    +0.000 C 
BRANCH  19  20
ATOM     20  O   UNL     1       4.587   5.495  17.283  0.00  0.00    +0.000 OA
BRANCH  20  21
ATOM     21  C   UNL     1       5.780   6.050  17.651  0.00  0.00    +0.000 A 
ATOM     22  C   UNL     1       6.363   7.186  17.080  0.00  0.00    +0.000 A 
ATOM     23  C   UNL     1       7.577   7.672  17.568  0.00  0.00    +0.000 A 
ATOM     24  C   UNL     1       8.215   7.023  18.622  0.00  0.00    +0.000 A 
ATOM     25  C   UNL     1       7.635   5.887  19.177  0.00  0.00    +0.000 A 
ATOM     26  F   UNL     1       8.250   5.262  20.189  0.00  0.00    +0.000 F 
ATOM     27  C   UNL     1       6.428   5.396  18.698  0.00  0.00    +0.000 A 
ENDBRANCH  20  21
ENDBRANCH  19  20
ENDBRANCH   8  19
TORSDOF 4
ENDMDL
