MODEL 1
REMARK VINA RESULT:      -7.9      0.000      0.000
REMARK  Name = 
REMARK  9 active torsions:
REMARK  status: ('A' for Active; 'I' for Inactive)
REMARK    1  A    between atoms: C_1  and  O_2
REMARK    2  A    between atoms: O_2  and  C_3
REMARK    3  A    between atoms: C_7  and  N_8
REMARK    4  A    between atoms: C_9  and  C_11
REMARK    5  A    between atoms: C_11  and  N_12
REMARK    6  A    between atoms: N_12  and  C_13
REMARK    7  A    between atoms: C_14  and  C_16
REMARK    8  A    between atoms: C_16  and  N_17
REMARK    9  A    between atoms: C_18  and  C_20
REMARK                            x       y       z     vdW  Elec       q    Type
REMARK                         _______ _______ _______ _____ _____    ______ ____
ROOT
ATOM      1  N   UNL     1       6.507   6.261  17.925  0.00  0.00    +0.000 N 
ATOM      2  C   UNL     1       5.798   6.509  16.678  0.00  0.00    +0.000 C 
ATOM      3  C   UNL     1       5.976   5.527  18.974  0.00  0.00    +0.000 C 
ATOM      4  O   UNL     1       6.692   5.143  19.904  0.00  0.00    +0.000 OA
ENDROOT
BRANCH   1   5
ATOM      5  C   UNL     1       7.851   6.840  18.066  0.00  0.00    +0.000 C 
BRANCH   5   7
ATOM      6  N   UNL     1       8.957   8.857  18.963  0.00  0.00    +0.000 N 
ATOM      7  C   UNL     1       7.992   8.371  18.097  0.00  0.00    +0.000 C 
ATOM      8  O   UNL     1       7.198   9.057  17.455  0.00  0.00    +0.000 OA
ATOM      9  H   UNL     1       9.550   8.161  19.399  0.00  0.00    +0.000 HD
BRANCH   6  14
ATOM     10  C   UNL     1       9.585  12.481  18.456  0.00  0.00    +0.000 A 
ATOM     11  C   UNL     1       9.680  12.939  19.770  0.00  0.00    +0.000 A 
ATOM     12  C   UNL     1       9.553  12.049  20.832  0.00  0.00    +0.000 A 
ATOM     13  C   UNL     1       9.315  10.696  20.585  0.00  0.00    +0.000 A 
ATOM     14  C   UNL     1       9.207  10.216  19.276  0.00  0.00    +0.000 A 
ATOM     15  C   UNL     1       9.364  11.119  18.211  0.00  0.00    +0.000 A 
BRANCH  10  17
ATOM     16  C   UNL     1       9.444  14.794  17.914  0.00  0.00    +0.000 C 
ATOM     17  O   UNL     1       9.724  13.461  17.511  0.00  0.00    +0.000 OA
ENDBRANCH  10  17
ENDBRANCH   6  14
ENDBRANCH   5   7
ENDBRANCH   1   5
BRANCH   3  18
ATOM     18  C   UNL     1       4.505   5.097  18.916  0.00  0.00    +0.000 C 
BRANCH  18  19
ATOM     19  N   UNL     1       3.640   6.054  19.578  0.00  0.00    +0.000 N 
ATOM     20  C   UNL     1       2.669   6.770  18.904  0.00  0.00    +0.000 C 
ATOM     21  O   UNL     1       2.453   6.543  17.716  0.00  0.00    +0.000 OA
ATOM     22  H   UNL     1       3.814   6.261  20.555  0.00  0.00    +0.000 HD
BRANCH  20  23
ATOM     23  C   UNL     1       1.934   7.759  19.687  0.00  0.00    +0.000 A 
ATOM     24  S   UNL     1       1.423   7.414  21.287  0.00  0.00    +0.000 S 
ATOM     25  C   UNL     1       0.633   8.927  21.469  0.00  0.00    +0.000 A 
ATOM     26  C   UNL     1      -0.065   9.384  22.605  0.00  0.00    +0.000 A 
ATOM     27  C   UNL     1      -0.701  10.625  22.558  0.00  0.00    +0.000 A 
ATOM     28  C   UNL     1      -0.643  11.401  21.410  0.00  0.00    +0.000 A 
ATOM     29  C   UNL     1       0.081  10.960  20.299  0.00  0.00    +0.000 A 
ATOM     30  C   UNL     1       0.745   9.702  20.313  0.00  0.00    +0.000 A 
ATOM     31  C   UNL     1       1.556   9.039  19.322  0.00  0.00    +0.000 A 
ATOM     32 CL   UNL     1       1.949   9.814  17.836  0.00  0.00    +0.000 Cl
ENDBRANCH  20  23
ENDBRANCH  18  19
ENDBRANCH   3  18
TORSDOF 7
ENDMDL
MODEL 2
REMARK VINA RESULT:      -7.7      3.572      5.667
REMARK  Name = 
REMARK  9 active torsions:
REMARK  status: ('A' for Active; 'I' for Inactive)
REMARK    1  A    between atoms: C_1  and  O_2
REMARK    2  A    between atoms: O_2  and  C_3
REMARK    3  A    between atoms: C_7  and  N_8
REMARK    4  A    between atoms: C_9  and  C_11
REMARK    5  A    between atoms: C_11  and  N_12
REMARK    6  A    between atoms: N_12  and  C_13
REMARK    7  A    between atoms: C_14  and  C_16
REMARK    8  A    between atoms: C_16  and  N_17
REMARK    9  A    between atoms: C_18  and  C_20
REMARK                            x       y       z     vdW  Elec       q    Type
REMARK                         _______ _______ _______ _____ _____    ______ ____
ROOT
ATOM      1  N   UNL     1       1.934   2.493  19.466  0.00  0.00    +0.000 N 
ATOM      2  C   UNL     1       0.494   2.655  19.609  0.00  0.00    +0.000 C 
ATOM      3  C   UNL     1       2.847   2.871  20.438  0.00  0.00    +0.000 C 
ATOM      4  O   UNL     1       4.023   2.500  20.380  0.00  0.00    +0.000 OA
ENDROOT
BRANCH   1   5
ATOM      5  C   UNL     1       2.427   1.905  18.212  0.00  0.00    +0.000 C 
BRANCH   5   7
ATOM      6  N   UNL     1       4.454   2.987  17.309  0.00  0.00    +0.000 N 
ATOM      7  C   UNL     1       3.085   2.832  17.176  0.00  0.00    +0.000 C 
ATOM      8  O   UNL     1       2.371   3.444  16.382  0.00  0.00    +0.000 OA
ATOM      9  H   UNL     1       4.903   2.391  17.994  0.00  0.00    +0.000 HD
BRANCH   6  14
ATOM     10  C   UNL     1       6.275   6.092  16.396  0.00  0.00    +0.000 A 
ATOM     11  C   UNL     1       6.918   5.708  15.220  0.00  0.00    +0.000 A 
ATOM     12  C   UNL     1       6.743   4.423  14.712  0.00  0.00    +0.000 A 
ATOM     13  C   UNL     1       5.931   3.511  15.389  0.00  0.00    +0.000 A 
ATOM     14  C   UNL     1       5.282   3.872  16.574  0.00  0.00    +0.000 A 
ATOM     15  C   UNL     1       5.447   5.179  17.062  0.00  0.00    +0.000 A 
BRANCH  10  17
ATOM     16  C   UNL     1       7.739   7.603  17.507  0.00  0.00    +0.000 C 
ATOM     17  O   UNL     1       6.539   7.378  16.782  0.00  0.00    +0.000 OA
ENDBRANCH  10  17
ENDBRANCH   6  14
ENDBRANCH   5   7
ENDBRANCH   1   5
BRANCH   3  18
ATOM     18  C   UNL     1       2.357   3.666  21.654  0.00  0.00    +0.000 C 
BRANCH  18  19
ATOM     19  N   UNL     1       1.863   4.976  21.274  0.00  0.00    +0.000 N 
ATOM     20  C   UNL     1       2.578   5.834  20.462  0.00  0.00    +0.000 C 
ATOM     21  O   UNL     1       3.636   5.464  19.959  0.00  0.00    +0.000 OA
ATOM     22  H   UNL     1       0.997   5.300  21.690  0.00  0.00    +0.000 HD
BRANCH  20  23
ATOM     23  C   UNL     1       1.991   7.152  20.237  0.00  0.00    +0.000 A 
ATOM     24  S   UNL     1       1.026   7.904  21.437  0.00  0.00    +0.000 S 
ATOM     25  C   UNL     1       0.687   9.270  20.453  0.00  0.00    +0.000 A 
ATOM     26  C   UNL     1      -0.105  10.383  20.798  0.00  0.00    +0.000 A 
ATOM     27  C   UNL     1      -0.324  11.382  19.848  0.00  0.00    +0.000 A 
ATOM     28  C   UNL     1       0.237  11.283  18.583  0.00  0.00    +0.000 A 
ATOM     29  C   UNL     1       1.053  10.195  18.259  0.00  0.00    +0.000 A 
ATOM     30  C   UNL     1       1.299   9.161  19.203  0.00  0.00    +0.000 A 
ATOM     31  C   UNL     1       2.101   7.965  19.123  0.00  0.00    +0.000 A 
ATOM     32 CL   UNL     1       3.055   7.631  17.728  0.00  0.00    +0.000 Cl
ENDBRANCH  20  23
ENDBRANCH  18  19
ENDBRANCH   3  18
TORSDOF 7
ENDMDL
MODEL 3
REMARK VINA RESULT:      -7.5      5.210      9.503
REMARK  Name = 
REMARK  9 active torsions:
REMARK  status: ('A' for Active; 'I' for Inactive)
REMARK    1  A    between atoms: C_1  and  O_2
REMARK    2  A    between atoms: O_2  and  C_3
REMARK    3  A    between atoms: C_7  and  N_8
REMARK    4  A    between atoms: C_9  and  C_11
REMARK    5  A    between atoms: C_11  and  N_12
REMARK    6  A    between atoms: N_12  and  C_13
REMARK    7  A    between atoms: C_14  and  C_16
REMARK    8  A    between atoms: C_16  and  N_17
REMARK    9  A    between atoms: C_18  and  C_20
REMARK                            x       y       z     vdW  Elec       q    Type
REMARK                         _______ _______ _______ _____ _____    ______ ____
ROOT
ATOM      1  N   UNL     1       1.311   9.242  20.039  0.00  0.00    +0.000 N 
ATOM      2  C   UNL     1       1.679   8.642  18.764  0.00  0.00    +0.000 C 
ATOM      3  C   UNL     1       1.229   8.529  21.225  0.00  0.00    +0.000 C 
ATOM      4  O   UNL     1       1.149   9.112  22.310  0.00  0.00    +0.000 OA
ENDROOT
BRANCH   1   5
ATOM      5  C   UNL     1       1.001  10.679  20.047  0.00  0.00    +0.000 C 
BRANCH   5   7
ATOM      6  N   UNL     1      -1.122  10.365  18.828  0.00  0.00    +0.000 N 
ATOM      7  C   UNL     1      -0.050  11.209  19.058  0.00  0.00    +0.000 C 
ATOM      8  O   UNL     1       0.165  12.268  18.468  0.00  0.00    +0.000 OA
ATOM      9  H   UNL     1      -1.170   9.541  19.416  0.00  0.00    +0.000 HD
BRANCH   6  14
ATOM     10  C   UNL     1      -4.317  11.559  17.360  0.00  0.00    +0.000 A 
ATOM     11  C   UNL     1      -4.264  11.009  16.080  0.00  0.00    +0.000 A 
ATOM     12  C   UNL     1      -3.177  10.227  15.698  0.00  0.00    +0.000 A 
ATOM     13  C   UNL     1      -2.130  10.001  16.594  0.00  0.00    +0.000 A 
ATOM     14  C   UNL     1      -2.159  10.550  17.879  0.00  0.00    +0.000 A 
ATOM     15  C   UNL     1      -3.273  11.315  18.262  0.00  0.00    +0.000 A 
BRANCH  10  17
ATOM     16  C   UNL     1      -6.188  11.998  18.764  0.00  0.00    +0.000 C 
ATOM     17  O   UNL     1      -5.437  12.308  17.600  0.00  0.00    +0.000 OA
ENDBRANCH  10  17
ENDBRANCH   6  14
ENDBRANCH   5   7
ENDBRANCH   1   5
BRANCH   3  18
ATOM     18  C   UNL     1       1.349   7.000  21.186  0.00  0.00    +0.000 C 
BRANCH  18  19
ATOM     19  N   UNL     1       2.252   6.559  20.140  0.00  0.00    +0.000 N 
ATOM     20  C   UNL     1       2.859   5.319  20.156  0.00  0.00    +0.000 C 
ATOM     21  O   UNL     1       2.573   4.506  21.032  0.00  0.00    +0.000 OA
ATOM     22  H   UNL     1       2.507   7.222  19.417  0.00  0.00    +0.000 HD
BRANCH  20  23
ATOM     23  C   UNL     1       3.808   5.049  19.080  0.00  0.00    +0.000 A 
ATOM     24  S   UNL     1       5.487   5.323  19.295  0.00  0.00    +0.000 S 
ATOM     25  C   UNL     1       5.870   4.872  17.683  0.00  0.00    +0.000 A 
ATOM     26  C   UNL     1       7.151   4.852  17.094  0.00  0.00    +0.000 A 
ATOM     27  C   UNL     1       7.272   4.514  15.746  0.00  0.00    +0.000 A 
ATOM     28  C   UNL     1       6.149   4.196  14.997  0.00  0.00    +0.000 A 
ATOM     29  C   UNL     1       4.887   4.181  15.596  0.00  0.00    +0.000 A 
ATOM     30  C   UNL     1       4.726   4.517  16.968  0.00  0.00    +0.000 A 
ATOM     31  C   UNL     1       3.555   4.561  17.810  0.00  0.00    +0.000 A 
ATOM     32 CL   UNL     1       2.016   4.068  17.214  0.00  0.00    +0.000 Cl
ENDBRANCH  20  23
ENDBRANCH  18  19
ENDBRANCH   3  18
TORSDOF 7
ENDMDL
MODEL 4
REMARK VINA RESULT:      -7.5      4.750      6.876
REMARK  Name = 
REMARK  9 active torsions:
REMARK  status: ('A' for Active; 'I' for Inactive)
REMARK    1  A    between atoms: C_1  and  O_2
REMARK    2  A    between atoms: O_2  and  C_3
REMARK    3  A    between atoms: C_7  and  N_8
REMARK    4  A    between atoms: C_9  and  C_11
REMARK    5  A    between atoms: C_11  and  N_12
REMARK    6  A    between atoms: N_12  and  C_13
REMARK    7  A    between atoms: C_14  and  C_16
REMARK    8  A    between atoms: C_16  and  N_17
REMARK    9  A    between atoms: C_18  and  C_20
REMARK                            x       y       z     vdW  Elec       q    Type
REMARK                         _______ _______ _______ _____ _____    ______ ____
ROOT
ATOM      1  N   UNL     1       1.638   7.919  19.719  0.00  0.00    +0.000 N 
ATOM      2  C   UNL     1       1.505   8.215  21.139  0.00  0.00    +0.000 C 
ATOM      3  C   UNL     1       1.623   8.891  18.730  0.00  0.00    +0.000 C 
ATOM      4  O   UNL     1       1.975   8.625  17.577  0.00  0.00    +0.000 OA
ENDROOT
BRANCH   1   5
ATOM      5  C   UNL     1       1.784   6.508  19.332  0.00  0.00    +0.000 C 
BRANCH   5   7
ATOM      6  N   UNL     1       3.957   6.215  18.198  0.00  0.00    +0.000 N 
ATOM      7  C   UNL     1       3.194   5.895  19.307  0.00  0.00    +0.000 C 
ATOM      8  O   UNL     1       3.514   5.098  20.189  0.00  0.00    +0.000 OA
ATOM      9  H   UNL     1       3.561   6.909  17.575  0.00  0.00    +0.000 HD
BRANCH   6  14
ATOM     10  C   UNL     1       6.702   4.800  16.137  0.00  0.00    +0.000 A 
ATOM     11  C   UNL     1       7.722   4.662  17.079  0.00  0.00    +0.000 A 
ATOM     12  C   UNL     1       7.503   5.023  18.406  0.00  0.00    +0.000 A 
ATOM     13  C   UNL     1       6.265   5.536  18.794  0.00  0.00    +0.000 A 
ATOM     14  C   UNL     1       5.231   5.691  17.866  0.00  0.00    +0.000 A 
ATOM     15  C   UNL     1       5.455   5.299  16.535  0.00  0.00    +0.000 A 
BRANCH  10  17
ATOM     16  C   UNL     1       6.013   3.971  14.016  0.00  0.00    +0.000 C 
ATOM     17  O   UNL     1       7.055   4.413  14.873  0.00  0.00    +0.000 OA
ENDBRANCH  10  17
ENDBRANCH   6  14
ENDBRANCH   5   7
ENDBRANCH   1   5
BRANCH   3  18
ATOM     18  C   UNL     1       1.268  10.334  19.107  0.00  0.00    +0.000 C 
BRANCH  18  19
ATOM     19  N   UNL     1      -0.162  10.571  19.036  0.00  0.00    +0.000 N 
ATOM     20  C   UNL     1      -0.697  11.811  18.746  0.00  0.00    +0.000 C 
ATOM     21  O   UNL     1       0.045  12.745  18.448  0.00  0.00    +0.000 OA
ATOM     22  H   UNL     1      -0.786   9.814  19.291  0.00  0.00    +0.000 HD
BRANCH  20  23
ATOM     23  C   UNL     1      -2.152  11.915  18.794  0.00  0.00    +0.000 A 
ATOM     24  S   UNL     1      -2.941  12.629  20.138  0.00  0.00    +0.000 S 
ATOM     25  C   UNL     1      -4.509  12.323  19.508  0.00  0.00    +0.000 A 
ATOM     26  C   UNL     1      -5.740  12.652  20.112  0.00  0.00    +0.000 A 
ATOM     27  C   UNL     1      -6.926  12.273  19.483  0.00  0.00    +0.000 A 
ATOM     28  C   UNL     1      -6.896  11.588  18.278  0.00  0.00    +0.000 A 
ATOM     29  C   UNL     1      -5.673  11.297  17.666  0.00  0.00    +0.000 A 
ATOM     30  C   UNL     1      -4.445  11.670  18.277  0.00  0.00    +0.000 A 
ATOM     31  C   UNL     1      -3.077  11.504  17.850  0.00  0.00    +0.000 A 
ATOM     32 CL   UNL     1      -2.705  10.823  16.313  0.00  0.00    +0.000 Cl
ENDBRANCH  20  23
ENDBRANCH  18  19
ENDBRANCH   3  18
TORSDOF 7
ENDMDL
MODEL 5
REMARK VINA RESULT:      -7.5      5.170     10.019
REMARK  Name = 
REMARK  9 active torsions:
REMARK  status: ('A' for Active; 'I' for Inactive)
REMARK    1  A    between atoms: C_1  and  O_2
REMARK    2  A    between atoms: O_2  and  C_3
REMARK    3  A    between atoms: C_7  and  N_8
REMARK    4  A    between atoms: C_9  and  C_11
REMARK    5  A    between atoms: C_11  and  N_12
REMARK    6  A    between atoms: N_12  and  C_13
REMARK    7  A    between atoms: C_14  and  C_16
REMARK    8  A    between atoms: C_16  and  N_17
REMARK    9  A    between atoms: C_18  and  C_20
REMARK                            x       y       z     vdW  Elec       q    Type
REMARK                         _______ _______ _______ _____ _____    ______ ____
ROOT
ATOM      1  N   UNL     1       0.640   9.848  21.696  0.00  0.00    +0.000 N 
ATOM      2  C   UNL     1       0.332   9.377  23.039  0.00  0.00    +0.000 C 
ATOM      3  C   UNL     1       1.048   9.013  20.667  0.00  0.00    +0.000 C 
ATOM      4  O   UNL     1       1.066   9.411  19.499  0.00  0.00    +0.000 OA
ENDROOT
BRANCH   1   5
ATOM      5  C   UNL     1       0.517  11.291  21.440  0.00  0.00    +0.000 C 
BRANCH   5   7
ATOM      6  N   UNL     1      -1.080  12.532  22.854  0.00  0.00    +0.000 N 
ATOM      7  C   UNL     1      -0.859  11.954  21.617  0.00  0.00    +0.000 C 
ATOM      8  O   UNL     1      -1.694  11.844  20.720  0.00  0.00    +0.000 OA
ATOM      9  H   UNL     1      -0.281  12.566  23.476  0.00  0.00    +0.000 HD
BRANCH   6  14
ATOM     10  C   UNL     1      -3.530  15.109  23.925  0.00  0.00    +0.000 A 
ATOM     11  C   UNL     1      -4.650  14.330  24.217  0.00  0.00    +0.000 A 
ATOM     12  C   UNL     1      -4.598  12.947  24.077  0.00  0.00    +0.000 A 
ATOM     13  C   UNL     1      -3.426  12.334  23.629  0.00  0.00    +0.000 A 
ATOM     14  C   UNL     1      -2.294  13.095  23.322  0.00  0.00    +0.000 A 
ATOM     15  C   UNL     1      -2.350  14.489  23.493  0.00  0.00    +0.000 A 
BRANCH  10  17
ATOM     16  C   UNL     1      -4.985  16.866  24.601  0.00  0.00    +0.000 C 
ATOM     17  O   UNL     1      -3.722  16.452  24.102  0.00  0.00    +0.000 OA
ENDBRANCH  10  17
ENDBRANCH   6  14
ENDBRANCH   5   7
ENDBRANCH   1   5
BRANCH   3  18
ATOM     18  C   UNL     1       1.374   7.548  20.980  0.00  0.00    +0.000 C 
BRANCH  18  19
ATOM     19  N   UNL     1       2.266   6.974  19.990  0.00  0.00    +0.000 N 
ATOM     20  C   UNL     1       2.750   5.683  20.085  0.00  0.00    +0.000 C 
ATOM     21  O   UNL     1       2.356   4.944  20.985  0.00  0.00    +0.000 OA
ATOM     22  H   UNL     1       2.609   7.574  19.249  0.00  0.00    +0.000 HD
BRANCH  20  23
ATOM     23  C   UNL     1       3.706   5.274  19.060  0.00  0.00    +0.000 A 
ATOM     24  S   UNL     1       5.386   5.547  19.263  0.00  0.00    +0.000 S 
ATOM     25  C   UNL     1       5.779   4.902  17.721  0.00  0.00    +0.000 A 
ATOM     26  C   UNL     1       7.066   4.793  17.155  0.00  0.00    +0.000 A 
ATOM     27  C   UNL     1       7.197   4.296  15.858  0.00  0.00    +0.000 A 
ATOM     28  C   UNL     1       6.077   3.908  15.137  0.00  0.00    +0.000 A 
ATOM     29  C   UNL     1       4.808   3.983  15.718  0.00  0.00    +0.000 A 
ATOM     30  C   UNL     1       4.637   4.482  17.038  0.00  0.00    +0.000 A 
ATOM     31  C   UNL     1       3.459   4.643  17.854  0.00  0.00    +0.000 A 
ATOM     32 CL   UNL     1       1.919   4.105  17.302  0.00  0.00    +0.000 Cl
ENDBRANCH  20  23
ENDBRANCH  18  19
ENDBRANCH   3  18
TORSDOF 7
ENDMDL
MODEL 6
REMARK VINA RESULT:      -7.4      3.732      5.146
REMARK  Name = 
REMARK  9 active torsions:
REMARK  status: ('A' for Active; 'I' for Inactive)
REMARK    1  A    between atoms: C_1  and  O_2
REMARK    2  A    between atoms: O_2  and  C_3
REMARK    3  A    between atoms: C_7  and  N_8
REMARK    4  A    between atoms: C_9  and  C_11
REMARK    5  A    between atoms: C_11  and  N_12
REMARK    6  A    between atoms: N_12  and  C_13
REMARK    7  A    between atoms: C_14  and  C_16
REMARK    8  A    between atoms: C_16  and  N_17
REMARK    9  A    between atoms: C_18  and  C_20
REMARK                            x       y       z     vdW  Elec       q    Type
REMARK                         _______ _______ _______ _____ _____    ______ ____
ROOT
ATOM      1  N   UNL     1       8.571   9.773  18.457  0.00  0.00    +0.000 N 
ATOM      2  C   UNL     1       8.263  10.808  17.481  0.00  0.00    +0.000 C 
ATOM      3  C   UNL     1       8.237   8.438  18.289  0.00  0.00    +0.000 C 
ATOM      4  O   UNL     1       8.723   7.568  19.018  0.00  0.00    +0.000 OA
ENDROOT
BRANCH   1   5
ATOM      5  C   UNL     1       9.264  10.187  19.686  0.00  0.00    +0.000 C 
BRANCH   5   7
ATOM      6  N   UNL     1       9.523  12.618  20.029  0.00  0.00    +0.000 N 
ATOM      7  C   UNL     1      10.148  11.444  19.644  0.00  0.00    +0.000 C 
ATOM      8  O   UNL     1      11.287  11.359  19.185  0.00  0.00    +0.000 OA
ATOM      9  H   UNL     1       8.590  12.517  20.411  0.00  0.00    +0.000 HD
BRANCH   6  14
ATOM     10  C   UNL     1      10.714  15.818  18.571  0.00  0.00    +0.000 A 
ATOM     11  C   UNL     1      11.098  16.524  19.711  0.00  0.00    +0.000 A 
ATOM     12  C   UNL     1      10.979  15.940  20.969  0.00  0.00    +0.000 A 
ATOM     13  C   UNL     1      10.462  14.650  21.094  0.00  0.00    +0.000 A 
ATOM     14  C   UNL     1      10.064  13.927  19.965  0.00  0.00    +0.000 A 
ATOM     15  C   UNL     1      10.213  14.516  18.699  0.00  0.00    +0.000 A 
BRANCH  10  17
ATOM     16  C   UNL     1      11.627  17.717  17.465  0.00  0.00    +0.000 C 
ATOM     17  O   UNL     1      10.880  16.511  17.403  0.00  0.00    +0.000 OA
ENDBRANCH  10  17
ENDBRANCH   6  14
ENDBRANCH   5   7
ENDBRANCH   1   5
BRANCH   3  18
ATOM     18  C   UNL     1       7.340   8.036  17.113  0.00  0.00    +0.000 C 
BRANCH  18  19
ATOM     19  N   UNL     1       6.418   6.977  17.478  0.00  0.00    +0.000 N 
ATOM     20  C   UNL     1       5.395   6.562  16.648  0.00  0.00    +0.000 C 
ATOM     21  O   UNL     1       5.294   7.031  15.516  0.00  0.00    +0.000 OA
ATOM     22  H   UNL     1       6.482   6.589  18.412  0.00  0.00    +0.000 HD
BRANCH  20  23
ATOM     23  C   UNL     1       4.496   5.546  17.187  0.00  0.00    +0.000 A 
ATOM     24  S   UNL     1       4.773   3.880  16.895  0.00  0.00    +0.000 S 
ATOM     25  C   UNL     1       3.354   3.394  17.733  0.00  0.00    +0.000 A 
ATOM     26  C   UNL     1       2.893   2.075  17.917  0.00  0.00    +0.000 A 
ATOM     27  C   UNL     1       1.681   1.866  18.577  0.00  0.00    +0.000 A 
ATOM     28  C   UNL     1       0.944   2.941  19.052  0.00  0.00    +0.000 A 
ATOM     29  C   UNL     1       1.426   4.244  18.899  0.00  0.00    +0.000 A 
ATOM     30  C   UNL     1       2.657   4.494  18.235  0.00  0.00    +0.000 A 
ATOM     31  C   UNL     1       3.367   5.721  17.968  0.00  0.00    +0.000 A 
ATOM     32 CL   UNL     1       2.788   7.228  18.568  0.00  0.00    +0.000 Cl
ENDBRANCH  20  23
ENDBRANCH  18  19
ENDBRANCH   3  18
TORSDOF 7
ENDMDL
MODEL 7
REMARK VINA RESULT:      -7.4      1.300      1.801
REMARK  Name = 
REMARK  9 active torsions:
REMARK  status: ('A' for Active; 'I' for Inactive)
REMARK    1  A    between atoms: C_1  and  O_2
REMARK    2  A    between atoms: O_2  and  C_3
REMARK    3  A    between atoms: C_7  and  N_8
REMARK    4  A    between atoms: C_9  and  C_11
REMARK    5  A    between atoms: C_11  and  N_12
REMARK    6  A    between atoms: N_12  and  C_13
REMARK    7  A    between atoms: C_14  and  C_16
REMARK    8  A    between atoms: C_16  and  N_17
REMARK    9  A    between atoms: C_18  and  C_20
REMARK                            x       y       z     vdW  Elec       q    Type
REMARK                         _______ _______ _______ _____ _____    ______ ____
ROOT
ATOM      1  N   UNL     1       6.372   6.287  18.047  0.00  0.00    +0.000 N 
ATOM      2  C   UNL     1       5.541   6.607  16.895  0.00  0.00    +0.000 C 
ATOM      3  C   UNL     1       5.913   5.591  19.154  0.00  0.00    +0.000 C 
ATOM      4  O   UNL     1       6.701   5.138  19.989  0.00  0.00    +0.000 OA
ENDROOT
BRANCH   1   5
ATOM      5  C   UNL     1       7.769   6.748  18.022  0.00  0.00    +0.000 C 
BRANCH   5   7
ATOM      6  N   UNL     1       8.896   8.758  18.906  0.00  0.00    +0.000 N 
ATOM      7  C   UNL     1       8.043   8.258  17.937  0.00  0.00    +0.000 C 
ATOM      8  O   UNL     1       7.429   8.932  17.110  0.00  0.00    +0.000 OA
ATOM      9  H   UNL     1       9.345   8.069  19.498  0.00  0.00    +0.000 HD
BRANCH   6  14
ATOM     10  C   UNL     1       9.579  11.906  20.753  0.00  0.00    +0.000 A 
ATOM     11  C   UNL     1       9.861  12.790  19.711  0.00  0.00    +0.000 A 
ATOM     12  C   UNL     1       9.812  12.355  18.390  0.00  0.00    +0.000 A 
ATOM     13  C   UNL     1       9.494  11.026  18.105  0.00  0.00    +0.000 A 
ATOM     14  C   UNL     1       9.215  10.120  19.133  0.00  0.00    +0.000 A 
ATOM     15  C   UNL     1       9.242  10.578  20.461  0.00  0.00    +0.000 A 
BRANCH  10  17
ATOM     16  C   UNL     1       8.757  13.509  22.308  0.00  0.00    +0.000 C 
ATOM     17  O   UNL     1       9.668  12.465  21.999  0.00  0.00    +0.000 OA
ENDBRANCH  10  17
ENDBRANCH   6  14
ENDBRANCH   5   7
ENDBRANCH   1   5
BRANCH   3  18
ATOM     18  C   UNL     1       4.414   5.289  19.276  0.00  0.00    +0.000 C 
BRANCH  18  19
ATOM     19  N   UNL     1       3.638   6.497  19.481  0.00  0.00    +0.000 N 
ATOM     20  C   UNL     1       2.388   6.487  20.069  0.00  0.00    +0.000 C 
ATOM     21  O   UNL     1       1.931   5.440  20.522  0.00  0.00    +0.000 OA
ATOM     22  H   UNL     1       3.997   7.366  19.103  0.00  0.00    +0.000 HD
BRANCH  20  23
ATOM     23  C   UNL     1       1.692   7.769  20.130  0.00  0.00    +0.000 A 
ATOM     24  S   UNL     1       0.919   8.284  21.570  0.00  0.00    +0.000 S 
ATOM     25  C   UNL     1       0.326   9.729  20.855  0.00  0.00    +0.000 A 
ATOM     26  C   UNL     1      -0.456  10.721  21.480  0.00  0.00    +0.000 A 
ATOM     27  C   UNL     1      -0.903  11.808  20.727  0.00  0.00    +0.000 A 
ATOM     28  C   UNL     1      -0.577  11.913  19.383  0.00  0.00    +0.000 A 
ATOM     29  C   UNL     1       0.230  10.945  18.778  0.00  0.00    +0.000 A 
ATOM     30  C   UNL     1       0.705   9.827  19.515  0.00  0.00    +0.000 A 
ATOM     31  C   UNL     1       1.549   8.720  19.135  0.00  0.00    +0.000 A 
ATOM     32 CL   UNL     1       2.251   8.641  17.564  0.00  0.00    +0.000 Cl
ENDBRANCH  20  23
ENDBRANCH  18  19
ENDBRANCH   3  18
TORSDOF 7
ENDMDL
MODEL 8
REMARK VINA RESULT:      -7.4      5.029      9.729
REMARK  Name = 
REMARK  9 active torsions:
REMARK  status: ('A' for Active; 'I' for Inactive)
REMARK    1  A    between atoms: C_1  and  O_2
REMARK    2  A    between atoms: O_2  and  C_3
REMARK    3  A    between atoms: C_7  and  N_8
REMARK    4  A    between atoms: C_9  and  C_11
REMARK    5  A    between atoms: C_11  and  N_12
REMARK    6  A    between atoms: N_12  and  C_13
REMARK    7  A    between atoms: C_14  and  C_16
REMARK    8  A    between atoms: C_16  and  N_17
REMARK    9  A    between atoms: C_18  and  C_20
REMARK                            x       y       z     vdW  Elec       q    Type
REMARK                         _______ _______ _______ _____ _____    ______ ____
ROOT
ATOM      1  N   UNL     1       0.474   9.548  21.385  0.00  0.00    +0.000 N 
ATOM      2  C   UNL     1       0.001   8.913  22.608  0.00  0.00    +0.000 C 
ATOM      3  C   UNL     1       1.231   8.894  20.426  0.00  0.00    +0.000 C 
ATOM      4  O   UNL     1       1.405   9.391  19.310  0.00  0.00    +0.000 OA
ENDROOT
BRANCH   1   5
ATOM      5  C   UNL     1       0.130  10.963  21.182  0.00  0.00    +0.000 C 
BRANCH   5   7
ATOM      6  N   UNL     1      -1.403  10.621  19.278  0.00  0.00    +0.000 N 
ATOM      7  C   UNL     1      -1.185  11.304  20.462  0.00  0.00    +0.000 C 
ATOM      8  O   UNL     1      -1.893  12.207  20.907  0.00  0.00    +0.000 OA
ATOM      9  H   UNL     1      -0.740   9.885  19.063  0.00  0.00    +0.000 HD
BRANCH   6  14
ATOM     10  C   UNL     1      -3.506  10.215  16.245  0.00  0.00    +0.000 A 
ATOM     11  C   UNL     1      -4.524  11.140  16.480  0.00  0.00    +0.000 A 
ATOM     12  C   UNL     1      -4.513  11.914  17.636  0.00  0.00    +0.000 A 
ATOM     13  C   UNL     1      -3.489  11.758  18.572  0.00  0.00    +0.000 A 
ATOM     14  C   UNL     1      -2.463  10.831  18.361  0.00  0.00    +0.000 A 
ATOM     15  C   UNL     1      -2.471  10.074  17.178  0.00  0.00    +0.000 A 
BRANCH  10  17
ATOM     16  C   UNL     1      -3.147  10.132  13.894  0.00  0.00    +0.000 C 
ATOM     17  O   UNL     1      -3.644   9.520  15.075  0.00  0.00    +0.000 OA
ENDBRANCH  10  17
ENDBRANCH   6  14
ENDBRANCH   5   7
ENDBRANCH   1   5
BRANCH   3  18
ATOM     18  C   UNL     1       1.764   7.488  20.727  0.00  0.00    +0.000 C 
BRANCH  18  19
ATOM     19  N   UNL     1       2.616   6.997  19.660  0.00  0.00    +0.000 N 
ATOM     20  C   UNL     1       2.998   5.673  19.564  0.00  0.00    +0.000 C 
ATOM     21  O   UNL     1       2.543   4.844  20.349  0.00  0.00    +0.000 OA
ATOM     22  H   UNL     1       3.007   7.670  19.012  0.00  0.00    +0.000 HD
BRANCH  20  23
ATOM     23  C   UNL     1       3.926   5.345  18.486  0.00  0.00    +0.000 A 
ATOM     24  S   UNL     1       5.459   6.105  18.380  0.00  0.00    +0.000 S 
ATOM     25  C   UNL     1       5.872   5.295  16.923  0.00  0.00    +0.000 A 
ATOM     26  C   UNL     1       7.069   5.433  16.192  0.00  0.00    +0.000 A 
ATOM     27  C   UNL     1       7.213   4.739  14.989  0.00  0.00    +0.000 A 
ATOM     28  C   UNL     1       6.195   3.921  14.523  0.00  0.00    +0.000 A 
ATOM     29  C   UNL     1       5.026   3.759  15.271  0.00  0.00    +0.000 A 
ATOM     30  C   UNL     1       4.846   4.448  16.502  0.00  0.00    +0.000 A 
ATOM     31  C   UNL     1       3.761   4.440  17.452  0.00  0.00    +0.000 A 
ATOM     32 CL   UNL     1       2.405   3.399  17.239  0.00  0.00    +0.000 Cl
ENDBRANCH  20  23
ENDBRANCH  18  19
ENDBRANCH   3  18
TORSDOF 7
ENDMDL
MODEL 9
REMARK VINA RESULT:      -7.3      3.577      5.965
REMARK  Name = 
REMARK  9 active torsions:
REMARK  status: ('A' for Active; 'I' for Inactive)
REMARK    1  A    between atoms: C_1  and  O_2
REMARK    2  A    between atoms: O_2  and  C_3
REMARK    3  A    between atoms: C_7  and  N_8
REMARK    4  A    between atoms: C_9  and  C_11
REMARK    5  A    between atoms: C_11  and  N_12
REMARK    6  A    between atoms: N_12  and  C_13
REMARK    7  A    between atoms: C_14  and  C_16
REMARK    8  A    between atoms: C_16  and  N_17
REMARK    9  A    between atoms: C_18  and  C_20
REMARK                            x       y       z     vdW  Elec       q    Type
REMARK                         _______ _______ _______ _____ _____    ______ ____
ROOT
ATOM      1  N   UNL     1       1.774   4.469  20.058  0.00  0.00    +0.000 N 
ATOM      2  C   UNL     1       1.851   3.723  21.307  0.00  0.00    +0.000 C 
ATOM      3  C   UNL     1       1.791   5.853  19.991  0.00  0.00    +0.000 C 
ATOM      4  O   UNL     1       1.963   6.433  18.915  0.00  0.00    +0.000 OA
ENDROOT
BRANCH   1   5
ATOM      5  C   UNL     1       1.660   3.694  18.813  0.00  0.00    +0.000 C 
BRANCH   5   7
ATOM      6  N   UNL     1       3.668   4.607  17.705  0.00  0.00    +0.000 N 
ATOM      7  C   UNL     1       2.925   3.469  17.970  0.00  0.00    +0.000 C 
ATOM      8  O   UNL     1       3.142   2.350  17.505  0.00  0.00    +0.000 OA
ATOM      9  H   UNL     1       3.373   5.449  18.186  0.00  0.00    +0.000 HD
BRANCH   6  14
ATOM     10  C   UNL     1       6.851   5.890  16.289  0.00  0.00    +0.000 A 
ATOM     11  C   UNL     1       7.090   4.982  15.258  0.00  0.00    +0.000 A 
ATOM     12  C   UNL     1       6.191   3.948  15.014  0.00  0.00    +0.000 A 
ATOM     13  C   UNL     1       5.053   3.809  15.811  0.00  0.00    +0.000 A 
ATOM     14  C   UNL     1       4.799   4.703  16.856  0.00  0.00    +0.000 A 
ATOM     15  C   UNL     1       5.699   5.758  17.076  0.00  0.00    +0.000 A 
BRANCH  10  17
ATOM     16  C   UNL     1       7.727   7.711  17.546  0.00  0.00    +0.000 C 
ATOM     17  O   UNL     1       7.816   6.852  16.420  0.00  0.00    +0.000 OA
ENDBRANCH  10  17
ENDBRANCH   6  14
ENDBRANCH   5   7
ENDBRANCH   1   5
BRANCH   3  18
ATOM     18  C   UNL     1       1.703   6.664  21.290  0.00  0.00    +0.000 C 
BRANCH  18  19
ATOM     19  N   UNL     1       1.469   8.072  21.029  0.00  0.00    +0.000 N 
ATOM     20  C   UNL     1       0.247   8.677  21.252  0.00  0.00    +0.000 C 
ATOM     21  O   UNL     1      -0.667   8.041  21.773  0.00  0.00    +0.000 OA
ATOM     22  H   UNL     1       2.209   8.606  20.589  0.00  0.00    +0.000 HD
BRANCH  20  23
ATOM     23  C   UNL     1       0.139  10.080  20.862  0.00  0.00    +0.000 A 
ATOM     24  S   UNL     1      -0.389  11.268  21.979  0.00  0.00    +0.000 S 
ATOM     25  C   UNL     1      -0.318  12.533  20.820  0.00  0.00    +0.000 A 
ATOM     26  C   UNL     1      -0.637  13.890  21.032  0.00  0.00    +0.000 A 
ATOM     27  C   UNL     1      -0.579  14.777  19.956  0.00  0.00    +0.000 A 
ATOM     28  C   UNL     1      -0.206  14.331  18.697  0.00  0.00    +0.000 A 
ATOM     29  C   UNL     1       0.145  12.992  18.502  0.00  0.00    +0.000 A 
ATOM     30  C   UNL     1       0.101  12.062  19.575  0.00  0.00    +0.000 A 
ATOM     31  C   UNL     1       0.424  10.657  19.637  0.00  0.00    +0.000 A 
ATOM     32 CL   UNL     1       1.070   9.836  18.268  0.00  0.00    +0.000 Cl
ENDBRANCH  20  23
ENDBRANCH  18  19
ENDBRANCH   3  18
TORSDOF 7
ENDMDL
