MODEL 1
REMARK VINA RESULT:      -9.0      0.000      0.000
REMARK  Name = 
REMARK  4 active torsions:
REMARK  status: ('A' for Active; 'I' for Inactive)
REMARK    1  A    between atoms: O_1  and  C_2
REMARK    2  A    between atoms: C_5  and  C_6
REMARK    3  A    between atoms: C_12  and  C_13
REMARK    4  A    between atoms: N_16  and  C_17
REMARK                            x       y       z     vdW  Elec       q    Type
REMARK                         _______ _______ _______ _____ _____    ______ ____
ROOT
ATOM      1  C   UNL     1       2.390   6.679  19.517  0.00  0.00    +0.000 A 
ATOM      2  N   UNL     1       3.500   6.350  18.840  0.00  0.00    +0.000 NA
ATOM      3  C   UNL     1       4.036   5.137  19.047  0.00  0.00    +0.000 A 
ATOM      4  N   UNL     1       5.264   4.844  18.390  0.00  0.00    +0.000 N 
ATOM      5  C   UNL     1       3.408   4.184  19.870  0.00  0.00    +0.000 A 
ATOM      6  C   UNL     1       3.884   2.870  20.141  0.00  0.00    +0.000 A 
ATOM      7  C   UNL     1       3.216   2.040  21.045  0.00  0.00    +0.000 A 
ATOM      8  C   UNL     1       2.064   2.498  21.669  0.00  0.00    +0.000 A 
ATOM      9  C   UNL     1       1.585   3.778  21.382  0.00  0.00    +0.000 A 
ATOM     10  C   UNL     1       2.236   4.626  20.499  0.00  0.00    +0.000 A 
ATOM     11  N   UNL     1       1.723   5.840  20.319  0.00  0.00    +0.000 NA
ATOM     12  H   UNL     1       5.805   4.238  18.998  0.00  0.00    +0.000 HD
ENDROOT
BRANCH   1  18
ATOM     13  C   UNL     1       2.079   8.801  18.169  0.00  0.00    +0.000 A 
ATOM     14  C   UNL     1       1.568  10.095  18.046  0.00  0.00    +0.000 A 
ATOM     15  C   UNL     1       0.863  10.672  19.104  0.00  0.00    +0.000 A 
ATOM     16  C   UNL     1       0.663   9.968  20.295  0.00  0.00    +0.000 A 
ATOM     17  C   UNL     1       1.178   8.667  20.395  0.00  0.00    +0.000 A 
ATOM     18  C   UNL     1       1.902   8.056  19.346  0.00  0.00    +0.000 A 
BRANCH  16  19
ATOM     19  C   UNL     1      -0.070  10.577  21.405  0.00  0.00    +0.000 A 
ATOM     20  C   UNL     1      -0.594  11.843  21.579  0.00  0.00    +0.000 A 
ATOM     21  C   UNL     1      -1.165  11.842  22.864  0.00  0.00    +0.000 A 
ATOM     22  N   UNL     1      -1.015  10.672  23.481  0.00  0.00    +0.000 NA
ATOM     23  N   UNL     1      -0.357   9.923  22.581  0.00  0.00    +0.000 N 
ATOM     24  H   UNL     1      -0.117   8.972  22.833  0.00  0.00    +0.000 HD
ENDBRANCH  16  19
BRANCH  13  25
ATOM     25  O   UNL     1       2.719   8.250  17.092  0.00  0.00    +0.000 OA
ATOM     26  H   UNL     1       2.080   8.095  16.378  0.00  0.00    +0.000 HD
ENDBRANCH  13  25
ENDBRANCH   1  18
BRANCH   4  27
ATOM     27  C   UNL     1       6.027   6.073  18.115  0.00  0.00    +0.000 C 
ATOM     28  C   UNL     1       7.382   6.050  18.803  0.00  0.00    +0.000 C 
ATOM     29  C   UNL     1       8.083   7.180  18.078  0.00  0.00    +0.000 C 
ATOM     30  N   UNL     1       7.739   6.983  16.663  0.00  0.00    +0.000 NA
ATOM     31  C   UNL     1       6.433   6.273  16.649  0.00  0.00    +0.000 C 
ATOM     32  H   UNL     1       8.434   6.372  16.235  0.00  0.00    +0.000 HD
ENDBRANCH   4  27
TORSDOF 4
ENDMDL
MODEL 2
REMARK VINA RESULT:      -7.9      2.879      7.889
REMARK  Name = 
REMARK  4 active torsions:
REMARK  status: ('A' for Active; 'I' for Inactive)
REMARK    1  A    between atoms: O_1  and  C_2
REMARK    2  A    between atoms: C_5  and  C_6
REMARK    3  A    between atoms: C_12  and  C_13
REMARK    4  A    between atoms: N_16  and  C_17
REMARK                            x       y       z     vdW  Elec       q    Type
REMARK                         _______ _______ _______ _____ _____    ______ ____
ROOT
ATOM      1  C   UNL     1       0.532   9.613  19.647  0.00  0.00    +0.000 A 
ATOM      2  N   UNL     1      -0.211  10.269  18.742  0.00  0.00    +0.000 NA
ATOM      3  C   UNL     1      -1.154  11.114  19.184  0.00  0.00    +0.000 A 
ATOM      4  N   UNL     1      -1.992  11.727  18.210  0.00  0.00    +0.000 N 
ATOM      5  C   UNL     1      -1.309  11.396  20.554  0.00  0.00    +0.000 A 
ATOM      6  C   UNL     1      -2.265  12.284  21.123  0.00  0.00    +0.000 A 
ATOM      7  C   UNL     1      -2.380  12.420  22.509  0.00  0.00    +0.000 A 
ATOM      8  C   UNL     1      -1.537  11.693  23.337  0.00  0.00    +0.000 A 
ATOM      9  C   UNL     1      -0.583  10.841  22.777  0.00  0.00    +0.000 A 
ATOM     10  C   UNL     1      -0.457  10.679  21.405  0.00  0.00    +0.000 A 
ATOM     11  N   UNL     1       0.457   9.817  20.968  0.00  0.00    +0.000 NA
ATOM     12  H   UNL     1      -2.912  11.846  18.621  0.00  0.00    +0.000 HD
ENDROOT
BRANCH   1  18
ATOM     13  C   UNL     1       2.284   8.831  17.995  0.00  0.00    +0.000 A 
ATOM     14  C   UNL     1       3.188   7.860  17.555  0.00  0.00    +0.000 A 
ATOM     15  C   UNL     1       3.302   6.649  18.240  0.00  0.00    +0.000 A 
ATOM     16  C   UNL     1       2.516   6.391  19.366  0.00  0.00    +0.000 A 
ATOM     17  C   UNL     1       1.620   7.381  19.796  0.00  0.00    +0.000 A 
ATOM     18  C   UNL     1       1.475   8.615  19.122  0.00  0.00    +0.000 A 
BRANCH  16  19
ATOM     19  C   UNL     1       2.632   5.118  20.079  0.00  0.00    +0.000 A 
ATOM     20  C   UNL     1       3.140   3.891  19.697  0.00  0.00    +0.000 A 
ATOM     21  C   UNL     1       2.953   3.044  20.804  0.00  0.00    +0.000 A 
ATOM     22  N   UNL     1       2.360   3.667  21.820  0.00  0.00    +0.000 NA
ATOM     23  N   UNL     1       2.182   4.918  21.363  0.00  0.00    +0.000 N 
ATOM     24  H   UNL     1       1.730   5.590  21.972  0.00  0.00    +0.000 HD
ENDBRANCH  16  19
BRANCH  13  25
ATOM     25  O   UNL     1       2.239  10.025  17.329  0.00  0.00    +0.000 OA
ATOM     26  H   UNL     1       1.565   9.985  16.632  0.00  0.00    +0.000 HD
ENDBRANCH  13  25
ENDBRANCH   1  18
BRANCH   4  27
ATOM     27  C   UNL     1      -2.096  10.896  16.999  0.00  0.00    +0.000 C 
ATOM     28  C   UNL     1      -3.045   9.727  17.210  0.00  0.00    +0.000 C 
ATOM     29  C   UNL     1      -3.269   9.286  15.779  0.00  0.00    +0.000 C 
ATOM     30  N   UNL     1      -3.462  10.537  15.032  0.00  0.00    +0.000 NA
ATOM     31  C   UNL     1      -2.731  11.588  15.786  0.00  0.00    +0.000 C 
ATOM     32  H   UNL     1      -4.454  10.776  15.038  0.00  0.00    +0.000 HD
ENDBRANCH   4  27
TORSDOF 4
ENDMDL
MODEL 3
REMARK VINA RESULT:      -7.8      2.507      4.832
REMARK  Name = 
REMARK  4 active torsions:
REMARK  status: ('A' for Active; 'I' for Inactive)
REMARK    1  A    between atoms: O_1  and  C_2
REMARK    2  A    between atoms: C_5  and  C_6
REMARK    3  A    between atoms: C_12  and  C_13
REMARK    4  A    between atoms: N_16  and  C_17
REMARK                            x       y       z     vdW  Elec       q    Type
REMARK                         _______ _______ _______ _____ _____    ______ ____
ROOT
ATOM      1  C   UNL     1       3.100   6.400  18.611  0.00  0.00    +0.000 A 
ATOM      2  N   UNL     1       3.122   5.111  18.983  0.00  0.00    +0.000 NA
ATOM      3  C   UNL     1       3.806   4.241  18.224  0.00  0.00    +0.000 A 
ATOM      4  N   UNL     1       3.739   2.866  18.584  0.00  0.00    +0.000 N 
ATOM      5  C   UNL     1       4.568   4.665  17.119  0.00  0.00    +0.000 A 
ATOM      6  C   UNL     1       5.337   3.828  16.262  0.00  0.00    +0.000 A 
ATOM      7  C   UNL     1       5.987   4.355  15.143  0.00  0.00    +0.000 A 
ATOM      8  C   UNL     1       5.896   5.714  14.878  0.00  0.00    +0.000 A 
ATOM      9  C   UNL     1       5.162   6.537  15.734  0.00  0.00    +0.000 A 
ATOM     10  C   UNL     1       4.497   6.038  16.845  0.00  0.00    +0.000 A 
ATOM     11  N   UNL     1       3.793   6.895  17.579  0.00  0.00    +0.000 NA
ATOM     12  H   UNL     1       3.777   2.318  17.731  0.00  0.00    +0.000 HD
ENDROOT
BRANCH   1  18
ATOM     13  C   UNL     1       1.818   7.003  20.711  0.00  0.00    +0.000 A 
ATOM     14  C   UNL     1       1.036   7.905  21.436  0.00  0.00    +0.000 A 
ATOM     15  C   UNL     1       0.667   9.126  20.869  0.00  0.00    +0.000 A 
ATOM     16  C   UNL     1       1.072   9.460  19.574  0.00  0.00    +0.000 A 
ATOM     17  C   UNL     1       1.863   8.544  18.865  0.00  0.00    +0.000 A 
ATOM     18  C   UNL     1       2.248   7.297  19.407  0.00  0.00    +0.000 A 
BRANCH  16  19
ATOM     19  C   UNL     1       0.679  10.738  18.977  0.00  0.00    +0.000 A 
ATOM     20  C   UNL     1       1.313  11.964  18.929  0.00  0.00    +0.000 A 
ATOM     21  C   UNL     1       0.432  12.817  18.241  0.00  0.00    +0.000 A 
ATOM     22  N   UNL     1      -0.690  12.198  17.881  0.00  0.00    +0.000 NA
ATOM     23  N   UNL     1      -0.516  10.944  18.330  0.00  0.00    +0.000 N 
ATOM     24  H   UNL     1      -1.260  10.272  18.176  0.00  0.00    +0.000 HD
ENDBRANCH  16  19
BRANCH  13  25
ATOM     25  O   UNL     1       2.203   5.840  21.320  0.00  0.00    +0.000 OA
ATOM     26  H   UNL     1       3.098   5.940  21.680  0.00  0.00    +0.000 HD
ENDBRANCH  13  25
ENDBRANCH   1  18
BRANCH   4  27
ATOM     27  C   UNL     1       2.493   2.565  19.308  0.00  0.00    +0.000 C 
ATOM     28  C   UNL     1       2.658   2.770  20.805  0.00  0.00    +0.000 C 
ATOM     29  C   UNL     1       1.210   2.780  21.248  0.00  0.00    +0.000 C 
ATOM     30  N   UNL     1       0.523   3.612  20.251  0.00  0.00    +0.000 NA
ATOM     31  C   UNL     1       1.318   3.502  19.000  0.00  0.00    +0.000 C 
ATOM     32  H   UNL     1       0.548   4.584  20.557  0.00  0.00    +0.000 HD
ENDBRANCH   4  27
TORSDOF 4
ENDMDL
MODEL 4
REMARK VINA RESULT:      -7.6      6.598     10.596
REMARK  Name = 
REMARK  4 active torsions:
REMARK  status: ('A' for Active; 'I' for Inactive)
REMARK    1  A    between atoms: O_1  and  C_2
REMARK    2  A    between atoms: C_5  and  C_6
REMARK    3  A    between atoms: C_12  and  C_13
REMARK    4  A    between atoms: N_16  and  C_17
REMARK                            x       y       z     vdW  Elec       q    Type
REMARK                         _______ _______ _______ _____ _____    ______ ____
ROOT
ATOM      1  C   UNL     1      -4.868  13.069  21.594  0.00  0.00    +0.000 A 
ATOM      2  N   UNL     1      -3.822  12.428  22.136  0.00  0.00    +0.000 NA
ATOM      3  C   UNL     1      -3.190  13.003  23.171  0.00  0.00    +0.000 A 
ATOM      4  N   UNL     1      -2.027  12.351  23.670  0.00  0.00    +0.000 N 
ATOM      5  C   UNL     1      -3.658  14.197  23.751  0.00  0.00    +0.000 A 
ATOM      6  C   UNL     1      -3.071  14.877  24.855  0.00  0.00    +0.000 A 
ATOM      7  C   UNL     1      -3.578  16.103  25.291  0.00  0.00    +0.000 A 
ATOM      8  C   UNL     1      -4.680  16.653  24.650  0.00  0.00    +0.000 A 
ATOM      9  C   UNL     1      -5.269  15.972  23.583  0.00  0.00    +0.000 A 
ATOM     10  C   UNL     1      -4.777  14.759  23.122  0.00  0.00    +0.000 A 
ATOM     11  N   UNL     1      -5.384  14.205  22.076  0.00  0.00    +0.000 NA
ATOM     12  H   UNL     1      -1.383  13.067  23.991  0.00  0.00    +0.000 HD
ENDROOT
BRANCH   1  18
ATOM     13  C   UNL     1      -6.842  12.329  20.190  0.00  0.00    +0.000 A 
ATOM     14  C   UNL     1      -7.353  11.770  19.016  0.00  0.00    +0.000 A 
ATOM     15  C   UNL     1      -6.485  11.329  18.016  0.00  0.00    +0.000 A 
ATOM     16  C   UNL     1      -5.101  11.437  18.175  0.00  0.00    +0.000 A 
ATOM     17  C   UNL     1      -4.608  12.009  19.358  0.00  0.00    +0.000 A 
ATOM     18  C   UNL     1      -5.459  12.459  20.393  0.00  0.00    +0.000 A 
BRANCH  16  19
ATOM     19  C   UNL     1      -4.192  10.968  17.129  0.00  0.00    +0.000 A 
ATOM     20  C   UNL     1      -3.319   9.898  17.078  0.00  0.00    +0.000 A 
ATOM     21  C   UNL     1      -2.698   9.978  15.819  0.00  0.00    +0.000 A 
ATOM     22  N   UNL     1      -3.124  11.022  15.112  0.00  0.00    +0.000 NA
ATOM     23  N   UNL     1      -4.029  11.601  15.919  0.00  0.00    +0.000 N 
ATOM     24  H   UNL     1      -4.494  12.440  15.592  0.00  0.00    +0.000 HD
ENDBRANCH  16  19
BRANCH  13  25
ATOM     25  O   UNL     1      -7.725  12.798  21.124  0.00  0.00    +0.000 OA
ATOM     26  H   UNL     1      -7.922  13.731  20.948  0.00  0.00    +0.000 HD
ENDBRANCH  13  25
ENDBRANCH   1  18
BRANCH   4  27
ATOM     27  C   UNL     1      -1.381  11.540  22.625  0.00  0.00    +0.000 C 
ATOM     28  C   UNL     1      -0.282  12.319  21.920  0.00  0.00    +0.000 C 
ATOM     29  C   UNL     1       0.444  11.196  21.209  0.00  0.00    +0.000 C 
ATOM     30  N   UNL     1       0.540  10.124  22.210  0.00  0.00    +0.000 NA
ATOM     31  C   UNL     1      -0.608  10.316  23.135  0.00  0.00    +0.000 C 
ATOM     32  H   UNL     1       1.399  10.246  22.745  0.00  0.00    +0.000 HD
ENDBRANCH   4  27
TORSDOF 4
ENDMDL
MODEL 5
REMARK VINA RESULT:      -7.4      3.576      8.913
REMARK  Name = 
REMARK  4 active torsions:
REMARK  status: ('A' for Active; 'I' for Inactive)
REMARK    1  A    between atoms: O_1  and  C_2
REMARK    2  A    between atoms: C_5  and  C_6
REMARK    3  A    between atoms: C_12  and  C_13
REMARK    4  A    between atoms: N_16  and  C_17
REMARK                            x       y       z     vdW  Elec       q    Type
REMARK                         _______ _______ _______ _____ _____    ______ ____
ROOT
ATOM      1  C   UNL     1       0.815  10.953  19.634  0.00  0.00    +0.000 A 
ATOM      2  N   UNL     1      -0.061  11.153  18.638  0.00  0.00    +0.000 NA
ATOM      3  C   UNL     1      -0.436  12.411  18.362  0.00  0.00    +0.000 A 
ATOM      4  N   UNL     1      -1.436  12.592  17.365  0.00  0.00    +0.000 N 
ATOM      5  C   UNL     1       0.139  13.514  19.021  0.00  0.00    +0.000 A 
ATOM      6  C   UNL     1      -0.177  14.883  18.792  0.00  0.00    +0.000 A 
ATOM      7  C   UNL     1       0.401  15.890  19.570  0.00  0.00    +0.000 A 
ATOM      8  C   UNL     1       1.309  15.548  20.562  0.00  0.00    +0.000 A 
ATOM      9  C   UNL     1       1.636  14.207  20.768  0.00  0.00    +0.000 A 
ATOM     10  C   UNL     1       1.067  13.187  20.019  0.00  0.00    +0.000 A 
ATOM     11  N   UNL     1       1.415  11.938  20.314  0.00  0.00    +0.000 NA
ATOM     12  H   UNL     1      -1.995  13.397  17.628  0.00  0.00    +0.000 HD
ENDROOT
BRANCH   1  18
ATOM     13  C   UNL     1       0.635   8.921  21.134  0.00  0.00    +0.000 A 
ATOM     14  C   UNL     1       0.919   7.578  21.396  0.00  0.00    +0.000 A 
ATOM     15  C   UNL     1       1.689   6.838  20.497  0.00  0.00    +0.000 A 
ATOM     16  C   UNL     1       2.185   7.427  19.331  0.00  0.00    +0.000 A 
ATOM     17  C   UNL     1       1.882   8.774  19.083  0.00  0.00    +0.000 A 
ATOM     18  C   UNL     1       1.111   9.554  19.976  0.00  0.00    +0.000 A 
BRANCH  16  19
ATOM     19  C   UNL     1       2.998   6.652  18.392  0.00  0.00    +0.000 A 
ATOM     20  C   UNL     1       3.064   5.297  18.133  0.00  0.00    +0.000 A 
ATOM     21  C   UNL     1       4.052   5.150  17.143  0.00  0.00    +0.000 A 
ATOM     22  N   UNL     1       4.593   6.315  16.794  0.00  0.00    +0.000 NA
ATOM     23  N   UNL     1       3.938   7.207  17.556  0.00  0.00    +0.000 N 
ATOM     24  H   UNL     1       4.188   8.185  17.471  0.00  0.00    +0.000 HD
ENDBRANCH  16  19
BRANCH  13  25
ATOM     25  O   UNL     1      -0.166   9.598  22.013  0.00  0.00    +0.000 OA
ATOM     26  H   UNL     1       0.357  10.265  22.484  0.00  0.00    +0.000 HD
ENDBRANCH  13  25
ENDBRANCH   1  18
BRANCH   4  27
ATOM     27  C   UNL     1      -2.301  11.405  17.257  0.00  0.00    +0.000 C 
ATOM     28  C   UNL     1      -3.576  11.574  18.067  0.00  0.00    +0.000 C 
ATOM     29  C   UNL     1      -4.419  10.451  17.500  0.00  0.00    +0.000 C 
ATOM     30  N   UNL     1      -4.205  10.524  16.048  0.00  0.00    +0.000 NA
ATOM     31  C   UNL     1      -2.864  11.134  15.856  0.00  0.00    +0.000 C 
ATOM     32  H   UNL     1      -4.899  11.152  15.643  0.00  0.00    +0.000 HD
ENDBRANCH   4  27
TORSDOF 4
ENDMDL
MODEL 6
REMARK VINA RESULT:      -7.4      2.759      5.147
REMARK  Name = 
REMARK  4 active torsions:
REMARK  status: ('A' for Active; 'I' for Inactive)
REMARK    1  A    between atoms: O_1  and  C_2
REMARK    2  A    between atoms: C_5  and  C_6
REMARK    3  A    between atoms: C_12  and  C_13
REMARK    4  A    between atoms: N_16  and  C_17
REMARK                            x       y       z     vdW  Elec       q    Type
REMARK                         _______ _______ _______ _____ _____    ______ ____
ROOT
ATOM      1  C   UNL     1       2.496   7.525  18.685  0.00  0.00    +0.000 A 
ATOM      2  N   UNL     1       2.700   6.426  19.427  0.00  0.00    +0.000 NA
ATOM      3  C   UNL     1       3.578   5.513  18.984  0.00  0.00    +0.000 A 
ATOM      4  N   UNL     1       3.709   4.313  19.739  0.00  0.00    +0.000 N 
ATOM      5  C   UNL     1       4.349   5.730  17.827  0.00  0.00    +0.000 A 
ATOM      6  C   UNL     1       5.313   4.834  17.284  0.00  0.00    +0.000 A 
ATOM      7  C   UNL     1       5.958   5.123  16.079  0.00  0.00    +0.000 A 
ATOM      8  C   UNL     1       5.666   6.307  15.415  0.00  0.00    +0.000 A 
ATOM      9  C   UNL     1       4.738   7.195  15.962  0.00  0.00    +0.000 A 
ATOM     10  C   UNL     1       4.075   6.927  17.151  0.00  0.00    +0.000 A 
ATOM     11  N   UNL     1       3.182   7.817  17.573  0.00  0.00    +0.000 NA
ATOM     12  H   UNL     1       3.907   3.558  19.091  0.00  0.00    +0.000 HD
ENDROOT
BRANCH   1  18
ATOM     13  C   UNL     1       1.302   8.844  20.487  0.00  0.00    +0.000 A 
ATOM     14  C   UNL     1       0.305   9.745  20.870  0.00  0.00    +0.000 A 
ATOM     15  C   UNL     1      -0.571  10.267  19.917  0.00  0.00    +0.000 A 
ATOM     16  C   UNL     1      -0.465   9.896  18.574  0.00  0.00    +0.000 A 
ATOM     17  C   UNL     1       0.547   8.996  18.208  0.00  0.00    +0.000 A 
ATOM     18  C   UNL     1       1.446   8.443  19.149  0.00  0.00    +0.000 A 
BRANCH  16  19
ATOM     19  C   UNL     1      -1.388  10.439  17.577  0.00  0.00    +0.000 A 
ATOM     20  C   UNL     1      -2.119  11.611  17.540  0.00  0.00    +0.000 A 
ATOM     21  C   UNL     1      -2.844  11.565  16.336  0.00  0.00    +0.000 A 
ATOM     22  N   UNL     1      -2.612  10.448  15.650  0.00  0.00    +0.000 NA
ATOM     23  N   UNL     1      -1.726   9.787  16.414  0.00  0.00    +0.000 N 
ATOM     24  H   UNL     1      -1.399   8.883  16.095  0.00  0.00    +0.000 HD
ENDBRANCH  16  19
BRANCH  13  25
ATOM     25  O   UNL     1       2.173   8.395  21.441  0.00  0.00    +0.000 OA
ATOM     26  H   UNL     1       3.071   8.698  21.232  0.00  0.00    +0.000 HD
ENDBRANCH  13  25
ENDBRANCH   1  18
BRANCH   4  27
ATOM     27  C   UNL     1       2.474   4.013  20.482  0.00  0.00    +0.000 C 
ATOM     28  C   UNL     1       1.594   3.036  19.721  0.00  0.00    +0.000 C 
ATOM     29  C   UNL     1       0.636   2.612  20.815  0.00  0.00    +0.000 C 
ATOM     30  N   UNL     1       1.489   2.396  21.992  0.00  0.00    +0.000 NA
ATOM     31  C   UNL     1       2.676   3.271  21.810  0.00  0.00    +0.000 C 
ATOM     32  H   UNL     1       1.809   1.427  21.996  0.00  0.00    +0.000 HD
ENDBRANCH   4  27
TORSDOF 4
ENDMDL
MODEL 7
REMARK VINA RESULT:      -7.4      2.666      7.701
REMARK  Name = 
REMARK  4 active torsions:
REMARK  status: ('A' for Active; 'I' for Inactive)
REMARK    1  A    between atoms: O_1  and  C_2
REMARK    2  A    between atoms: C_5  and  C_6
REMARK    3  A    between atoms: C_12  and  C_13
REMARK    4  A    between atoms: N_16  and  C_17
REMARK                            x       y       z     vdW  Elec       q    Type
REMARK                         _______ _______ _______ _____ _____    ______ ____
ROOT
ATOM      1  C   UNL     1       1.127   8.981  19.679  0.00  0.00    +0.000 A 
ATOM      2  N   UNL     1       0.346   9.799  18.957  0.00  0.00    +0.000 NA
ATOM      3  C   UNL     1      -0.561  10.548  19.603  0.00  0.00    +0.000 A 
ATOM      4  N   UNL     1      -1.442  11.337  18.811  0.00  0.00    +0.000 N 
ATOM      5  C   UNL     1      -0.638  10.564  21.008  0.00  0.00    +0.000 A 
ATOM      6  C   UNL     1      -1.550  11.331  21.788  0.00  0.00    +0.000 A 
ATOM      7  C   UNL     1      -1.588  11.201  23.178  0.00  0.00    +0.000 A 
ATOM      8  C   UNL     1      -0.711  10.327  23.805  0.00  0.00    +0.000 A 
ATOM      9  C   UNL     1       0.199   9.594  23.042  0.00  0.00    +0.000 A 
ATOM     10  C   UNL     1       0.249   9.696  21.659  0.00  0.00    +0.000 A 
ATOM     11  N   UNL     1       1.126   8.930  21.016  0.00  0.00    +0.000 NA
ATOM     12  H   UNL     1      -2.336  11.378  19.287  0.00  0.00    +0.000 HD
ENDROOT
BRANCH   1  18
ATOM     13  C   UNL     1       2.636   8.465  17.711  0.00  0.00    +0.000 A 
ATOM     14  C   UNL     1       3.509   7.600  17.047  0.00  0.00    +0.000 A 
ATOM     15  C   UNL     1       3.792   6.343  17.586  0.00  0.00    +0.000 A 
ATOM     16  C   UNL     1       3.208   5.935  18.788  0.00  0.00    +0.000 A 
ATOM     17  C   UNL     1       2.341   6.822  19.442  0.00  0.00    +0.000 A 
ATOM     18  C   UNL     1       2.027   8.098  18.921  0.00  0.00    +0.000 A 
BRANCH  16  19
ATOM     19  C   UNL     1       3.501   4.615  19.348  0.00  0.00    +0.000 A 
ATOM     20  C   UNL     1       2.775   3.787  20.181  0.00  0.00    +0.000 A 
ATOM     21  C   UNL     1       3.589   2.660  20.395  0.00  0.00    +0.000 A 
ATOM     22  N   UNL     1       4.756   2.754  19.761  0.00  0.00    +0.000 NA
ATOM     23  N   UNL     1       4.679   3.938  19.131  0.00  0.00    +0.000 N 
ATOM     24  H   UNL     1       5.472   4.239  18.578  0.00  0.00    +0.000 HD
ENDBRANCH  16  19
BRANCH  13  25
ATOM     25  O   UNL     1       2.424   9.708  17.179  0.00  0.00    +0.000 OA
ATOM     26  H   UNL     1       1.973  10.268  17.829  0.00  0.00    +0.000 HD
ENDBRANCH  13  25
ENDBRANCH   1  18
BRANCH   4  27
ATOM     27  C   UNL     1      -1.623  10.752  17.472  0.00  0.00    +0.000 C 
ATOM     28  C   UNL     1      -2.765   9.750  17.456  0.00  0.00    +0.000 C 
ATOM     29  C   UNL     1      -2.986   9.601  15.965  0.00  0.00    +0.000 C 
ATOM     30  N   UNL     1      -2.926  10.974  15.443  0.00  0.00    +0.000 NA
ATOM     31  C   UNL     1      -2.067  11.738  16.384  0.00  0.00    +0.000 C 
ATOM     32  H   UNL     1      -3.861  11.379  15.468  0.00  0.00    +0.000 HD
ENDBRANCH   4  27
TORSDOF 4
ENDMDL
MODEL 8
REMARK VINA RESULT:      -7.3      3.020      7.694
REMARK  Name = 
REMARK  4 active torsions:
REMARK  status: ('A' for Active; 'I' for Inactive)
REMARK    1  A    between atoms: O_1  and  C_2
REMARK    2  A    between atoms: C_5  and  C_6
REMARK    3  A    between atoms: C_12  and  C_13
REMARK    4  A    between atoms: N_16  and  C_17
REMARK                            x       y       z     vdW  Elec       q    Type
REMARK                         _______ _______ _______ _____ _____    ______ ____
ROOT
ATOM      1  C   UNL     1       4.296   4.717  17.954  0.00  0.00    +0.000 A 
ATOM      2  N   UNL     1       3.856   5.803  18.607  0.00  0.00    +0.000 NA
ATOM      3  C   UNL     1       2.919   5.641  19.554  0.00  0.00    +0.000 A 
ATOM      4  N   UNL     1       2.400   6.815  20.168  0.00  0.00    +0.000 N 
ATOM      5  C   UNL     1       2.470   4.363  19.936  0.00  0.00    +0.000 A 
ATOM      6  C   UNL     1       1.494   4.083  20.934  0.00  0.00    +0.000 A 
ATOM      7  C   UNL     1       1.066   2.774  21.168  0.00  0.00    +0.000 A 
ATOM      8  C   UNL     1       1.615   1.734  20.430  0.00  0.00    +0.000 A 
ATOM      9  C   UNL     1       2.590   2.008  19.469  0.00  0.00    +0.000 A 
ATOM     10  C   UNL     1       3.023   3.300  19.208  0.00  0.00    +0.000 A 
ATOM     11  N   UNL     1       3.929   3.465  18.248  0.00  0.00    +0.000 NA
ATOM     12  H   UNL     1       1.424   6.646  20.387  0.00  0.00    +0.000 HD
ENDROOT
BRANCH   1  18
ATOM     13  C   UNL     1       6.358   5.795  16.953  0.00  0.00    +0.000 A 
ATOM     14  C   UNL     1       7.241   5.960  15.883  0.00  0.00    +0.000 A 
ATOM     15  C   UNL     1       7.020   5.283  14.682  0.00  0.00    +0.000 A 
ATOM     16  C   UNL     1       5.919   4.437  14.534  0.00  0.00    +0.000 A 
ATOM     17  C   UNL     1       5.049   4.278  15.623  0.00  0.00    +0.000 A 
ATOM     18  C   UNL     1       5.239   4.954  16.850  0.00  0.00    +0.000 A 
BRANCH  16  19
ATOM     19  C   UNL     1       5.685   3.732  13.273  0.00  0.00    +0.000 A 
ATOM     20  C   UNL     1       4.578   3.662  12.449  0.00  0.00    +0.000 A 
ATOM     21  C   UNL     1       4.948   2.808  11.394  0.00  0.00    +0.000 A 
ATOM     22  N   UNL     1       6.191   2.350  11.528  0.00  0.00    +0.000 NA
ATOM     23  N   UNL     1       6.618   2.925  12.665  0.00  0.00    +0.000 N 
ATOM     24  H   UNL     1       7.556   2.715  12.984  0.00  0.00    +0.000 HD
ENDBRANCH  16  19
BRANCH  13  25
ATOM     25  O   UNL     1       6.637   6.435  18.130  0.00  0.00    +0.000 OA
ATOM     26  H   UNL     1       7.548   6.241  18.399  0.00  0.00    +0.000 HD
ENDBRANCH  13  25
ENDBRANCH   1  18
BRANCH   4  27
ATOM     27  C   UNL     1       2.508   7.978  19.271  0.00  0.00    +0.000 C 
ATOM     28  C   UNL     1       1.857   7.702  17.926  0.00  0.00    +0.000 C 
ATOM     29  C   UNL     1       1.761   9.106  17.368  0.00  0.00    +0.000 C 
ATOM     30  N   UNL     1       1.289   9.921  18.496  0.00  0.00    +0.000 NA
ATOM     31  C   UNL     1       1.744   9.227  19.729  0.00  0.00    +0.000 C 
ATOM     32  H   UNL     1       0.269   9.929  18.496  0.00  0.00    +0.000 HD
ENDBRANCH   4  27
TORSDOF 4
ENDMDL
MODEL 9
REMARK VINA RESULT:      -7.3      6.446     10.858
REMARK  Name = 
REMARK  4 active torsions:
REMARK  status: ('A' for Active; 'I' for Inactive)
REMARK    1  A    between atoms: O_1  and  C_2
REMARK    2  A    between atoms: C_5  and  C_6
REMARK    3  A    between atoms: C_12  and  C_13
REMARK    4  A    between atoms: N_16  and  C_17
REMARK                            x       y       z     vdW  Elec       q    Type
REMARK                         _______ _______ _______ _____ _____    ______ ____
ROOT
ATOM      1  C   UNL     1      -2.191  12.801  21.377  0.00  0.00    +0.000 A 
ATOM      2  N   UNL     1      -3.521  12.918  21.246  0.00  0.00    +0.000 NA
ATOM      3  C   UNL     1      -4.191  13.631  22.164  0.00  0.00    +0.000 A 
ATOM      4  N   UNL     1      -5.610  13.665  22.059  0.00  0.00    +0.000 N 
ATOM      5  C   UNL     1      -3.523  14.329  23.188  0.00  0.00    +0.000 A 
ATOM      6  C   UNL     1      -4.136  15.122  24.198  0.00  0.00    +0.000 A 
ATOM      7  C   UNL     1      -3.373  15.701  25.215  0.00  0.00    +0.000 A 
ATOM      8  C   UNL     1      -1.998  15.514  25.226  0.00  0.00    +0.000 A 
ATOM      9  C   UNL     1      -1.395  14.756  24.220  0.00  0.00    +0.000 A 
ATOM     10  C   UNL     1      -2.131  14.161  23.206  0.00  0.00    +0.000 A 
ATOM     11  N   UNL     1      -1.471  13.427  22.314  0.00  0.00    +0.000 NA
ATOM     12  H   UNL     1      -5.990  13.710  22.998  0.00  0.00    +0.000 HD
ENDROOT
BRANCH   1  18
ATOM     13  C   UNL     1      -0.295  11.273  20.678  0.00  0.00    +0.000 A 
ATOM     14  C   UNL     1       0.290  10.420  19.739  0.00  0.00    +0.000 A 
ATOM     15  C   UNL     1      -0.335  10.194  18.512  0.00  0.00    +0.000 A 
ATOM     16  C   UNL     1      -1.548  10.816  18.206  0.00  0.00    +0.000 A 
ATOM     17  C   UNL     1      -2.124  11.663  19.165  0.00  0.00    +0.000 A 
ATOM     18  C   UNL     1      -1.513  11.919  20.414  0.00  0.00    +0.000 A 
BRANCH  16  19
ATOM     19  C   UNL     1      -2.201  10.583  16.917  0.00  0.00    +0.000 A 
ATOM     20  C   UNL     1      -2.392   9.432  16.177  0.00  0.00    +0.000 A 
ATOM     21  C   UNL     1      -3.063   9.842  15.010  0.00  0.00    +0.000 A 
ATOM     22  N   UNL     1      -3.279  11.155  14.988  0.00  0.00    +0.000 NA
ATOM     23  N   UNL     1      -2.757  11.580  16.150  0.00  0.00    +0.000 N 
ATOM     24  H   UNL     1      -2.796  12.571  16.359  0.00  0.00    +0.000 HD
ENDBRANCH  16  19
BRANCH  13  25
ATOM     25  O   UNL     1       0.322  11.429  21.889  0.00  0.00    +0.000 OA
ATOM     26  H   UNL     1       0.168  10.643  22.437  0.00  0.00    +0.000 HD
ENDBRANCH  13  25
ENDBRANCH   1  18
BRANCH   4  27
ATOM     27  C   UNL     1      -6.122  12.464  21.377  0.00  0.00    +0.000 C 
ATOM     28  C   UNL     1      -7.377  11.936  22.053  0.00  0.00    +0.000 C 
ATOM     29  C   UNL     1      -7.894  10.994  20.986  0.00  0.00    +0.000 C 
ATOM     30  N   UNL     1      -7.740  11.738  19.728  0.00  0.00    +0.000 NA
ATOM     31  C   UNL     1      -6.619  12.691  19.944  0.00  0.00    +0.000 C 
ATOM     32  H   UNL     1      -8.587  12.280  19.558  0.00  0.00    +0.000 HD
ENDBRANCH   4  27
TORSDOF 4
ENDMDL
