MODEL 1
REMARK VINA RESULT:      -7.2      0.000      0.000
REMARK  Name = 
REMARK  1 active torsions:
REMARK  status: ('A' for Active; 'I' for Inactive)
REMARK    1  A    between atoms: C_2  and  C_3
REMARK                            x       y       z     vdW  Elec       q    Type
REMARK                         _______ _______ _______ _____ _____    ______ ____
ROOT
ATOM      1  O   UNL     1       6.535   4.611  19.057  0.00  0.00    +0.000 OA
ATOM      2  C   UNL     1       5.686   4.856  18.204  0.00  0.00    +0.000 C 
ATOM      3  N   UNL     1       4.366   5.168  18.569  0.00  0.00    +0.000 N 
ATOM      4  C   UNL     1       3.200   5.356  17.696  0.00  0.00    +0.000 C 
ATOM      5  C   UNL     1       2.297   4.119  17.794  0.00  0.00    +0.000 C 
ATOM      6  N   UNL     1       2.077   3.758  19.184  0.00  0.00    +0.000 N 
ATOM      7  C   UNL     1       1.178   2.885  19.710  0.00  0.00    +0.000 A 
ATOM      8 CL   UNL     1       0.131   1.980  18.730  0.00  0.00    +0.000 Cl
ATOM      9  C   UNL     1       1.355   2.931  21.065  0.00  0.00    +0.000 A 
ATOM     10  N   UNL     1       2.388   3.783  21.380  0.00  0.00    +0.000 NA
ATOM     11  C   UNL     1       2.849   4.230  20.225  0.00  0.00    +0.000 A 
ATOM     12  C   UNL     1       4.019   5.153  19.996  0.00  0.00    +0.000 C 
ENDROOT
BRANCH   2  13
ATOM     13  C   UNL     1       6.113   4.795  16.770  0.00  0.00    +0.000 A 
ATOM     14  C   UNL     1       5.736   3.710  15.964  0.00  0.00    +0.000 A 
ATOM     15  C   UNL     1       6.071   3.658  14.607  0.00  0.00    +0.000 A 
ATOM     16  C   UNL     1       6.880   4.643  14.060  0.00  0.00    +0.000 A 
ATOM     17 CL   UNL     1       7.297   4.573  12.394  0.00  0.00    +0.000 Cl
ATOM     18  C   UNL     1       7.353   5.679  14.860  0.00  0.00    +0.000 A 
ATOM     19  C   UNL     1       6.968   5.762  16.208  0.00  0.00    +0.000 A 
ATOM     20 CL   UNL     1       7.589   7.120  17.082  0.00  0.00    +0.000 Cl
ENDBRANCH   2  13
TORSDOF 1
ENDMDL
MODEL 2
REMARK VINA RESULT:      -6.3      2.836      6.563
REMARK  Name = 
REMARK  1 active torsions:
REMARK  status: ('A' for Active; 'I' for Inactive)
REMARK    1  A    between atoms: C_2  and  C_3
REMARK                            x       y       z     vdW  Elec       q    Type
REMARK                         _______ _______ _______ _____ _____    ______ ____
ROOT
ATOM      1  O   UNL     1       5.965   7.444  16.651  0.00  0.00    +0.000 OA
ATOM      2  C   UNL     1       5.742   6.251  16.836  0.00  0.00    +0.000 C 
ATOM      3  N   UNL     1       6.497   5.266  16.179  0.00  0.00    +0.000 N 
ATOM      4  C   UNL     1       6.290   3.811  16.174  0.00  0.00    +0.000 C 
ATOM      5  C   UNL     1       5.690   3.397  14.823  0.00  0.00    +0.000 C 
ATOM      6  N   UNL     1       6.432   4.000  13.730  0.00  0.00    +0.000 N 
ATOM      7  C   UNL     1       6.377   3.720  12.401  0.00  0.00    +0.000 A 
ATOM      8 CL   UNL     1       5.307   2.564  11.773  0.00  0.00    +0.000 Cl
ATOM      9  C   UNL     1       7.293   4.542  11.804  0.00  0.00    +0.000 A 
ATOM     10  N   UNL     1       7.877   5.363  12.741  0.00  0.00    +0.000 NA
ATOM     11  C   UNL     1       7.301   5.059  13.892  0.00  0.00    +0.000 A 
ATOM     12  C   UNL     1       7.534   5.702  15.235  0.00  0.00    +0.000 C 
ENDROOT
BRANCH   2  13
ATOM     13  C   UNL     1       4.629   5.895  17.774  0.00  0.00    +0.000 A 
ATOM     14  C   UNL     1       3.293   6.099  17.398  0.00  0.00    +0.000 A 
ATOM     15  C   UNL     1       2.235   5.720  18.230  0.00  0.00    +0.000 A 
ATOM     16  C   UNL     1       2.500   5.226  19.498  0.00  0.00    +0.000 A 
ATOM     17 CL   UNL     1       1.198   4.769  20.522  0.00  0.00    +0.000 Cl
ATOM     18  C   UNL     1       3.816   5.107  19.938  0.00  0.00    +0.000 A 
ATOM     19  C   UNL     1       4.878   5.432  19.079  0.00  0.00    +0.000 A 
ATOM     20 CL   UNL     1       6.465   5.198  19.730  0.00  0.00    +0.000 Cl
ENDBRANCH   2  13
TORSDOF 1
ENDMDL
MODEL 3
REMARK VINA RESULT:      -6.3      2.287      3.451
REMARK  Name = 
REMARK  1 active torsions:
REMARK  status: ('A' for Active; 'I' for Inactive)
REMARK    1  A    between atoms: C_2  and  C_3
REMARK                            x       y       z     vdW  Elec       q    Type
REMARK                         _______ _______ _______ _____ _____    ______ ____
ROOT
ATOM      1  O   UNL     1       5.712   4.052  16.060  0.00  0.00    +0.000 OA
ATOM      2  C   UNL     1       5.756   4.440  17.225  0.00  0.00    +0.000 C 
ATOM      3  N   UNL     1       5.121   3.718  18.249  0.00  0.00    +0.000 N 
ATOM      4  C   UNL     1       4.956   4.093  19.660  0.00  0.00    +0.000 C 
ATOM      5  C   UNL     1       3.505   4.534  19.894  0.00  0.00    +0.000 C 
ATOM      6  N   UNL     1       2.582   3.573  19.314  0.00  0.00    +0.000 N 
ATOM      7  C   UNL     1       1.238   3.466  19.487  0.00  0.00    +0.000 A 
ATOM      8 CL   UNL     1       0.368   4.561  20.445  0.00  0.00    +0.000 Cl
ATOM      9  C   UNL     1       0.848   2.381  18.750  0.00  0.00    +0.000 A 
ATOM     10  N   UNL     1       1.927   1.848  18.083  0.00  0.00    +0.000 NA
ATOM     11  C   UNL     1       2.956   2.618  18.392  0.00  0.00    +0.000 A 
ATOM     12  C   UNL     1       4.371   2.510  17.884  0.00  0.00    +0.000 C 
ENDROOT
BRANCH   2  13
ATOM     13  C   UNL     1       6.497   5.712  17.500  0.00  0.00    +0.000 A 
ATOM     14  C   UNL     1       7.535   5.738  18.444  0.00  0.00    +0.000 A 
ATOM     15  C   UNL     1       8.281   6.898  18.676  0.00  0.00    +0.000 A 
ATOM     16  C   UNL     1       7.930   8.080  18.041  0.00  0.00    +0.000 A 
ATOM     17 CL   UNL     1       8.844   9.506  18.334  0.00  0.00    +0.000 Cl
ATOM     18  C   UNL     1       6.841   8.108  17.175  0.00  0.00    +0.000 A 
ATOM     19  C   UNL     1       6.129   6.930  16.897  0.00  0.00    +0.000 A 
ATOM     20 CL   UNL     1       4.825   7.091  15.771  0.00  0.00    +0.000 Cl
ENDBRANCH   2  13
TORSDOF 1
ENDMDL
MODEL 4
REMARK VINA RESULT:      -6.1      4.715      7.153
REMARK  Name = 
REMARK  1 active torsions:
REMARK  status: ('A' for Active; 'I' for Inactive)
REMARK    1  A    between atoms: C_2  and  C_3
REMARK                            x       y       z     vdW  Elec       q    Type
REMARK                         _______ _______ _______ _____ _____    ______ ____
ROOT
ATOM      1  O   UNL     1       2.420   8.733  18.177  0.00  0.00    +0.000 OA
ATOM      2  C   UNL     1       2.155   8.158  19.229  0.00  0.00    +0.000 C 
ATOM      3  N   UNL     1       2.684   6.887  19.510  0.00  0.00    +0.000 N 
ATOM      4  C   UNL     1       2.375   6.001  20.640  0.00  0.00    +0.000 C 
ATOM      5  C   UNL     1       1.478   4.857  20.148  0.00  0.00    +0.000 C 
ATOM      6  N   UNL     1       2.019   4.274  18.932  0.00  0.00    +0.000 N 
ATOM      7  C   UNL     1       1.668   3.119  18.308  0.00  0.00    +0.000 A 
ATOM      8 CL   UNL     1       0.410   2.137  18.882  0.00  0.00    +0.000 Cl
ATOM      9  C   UNL     1       2.497   3.008  17.226  0.00  0.00    +0.000 A 
ATOM     10  N   UNL     1       3.321   4.107  17.144  0.00  0.00    +0.000 NA
ATOM     11  C   UNL     1       2.977   4.888  18.154  0.00  0.00    +0.000 A 
ATOM     12  C   UNL     1       3.530   6.249  18.494  0.00  0.00    +0.000 C 
ENDROOT
BRANCH   2  13
ATOM     13  C   UNL     1       1.238   8.858  20.185  0.00  0.00    +0.000 A 
ATOM     14  C   UNL     1       1.360   8.648  21.566  0.00  0.00    +0.000 A 
ATOM     15  C   UNL     1       0.557   9.335  22.483  0.00  0.00    +0.000 A 
ATOM     16  C   UNL     1      -0.453  10.166  22.023  0.00  0.00    +0.000 A 
ATOM     17 CL   UNL     1      -1.445  11.002  23.151  0.00  0.00    +0.000 Cl
ATOM     18  C   UNL     1      -0.664  10.316  20.655  0.00  0.00    +0.000 A 
ATOM     19  C   UNL     1       0.181   9.672  19.737  0.00  0.00    +0.000 A 
ATOM     20 CL   UNL     1      -0.160   9.974  18.067  0.00  0.00    +0.000 Cl
ENDBRANCH   2  13
TORSDOF 1
ENDMDL
MODEL 5
REMARK VINA RESULT:      -6.0      7.970      9.731
REMARK  Name = 
REMARK  1 active torsions:
REMARK  status: ('A' for Active; 'I' for Inactive)
REMARK    1  A    between atoms: C_2  and  C_3
REMARK                            x       y       z     vdW  Elec       q    Type
REMARK                         _______ _______ _______ _____ _____    ______ ____
ROOT
ATOM      1  O   UNL     1      -1.294  10.821  19.029  0.00  0.00    +0.000 OA
ATOM      2  C   UNL     1      -0.145  10.916  19.454  0.00  0.00    +0.000 C 
ATOM      3  N   UNL     1       0.299  12.096  20.074  0.00  0.00    +0.000 N 
ATOM      4  C   UNL     1       1.657  12.436  20.517  0.00  0.00    +0.000 C 
ATOM      5  C   UNL     1       2.269  13.439  19.530  0.00  0.00    +0.000 C 
ATOM      6  N   UNL     1       1.335  14.517  19.254  0.00  0.00    +0.000 N 
ATOM      7  C   UNL     1       1.556  15.702  18.627  0.00  0.00    +0.000 A 
ATOM      8 CL   UNL     1       3.071  16.102  17.979  0.00  0.00    +0.000 Cl
ATOM      9  C   UNL     1       0.363  16.371  18.652  0.00  0.00    +0.000 A 
ATOM     10  N   UNL     1      -0.606  15.592  19.242  0.00  0.00    +0.000 NA
ATOM     11  C   UNL     1      -0.011  14.451  19.548  0.00  0.00    +0.000 A 
ATOM     12  C   UNL     1      -0.635  13.225  20.165  0.00  0.00    +0.000 C 
ENDROOT
BRANCH   2  13
ATOM     13  C   UNL     1       0.758   9.735  19.270  0.00  0.00    +0.000 A 
ATOM     14  C   UNL     1       1.318   9.460  18.013  0.00  0.00    +0.000 A 
ATOM     15  C   UNL     1       2.210   8.400  17.828  0.00  0.00    +0.000 A 
ATOM     16  C   UNL     1       2.475   7.533  18.878  0.00  0.00    +0.000 A 
ATOM     17 CL   UNL     1       3.566   6.225  18.647  0.00  0.00    +0.000 Cl
ATOM     18  C   UNL     1       1.855   7.722  20.110  0.00  0.00    +0.000 A 
ATOM     19  C   UNL     1       1.005   8.821  20.311  0.00  0.00    +0.000 A 
ATOM     20 CL   UNL     1       0.332   8.967  21.899  0.00  0.00    +0.000 Cl
ENDBRANCH   2  13
TORSDOF 1
ENDMDL
MODEL 6
REMARK VINA RESULT:      -6.0      2.665      6.507
REMARK  Name = 
REMARK  1 active torsions:
REMARK  status: ('A' for Active; 'I' for Inactive)
REMARK    1  A    between atoms: C_2  and  C_3
REMARK                            x       y       z     vdW  Elec       q    Type
REMARK                         _______ _______ _______ _____ _____    ______ ____
ROOT
ATOM      1  O   UNL     1       5.915   7.097  17.458  0.00  0.00    +0.000 OA
ATOM      2  C   UNL     1       5.608   5.908  17.438  0.00  0.00    +0.000 C 
ATOM      3  N   UNL     1       6.354   4.984  16.686  0.00  0.00    +0.000 N 
ATOM      4  C   UNL     1       6.062   3.566  16.438  0.00  0.00    +0.000 C 
ATOM      5  C   UNL     1       5.545   3.405  15.002  0.00  0.00    +0.000 C 
ATOM      6  N   UNL     1       6.405   4.115  14.069  0.00  0.00    +0.000 N 
ATOM      7  C   UNL     1       6.436   4.046  12.712  0.00  0.00    +0.000 A 
ATOM      8 CL   UNL     1       5.352   3.077  11.840  0.00  0.00    +0.000 Cl
ATOM      9  C   UNL     1       7.442   4.883  12.315  0.00  0.00    +0.000 A 
ATOM     10  N   UNL     1       7.999   5.508  13.407  0.00  0.00    +0.000 NA
ATOM     11  C   UNL     1       7.319   5.073  14.455  0.00  0.00    +0.000 A 
ATOM     12  C   UNL     1       7.484   5.486  15.895  0.00  0.00    +0.000 C 
ENDROOT
BRANCH   2  13
ATOM     13  C   UNL     1       4.407   5.492  18.230  0.00  0.00    +0.000 A 
ATOM     14  C   UNL     1       4.386   4.252  18.887  0.00  0.00    +0.000 A 
ATOM     15  C   UNL     1       3.301   3.866  19.681  0.00  0.00    +0.000 A 
ATOM     16  C   UNL     1       2.175   4.673  19.746  0.00  0.00    +0.000 A 
ATOM     17 CL   UNL     1       0.840   4.192  20.716  0.00  0.00    +0.000 Cl
ATOM     18  C   UNL     1       2.127   5.862  19.023  0.00  0.00    +0.000 A 
ATOM     19  C   UNL     1       3.239   6.277  18.273  0.00  0.00    +0.000 A 
ATOM     20 CL   UNL     1       3.068   7.793  17.457  0.00  0.00    +0.000 Cl
ENDBRANCH   2  13
TORSDOF 1
ENDMDL
MODEL 7
REMARK VINA RESULT:      -5.9      2.398      3.491
REMARK  Name = 
REMARK  1 active torsions:
REMARK  status: ('A' for Active; 'I' for Inactive)
REMARK    1  A    between atoms: C_2  and  C_3
REMARK                            x       y       z     vdW  Elec       q    Type
REMARK                         _______ _______ _______ _____ _____    ______ ____
ROOT
ATOM      1  O   UNL     1       5.178   4.577  15.611  0.00  0.00    +0.000 OA
ATOM      2  C   UNL     1       5.399   4.775  16.803  0.00  0.00    +0.000 C 
ATOM      3  N   UNL     1       4.899   3.902  17.783  0.00  0.00    +0.000 N 
ATOM      4  C   UNL     1       4.947   4.049  19.244  0.00  0.00    +0.000 C 
ATOM      5  C   UNL     1       3.556   4.451  19.752  0.00  0.00    +0.000 C 
ATOM      6  N   UNL     1       2.535   3.598  19.170  0.00  0.00    +0.000 N 
ATOM      7  C   UNL     1       1.227   3.469  19.517  0.00  0.00    +0.000 A 
ATOM      8 CL   UNL     1       0.533   4.401  20.752  0.00  0.00    +0.000 Cl
ATOM      9  C   UNL     1       0.707   2.516  18.685  0.00  0.00    +0.000 A 
ATOM     10  N   UNL     1       1.665   2.092  17.792  0.00  0.00    +0.000 NA
ATOM     11  C   UNL     1       2.748   2.800  18.065  0.00  0.00    +0.000 A 
ATOM     12  C   UNL     1       4.072   2.769  17.346  0.00  0.00    +0.000 C 
ENDROOT
BRANCH   2  13
ATOM     13  C   UNL     1       6.204   5.985  17.163  0.00  0.00    +0.000 A 
ATOM     14  C   UNL     1       5.732   7.269  16.853  0.00  0.00    +0.000 A 
ATOM     15  C   UNL     1       6.436   8.417  17.232  0.00  0.00    +0.000 A 
ATOM     16  C   UNL     1       7.678   8.293  17.836  0.00  0.00    +0.000 A 
ATOM     17 CL   UNL     1       8.546   9.705  18.292  0.00  0.00    +0.000 Cl
ATOM     18  C   UNL     1       8.219   7.031  18.065  0.00  0.00    +0.000 A 
ATOM     19  C   UNL     1       7.485   5.880  17.738  0.00  0.00    +0.000 A 
ATOM     20 CL   UNL     1       8.250   4.373  18.112  0.00  0.00    +0.000 Cl
ENDBRANCH   2  13
TORSDOF 1
ENDMDL
MODEL 8
REMARK VINA RESULT:      -5.8      5.342      7.558
REMARK  Name = 
REMARK  1 active torsions:
REMARK  status: ('A' for Active; 'I' for Inactive)
REMARK    1  A    between atoms: C_2  and  C_3
REMARK                            x       y       z     vdW  Elec       q    Type
REMARK                         _______ _______ _______ _____ _____    ______ ____
ROOT
ATOM      1  O   UNL     1       1.763   9.334  17.313  0.00  0.00    +0.000 OA
ATOM      2  C   UNL     1       1.623   9.034  18.496  0.00  0.00    +0.000 C 
ATOM      3  N   UNL     1       2.314   7.944  19.050  0.00  0.00    +0.000 N 
ATOM      4  C   UNL     1       2.173   7.363  20.392  0.00  0.00    +0.000 C 
ATOM      5  C   UNL     1       1.397   6.043  20.286  0.00  0.00    +0.000 C 
ATOM      6  N   UNL     1       1.940   5.217  19.221  0.00  0.00    +0.000 N 
ATOM      7  C   UNL     1       1.699   3.908  18.946  0.00  0.00    +0.000 A 
ATOM      8 CL   UNL     1       0.599   2.990  19.853  0.00  0.00    +0.000 Cl
ATOM      9  C   UNL     1       2.478   3.600  17.864  0.00  0.00    +0.000 A 
ATOM     10  N   UNL     1       3.159   4.717  17.436  0.00  0.00    +0.000 NA
ATOM     11  C   UNL     1       2.776   5.698  18.235  0.00  0.00    +0.000 A 
ATOM     12  C   UNL     1       3.178   7.150  18.168  0.00  0.00    +0.000 C 
ENDROOT
BRANCH   2  13
ATOM     13  C   UNL     1       0.679   9.865  19.310  0.00  0.00    +0.000 A 
ATOM     14  C   UNL     1       1.023  10.256  20.613  0.00  0.00    +0.000 A 
ATOM     15  C   UNL     1       0.187  11.081  21.372  0.00  0.00    +0.000 A 
ATOM     16  C   UNL     1      -1.057  11.442  20.876  0.00  0.00    +0.000 A 
ATOM     17 CL   UNL     1      -2.087  12.449  21.814  0.00  0.00    +0.000 Cl
ATOM     18  C   UNL     1      -1.468  10.985  19.627  0.00  0.00    +0.000 A 
ATOM     19  C   UNL     1      -0.603  10.206  18.841  0.00  0.00    +0.000 A 
ATOM     20 CL   UNL     1      -1.216   9.739  17.292  0.00  0.00    +0.000 Cl
ENDBRANCH   2  13
TORSDOF 1
ENDMDL
MODEL 9
REMARK VINA RESULT:      -5.8      1.223      1.653
REMARK  Name = 
REMARK  1 active torsions:
REMARK  status: ('A' for Active; 'I' for Inactive)
REMARK    1  A    between atoms: C_2  and  C_3
REMARK                            x       y       z     vdW  Elec       q    Type
REMARK                         _______ _______ _______ _____ _____    ______ ____
ROOT
ATOM      1  O   UNL     1       6.589   4.610  18.954  0.00  0.00    +0.000 OA
ATOM      2  C   UNL     1       5.730   4.882  18.120  0.00  0.00    +0.000 C 
ATOM      3  N   UNL     1       4.434   5.255  18.514  0.00  0.00    +0.000 N 
ATOM      4  C   UNL     1       3.255   5.484  17.668  0.00  0.00    +0.000 C 
ATOM      5  C   UNL     1       2.303   4.288  17.804  0.00  0.00    +0.000 C 
ATOM      6  N   UNL     1       2.103   3.954  19.204  0.00  0.00    +0.000 N 
ATOM      7  C   UNL     1       1.181   3.127  19.763  0.00  0.00    +0.000 A 
ATOM      8 CL   UNL     1       0.070   2.257  18.821  0.00  0.00    +0.000 Cl
ATOM      9  C   UNL     1       1.394   3.181  21.113  0.00  0.00    +0.000 A 
ATOM     10  N   UNL     1       2.471   3.991  21.391  0.00  0.00    +0.000 NA
ATOM     11  C   UNL     1       2.922   4.404  20.219  0.00  0.00    +0.000 A 
ATOM     12  C   UNL     1       4.124   5.272  19.949  0.00  0.00    +0.000 C 
ENDROOT
BRANCH   2  13
ATOM     13  C   UNL     1       6.117   4.786  16.676  0.00  0.00    +0.000 A 
ATOM     14  C   UNL     1       6.874   5.803  16.075  0.00  0.00    +0.000 A 
ATOM     15  C   UNL     1       7.299   5.709  14.746  0.00  0.00    +0.000 A 
ATOM     16  C   UNL     1       6.883   4.641  13.966  0.00  0.00    +0.000 A 
ATOM     17 CL   UNL     1       7.399   4.531  12.330  0.00  0.00    +0.000 Cl
ATOM     18  C   UNL     1       6.047   3.667  14.506  0.00  0.00    +0.000 A 
ATOM     19  C   UNL     1       5.670   3.732  15.857  0.00  0.00    +0.000 A 
ATOM     20 CL   UNL     1       4.666   2.438  16.417  0.00  0.00    +0.000 Cl
ENDBRANCH   2  13
TORSDOF 1
ENDMDL
