MODEL 1
REMARK VINA RESULT:      -8.9      0.000      0.000
REMARK  Name = 
REMARK  6 active torsions:
REMARK  status: ('A' for Active; 'I' for Inactive)
REMARK    1  A    between atoms: C_2  and  C_3
REMARK    2  A    between atoms: C_2  and  O_11
REMARK    3  A    between atoms: O_11  and  C_12
REMARK    4  A    between atoms: C_17  and  C_18
REMARK    5  A    between atoms: N_19  and  N_20
REMARK    6  A    between atoms: C_21  and  C_23
REMARK                            x       y       z     vdW  Elec       q    Type
REMARK                         _______ _______ _______ _____ _____    ______ ____
ROOT
ATOM      1  C   UNL     1       2.021   4.578  19.432  0.00  0.00    +0.000 A 
ATOM      2  C   UNL     1       1.583   4.568  20.763  0.00  0.00    +0.000 A 
ATOM      3  C   UNL     1       1.703   3.413  21.525  0.00  0.00    +0.000 A 
ATOM      4  C   UNL     1       2.283   2.276  20.965  0.00  0.00    +0.000 A 
ATOM      5  C   UNL     1       2.810   2.312  19.665  0.00  0.00    +0.000 A 
ATOM      6  C   UNL     1       2.718   3.481  18.899  0.00  0.00    +0.000 A 
ENDROOT
BRANCH   6   7
ATOM      7  C   UNL     1       3.431   3.590  17.594  0.00  0.00    +0.000 C 
ATOM      8  N   UNL     1       4.684   3.921  17.489  0.00  0.00    +0.000 NA
BRANCH   8   9
ATOM      9  N   UNL     1       5.257   4.025  16.226  0.00  0.00    +0.000 N 
ATOM     10  C   UNL     1       6.554   4.425  15.919  0.00  0.00    +0.000 C 
ATOM     11  O   UNL     1       7.429   4.718  16.733  0.00  0.00    +0.000 OA
ATOM     12  H   UNL     1       4.601   3.951  15.448  0.00  0.00    +0.000 HD
BRANCH  10  13
ATOM     13  C   UNL     1       6.878   4.513  14.451  0.00  0.00    +0.000 A 
ATOM     14  C   UNL     1       6.194   3.672  13.573  0.00  0.00    +0.000 A 
ATOM     15  C   UNL     1       6.478   3.739  12.213  0.00  0.00    +0.000 A 
ATOM     16  C   UNL     1       7.423   4.652  11.768  0.00  0.00    +0.000 A 
ATOM     17  C   UNL     1       8.049   5.462  12.707  0.00  0.00    +0.000 A 
ATOM     18  N   UNL     1       7.811   5.416  14.043  0.00  0.00    +0.000 NA
ENDBRANCH  10  13
ENDBRANCH   8   9
ENDBRANCH   6   7
BRANCH   1  19
ATOM     19  O   UNL     1       1.842   5.737  18.650  0.00  0.00    +0.000 OA
BRANCH  19  21
ATOM     20  O   UNL     1       3.787   7.023  18.503  0.00  0.00    +0.000 OA
ATOM     21  C   UNL     1       2.647   6.834  18.903  0.00  0.00    +0.000 C 
BRANCH  21  22
ATOM     22  C   UNL     1       2.000   7.776  19.833  0.00  0.00    +0.000 C 
ATOM     23  C   UNL     1       1.366   8.898  19.481  0.00  0.00    +0.000 C 
ATOM     24  S   UNL     1       0.402   9.845  20.561  0.00  0.00    +0.000 S 
ATOM     25  C   UNL     1      -0.406  10.640  19.218  0.00  0.00    +0.000 C 
ATOM     26  O   UNL     1      -1.191  11.562  19.343  0.00  0.00    +0.000 OA
ATOM     27  N   UNL     1       0.057  10.145  18.042  0.00  0.00    +0.000 N 
ATOM     28  C   UNL     1       1.245   9.493  18.128  0.00  0.00    +0.000 C 
ATOM     29  O   UNL     1       2.110   9.509  17.266  0.00  0.00    +0.000 OA
ATOM     30  H   UNL     1      -0.173  10.637  17.192  0.00  0.00    +0.000 HD
ENDBRANCH  21  22
ENDBRANCH  19  21
ENDBRANCH   1  19
TORSDOF 6
ENDMDL
MODEL 2
REMARK VINA RESULT:      -8.4      2.927      8.195
REMARK  Name = 
REMARK  6 active torsions:
REMARK  status: ('A' for Active; 'I' for Inactive)
REMARK    1  A    between atoms: C_2  and  C_3
REMARK    2  A    between atoms: C_2  and  O_11
REMARK    3  A    between atoms: O_11  and  C_12
REMARK    4  A    between atoms: C_17  and  C_18
REMARK    5  A    between atoms: N_19  and  N_20
REMARK    6  A    between atoms: C_21  and  C_23
REMARK                            x       y       z     vdW  Elec       q    Type
REMARK                         _______ _______ _______ _____ _____    ______ ____
ROOT
ATOM      1  C   UNL     1       3.452   4.627  19.882  0.00  0.00    +0.000 A 
ATOM      2  C   UNL     1       3.552   3.229  19.872  0.00  0.00    +0.000 A 
ATOM      3  C   UNL     1       2.480   2.454  20.296  0.00  0.00    +0.000 A 
ATOM      4  C   UNL     1       1.302   3.073  20.707  0.00  0.00    +0.000 A 
ATOM      5  C   UNL     1       1.166   4.467  20.627  0.00  0.00    +0.000 A 
ATOM      6  C   UNL     1       2.231   5.255  20.175  0.00  0.00    +0.000 A 
ENDROOT
BRANCH   6   7
ATOM      7  C   UNL     1       2.039   6.710  19.912  0.00  0.00    +0.000 C 
ATOM      8  N   UNL     1       1.444   7.515  20.742  0.00  0.00    +0.000 NA
BRANCH   8   9
ATOM      9  N   UNL     1       1.286   8.853  20.399  0.00  0.00    +0.000 N 
ATOM     10  C   UNL     1       1.016   9.917  21.254  0.00  0.00    +0.000 C 
ATOM     11  O   UNL     1       0.912   9.849  22.478  0.00  0.00    +0.000 OA
ATOM     12  H   UNL     1       1.204   9.035  19.398  0.00  0.00    +0.000 HD
BRANCH  10  13
ATOM     13  C   UNL     1       0.824  11.255  20.589  0.00  0.00    +0.000 A 
ATOM     14  C   UNL     1       0.224  11.286  19.331  0.00  0.00    +0.000 A 
ATOM     15  C   UNL     1       0.036  12.511  18.700  0.00  0.00    +0.000 A 
ATOM     16  C   UNL     1       0.440  13.669  19.349  0.00  0.00    +0.000 A 
ATOM     17  C   UNL     1       1.018  13.552  20.607  0.00  0.00    +0.000 A 
ATOM     18  N   UNL     1       1.231  12.374  21.248  0.00  0.00    +0.000 NA
ENDBRANCH  10  13
ENDBRANCH   8   9
ENDBRANCH   6   7
BRANCH   1  19
ATOM     19  O   UNL     1       4.564   5.405  19.505  0.00  0.00    +0.000 OA
BRANCH  19  21
ATOM     20  O   UNL     1       6.755   4.628  19.269  0.00  0.00    +0.000 OA
ATOM     21  C   UNL     1       5.616   4.783  18.853  0.00  0.00    +0.000 C 
BRANCH  21  22
ATOM     22  C   UNL     1       5.240   4.375  17.488  0.00  0.00    +0.000 C 
ATOM     23  C   UNL     1       5.811   4.817  16.365  0.00  0.00    +0.000 C 
ATOM     24  S   UNL     1       5.526   4.134  14.801  0.00  0.00    +0.000 S 
ATOM     25  C   UNL     1       6.992   4.865  14.163  0.00  0.00    +0.000 C 
ATOM     26  O   UNL     1       7.318   4.829  12.990  0.00  0.00    +0.000 OA
ATOM     27  N   UNL     1       7.631   5.551  15.144  0.00  0.00    +0.000 N 
ATOM     28  C   UNL     1       6.860   5.855  16.219  0.00  0.00    +0.000 C 
ATOM     29  O   UNL     1       6.954   6.883  16.873  0.00  0.00    +0.000 OA
ATOM     30  H   UNL     1       8.378   6.176  14.882  0.00  0.00    +0.000 HD
ENDBRANCH  21  22
ENDBRANCH  19  21
ENDBRANCH   1  19
TORSDOF 6
ENDMDL
MODEL 3
REMARK VINA RESULT:      -8.3      1.209      1.354
REMARK  Name = 
REMARK  6 active torsions:
REMARK  status: ('A' for Active; 'I' for Inactive)
REMARK    1  A    between atoms: C_2  and  C_3
REMARK    2  A    between atoms: C_2  and  O_11
REMARK    3  A    between atoms: O_11  and  C_12
REMARK    4  A    between atoms: C_17  and  C_18
REMARK    5  A    between atoms: N_19  and  N_20
REMARK    6  A    between atoms: C_21  and  C_23
REMARK                            x       y       z     vdW  Elec       q    Type
REMARK                         _______ _______ _______ _____ _____    ______ ____
ROOT
ATOM      1  C   UNL     1       2.222   4.560  19.586  0.00  0.00    +0.000 A 
ATOM      2  C   UNL     1       1.827   4.579  20.930  0.00  0.00    +0.000 A 
ATOM      3  C   UNL     1       2.044   3.468  21.734  0.00  0.00    +0.000 A 
ATOM      4  C   UNL     1       2.677   2.346  21.201  0.00  0.00    +0.000 A 
ATOM      5  C   UNL     1       3.160   2.360  19.884  0.00  0.00    +0.000 A 
ATOM      6  C   UNL     1       2.971   3.487  19.075  0.00  0.00    +0.000 A 
ENDROOT
BRANCH   6   7
ATOM      7  C   UNL     1       3.635   3.585  17.744  0.00  0.00    +0.000 C 
ATOM      8  N   UNL     1       4.836   4.055  17.575  0.00  0.00    +0.000 NA
BRANCH   8   9
ATOM      9  N   UNL     1       5.362   4.134  16.291  0.00  0.00    +0.000 N 
ATOM     10  C   UNL     1       6.669   4.454  15.934  0.00  0.00    +0.000 C 
ATOM     11  O   UNL     1       7.593   4.683  16.712  0.00  0.00    +0.000 OA
ATOM     12  H   UNL     1       4.672   4.109  15.540  0.00  0.00    +0.000 HD
BRANCH  10  13
ATOM     13  C   UNL     1       6.937   4.535  14.454  0.00  0.00    +0.000 A 
ATOM     14  C   UNL     1       6.195   3.716  13.602  0.00  0.00    +0.000 A 
ATOM     15  C   UNL     1       6.427   3.777  12.233  0.00  0.00    +0.000 A 
ATOM     16  C   UNL     1       7.382   4.662  11.752  0.00  0.00    +0.000 A 
ATOM     17  C   UNL     1       8.068   5.451  12.666  0.00  0.00    +0.000 A 
ATOM     18  N   UNL     1       7.881   5.410  14.011  0.00  0.00    +0.000 NA
ENDBRANCH  10  13
ENDBRANCH   8   9
ENDBRANCH   6   7
BRANCH   1  19
ATOM     19  O   UNL     1       1.946   5.672  18.765  0.00  0.00    +0.000 OA
BRANCH  19  21
ATOM     20  O   UNL     1       3.885   6.835  19.352  0.00  0.00    +0.000 OA
ATOM     21  C   UNL     1       2.768   6.782  18.858  0.00  0.00    +0.000 C 
BRANCH  21  22
ATOM     22  C   UNL     1       2.098   7.995  18.357  0.00  0.00    +0.000 C 
ATOM     23  C   UNL     1       1.438   8.880  19.109  0.00  0.00    +0.000 C 
ATOM     24  S   UNL     1       0.885  10.415  18.535  0.00  0.00    +0.000 S 
ATOM     25  C   UNL     1       0.728  11.025  20.175  0.00  0.00    +0.000 C 
ATOM     26  O   UNL     1       0.248  12.108  20.459  0.00  0.00    +0.000 OA
ATOM     27  N   UNL     1       1.120  10.074  21.061  0.00  0.00    +0.000 N 
ATOM     28  C   UNL     1       1.153   8.812  20.563  0.00  0.00    +0.000 C 
ATOM     29  O   UNL     1       0.870   7.807  21.197  0.00  0.00    +0.000 OA
ATOM     30  H   UNL     1       0.905  10.212  22.037  0.00  0.00    +0.000 HD
ENDBRANCH  21  22
ENDBRANCH  19  21
ENDBRANCH   1  19
TORSDOF 6
ENDMDL
MODEL 4
REMARK VINA RESULT:      -8.0      2.867      8.049
REMARK  Name = 
REMARK  6 active torsions:
REMARK  status: ('A' for Active; 'I' for Inactive)
REMARK    1  A    between atoms: C_2  and  C_3
REMARK    2  A    between atoms: C_2  and  O_11
REMARK    3  A    between atoms: O_11  and  C_12
REMARK    4  A    between atoms: C_17  and  C_18
REMARK    5  A    between atoms: N_19  and  N_20
REMARK    6  A    between atoms: C_21  and  C_23
REMARK                            x       y       z     vdW  Elec       q    Type
REMARK                         _______ _______ _______ _____ _____    ______ ____
ROOT
ATOM      1  C   UNL     1       3.820   4.268  19.348  0.00  0.00    +0.000 A 
ATOM      2  C   UNL     1       4.231   2.956  19.077  0.00  0.00    +0.000 A 
ATOM      3  C   UNL     1       3.332   2.044  18.539  0.00  0.00    +0.000 A 
ATOM      4  C   UNL     1       2.031   2.449  18.250  0.00  0.00    +0.000 A 
ATOM      5  C   UNL     1       1.645   3.786  18.430  0.00  0.00    +0.000 A 
ATOM      6  C   UNL     1       2.552   4.718  18.946  0.00  0.00    +0.000 A 
ENDROOT
BRANCH   6   7
ATOM      7  C   UNL     1       2.215   6.171  18.970  0.00  0.00    +0.000 C 
ATOM      8  N   UNL     1       1.979   6.833  20.064  0.00  0.00    +0.000 NA
BRANCH   8   9
ATOM      9  N   UNL     1       1.645   8.180  19.986  0.00  0.00    +0.000 N 
ATOM     10  C   UNL     1       1.263   9.016  21.032  0.00  0.00    +0.000 C 
ATOM     11  O   UNL     1       1.199   8.701  22.219  0.00  0.00    +0.000 OA
ATOM     12  H   UNL     1       1.516   8.538  19.040  0.00  0.00    +0.000 HD
BRANCH  10  13
ATOM     13  C   UNL     1       0.887  10.420  20.638  0.00  0.00    +0.000 A 
ATOM     14  C   UNL     1       0.860  10.741  19.281  0.00  0.00    +0.000 A 
ATOM     15  C   UNL     1       0.514  12.031  18.897  0.00  0.00    +0.000 A 
ATOM     16  C   UNL     1       0.190  12.960  19.876  0.00  0.00    +0.000 A 
ATOM     17  C   UNL     1       0.229  12.556  21.205  0.00  0.00    +0.000 A 
ATOM     18  N   UNL     1       0.577  11.310  21.620  0.00  0.00    +0.000 NA
ENDBRANCH  10  13
ENDBRANCH   8   9
ENDBRANCH   6   7
BRANCH   1  19
ATOM     19  O   UNL     1       4.723   5.169  19.947  0.00  0.00    +0.000 OA
BRANCH  19  21
ATOM     20  O   UNL     1       7.026   5.490  19.711  0.00  0.00    +0.000 OA
ATOM     21  C   UNL     1       5.886   5.488  19.267  0.00  0.00    +0.000 C 
BRANCH  21  22
ATOM     22  C   UNL     1       5.602   5.942  17.894  0.00  0.00    +0.000 C 
ATOM     23  C   UNL     1       6.106   5.401  16.781  0.00  0.00    +0.000 C 
ATOM     24  S   UNL     1       5.560   5.786  15.186  0.00  0.00    +0.000 S 
ATOM     25  C   UNL     1       6.275   4.318  14.536  0.00  0.00    +0.000 C 
ATOM     26  O   UNL     1       6.317   4.046  13.350  0.00  0.00    +0.000 OA
ATOM     27  N   UNL     1       6.855   3.605  15.535  0.00  0.00    +0.000 N 
ATOM     28  C   UNL     1       7.107   4.313  16.666  0.00  0.00    +0.000 C 
ATOM     29  O   UNL     1       8.075   4.142  17.390  0.00  0.00    +0.000 OA
ATOM     30  H   UNL     1       7.466   2.842  15.286  0.00  0.00    +0.000 HD
ENDBRANCH  21  22
ENDBRANCH  19  21
ENDBRANCH   1  19
TORSDOF 6
ENDMDL
MODEL 5
REMARK VINA RESULT:      -8.0      2.720      7.694
REMARK  Name = 
REMARK  6 active torsions:
REMARK  status: ('A' for Active; 'I' for Inactive)
REMARK    1  A    between atoms: C_2  and  C_3
REMARK    2  A    between atoms: C_2  and  O_11
REMARK    3  A    between atoms: O_11  and  C_12
REMARK    4  A    between atoms: C_17  and  C_18
REMARK    5  A    between atoms: N_19  and  N_20
REMARK    6  A    between atoms: C_21  and  C_23
REMARK                            x       y       z     vdW  Elec       q    Type
REMARK                         _______ _______ _______ _____ _____    ______ ____
ROOT
ATOM      1  C   UNL     1       3.503   4.684  19.884  0.00  0.00    +0.000 A 
ATOM      2  C   UNL     1       3.571   3.286  19.936  0.00  0.00    +0.000 A 
ATOM      3  C   UNL     1       2.479   2.553  20.381  0.00  0.00    +0.000 A 
ATOM      4  C   UNL     1       1.311   3.216  20.752  0.00  0.00    +0.000 A 
ATOM      5  C   UNL     1       1.206   4.608  20.609  0.00  0.00    +0.000 A 
ATOM      6  C   UNL     1       2.293   5.351  20.135  0.00  0.00    +0.000 A 
ENDROOT
BRANCH   6   7
ATOM      7  C   UNL     1       2.137   6.798  19.807  0.00  0.00    +0.000 C 
ATOM      8  N   UNL     1       1.389   7.611  20.493  0.00  0.00    +0.000 NA
BRANCH   8   9
ATOM      9  N   UNL     1       1.283   8.938  20.094  0.00  0.00    +0.000 N 
ATOM     10  C   UNL     1       1.362   9.438  18.798  0.00  0.00    +0.000 C 
ATOM     11  O   UNL     1       1.499   8.769  17.775  0.00  0.00    +0.000 OA
ATOM     12  H   UNL     1       1.311   9.620  20.853  0.00  0.00    +0.000 HD
BRANCH  10  13
ATOM     13  C   UNL     1       1.284  10.937  18.672  0.00  0.00    +0.000 A 
ATOM     14  C   UNL     1       0.086  11.567  19.008  0.00  0.00    +0.000 A 
ATOM     15  C   UNL     1      -0.007  12.950  18.901  0.00  0.00    +0.000 A 
ATOM     16  C   UNL     1       1.104  13.666  18.475  0.00  0.00    +0.000 A 
ATOM     17  C   UNL     1       2.263  12.964  18.172  0.00  0.00    +0.000 A 
ATOM     18  N   UNL     1       2.387  11.613  18.250  0.00  0.00    +0.000 NA
ENDBRANCH  10  13
ENDBRANCH   8   9
ENDBRANCH   6   7
BRANCH   1  19
ATOM     19  O   UNL     1       4.636   5.421  19.485  0.00  0.00    +0.000 OA
BRANCH  19  21
ATOM     20  O   UNL     1       6.760   4.526  19.100  0.00  0.00    +0.000 OA
ATOM     21  C   UNL     1       5.616   4.777  18.748  0.00  0.00    +0.000 C 
BRANCH  21  22
ATOM     22  C   UNL     1       5.158   4.483  17.380  0.00  0.00    +0.000 C 
ATOM     23  C   UNL     1       5.776   4.863  16.258  0.00  0.00    +0.000 C 
ATOM     24  S   UNL     1       5.358   4.290  14.681  0.00  0.00    +0.000 S 
ATOM     25  C   UNL     1       6.913   4.792  14.035  0.00  0.00    +0.000 C 
ATOM     26  O   UNL     1       7.211   4.743  12.855  0.00  0.00    +0.000 OA
ATOM     27  N   UNL     1       7.671   5.331  15.023  0.00  0.00    +0.000 N 
ATOM     28  C   UNL     1       6.978   5.721  16.123  0.00  0.00    +0.000 C 
ATOM     29  O   UNL     1       7.250   6.696  16.806  0.00  0.00    +0.000 OA
ATOM     30  H   UNL     1       8.507   5.834  14.765  0.00  0.00    +0.000 HD
ENDBRANCH  21  22
ENDBRANCH  19  21
ENDBRANCH   1  19
TORSDOF 6
ENDMDL
MODEL 6
REMARK VINA RESULT:      -8.0      3.286      7.701
REMARK  Name = 
REMARK  6 active torsions:
REMARK  status: ('A' for Active; 'I' for Inactive)
REMARK    1  A    between atoms: C_2  and  C_3
REMARK    2  A    between atoms: C_2  and  O_11
REMARK    3  A    between atoms: O_11  and  C_12
REMARK    4  A    between atoms: C_17  and  C_18
REMARK    5  A    between atoms: N_19  and  N_20
REMARK    6  A    between atoms: C_21  and  C_23
REMARK                            x       y       z     vdW  Elec       q    Type
REMARK                         _______ _______ _______ _____ _____    ______ ____
ROOT
ATOM      1  C   UNL     1       2.582   3.867  18.672  0.00  0.00    +0.000 A 
ATOM      2  C   UNL     1       2.420   2.477  18.607  0.00  0.00    +0.000 A 
ATOM      3  C   UNL     1       1.864   1.792  19.679  0.00  0.00    +0.000 A 
ATOM      4  C   UNL     1       1.448   2.497  20.806  0.00  0.00    +0.000 A 
ATOM      5  C   UNL     1       1.519   3.898  20.835  0.00  0.00    +0.000 A 
ATOM      6  C   UNL     1       2.053   4.599  19.747  0.00  0.00    +0.000 A 
ENDROOT
BRANCH   6   7
ATOM      7  C   UNL     1       1.967   6.087  19.688  0.00  0.00    +0.000 C 
ATOM      8  N   UNL     1       1.758   6.834  20.732  0.00  0.00    +0.000 NA
BRANCH   8   9
ATOM      9  N   UNL     1       1.665   8.212  20.575  0.00  0.00    +0.000 N 
ATOM     10  C   UNL     1       0.620   9.038  20.978  0.00  0.00    +0.000 C 
ATOM     11  O   UNL     1      -0.389   8.680  21.584  0.00  0.00    +0.000 OA
ATOM     12  H   UNL     1       2.367   8.625  19.959  0.00  0.00    +0.000 HD
BRANCH  10  13
ATOM     13  C   UNL     1       0.760  10.492  20.609  0.00  0.00    +0.000 A 
ATOM     14  C   UNL     1       1.085  10.811  19.291  0.00  0.00    +0.000 A 
ATOM     15  C   UNL     1       1.217  12.146  18.930  0.00  0.00    +0.000 A 
ATOM     16  C   UNL     1       1.007  13.126  19.890  0.00  0.00    +0.000 A 
ATOM     17  C   UNL     1       0.674  12.725  21.178  0.00  0.00    +0.000 A 
ATOM     18  N   UNL     1       0.551  11.430  21.572  0.00  0.00    +0.000 NA
ENDBRANCH  10  13
ENDBRANCH   8   9
ENDBRANCH   6   7
BRANCH   1  19
ATOM     19  O   UNL     1       3.199   4.545  17.602  0.00  0.00    +0.000 OA
BRANCH  19  21
ATOM     20  O   UNL     1       4.588   3.386  16.124  0.00  0.00    +0.000 OA
ATOM     21  C   UNL     1       4.406   4.065  17.124  0.00  0.00    +0.000 C 
BRANCH  21  22
ATOM     22  C   UNL     1       5.516   4.390  18.036  0.00  0.00    +0.000 C 
ATOM     23  C   UNL     1       6.415   5.360  17.845  0.00  0.00    +0.000 C 
ATOM     24  S   UNL     1       7.544   5.883  19.047  0.00  0.00    +0.000 S 
ATOM     25  C   UNL     1       7.819   7.396  18.198  0.00  0.00    +0.000 C 
ATOM     26  O   UNL     1       8.656   8.219  18.523  0.00  0.00    +0.000 OA
ATOM     27  N   UNL     1       7.041   7.450  17.087  0.00  0.00    +0.000 N 
ATOM     28  C   UNL     1       6.563   6.251  16.669  0.00  0.00    +0.000 C 
ATOM     29  O   UNL     1       6.403   5.936  15.500  0.00  0.00    +0.000 OA
ATOM     30  H   UNL     1       7.232   8.168  16.405  0.00  0.00    +0.000 HD
ENDBRANCH  21  22
ENDBRANCH  19  21
ENDBRANCH   1  19
TORSDOF 6
ENDMDL
MODEL 7
REMARK VINA RESULT:      -7.9      2.962      8.214
REMARK  Name = 
REMARK  6 active torsions:
REMARK  status: ('A' for Active; 'I' for Inactive)
REMARK    1  A    between atoms: C_2  and  C_3
REMARK    2  A    between atoms: C_2  and  O_11
REMARK    3  A    between atoms: O_11  and  C_12
REMARK    4  A    between atoms: C_17  and  C_18
REMARK    5  A    between atoms: N_19  and  N_20
REMARK    6  A    between atoms: C_21  and  C_23
REMARK                            x       y       z     vdW  Elec       q    Type
REMARK                         _______ _______ _______ _____ _____    ______ ____
ROOT
ATOM      1  C   UNL     1       3.815   3.982  19.442  0.00  0.00    +0.000 A 
ATOM      2  C   UNL     1       4.409   2.885  18.805  0.00  0.00    +0.000 A 
ATOM      3  C   UNL     1       3.617   1.857  18.310  0.00  0.00    +0.000 A 
ATOM      4  C   UNL     1       2.232   1.935  18.432  0.00  0.00    +0.000 A 
ATOM      5  C   UNL     1       1.629   3.077  18.982  0.00  0.00    +0.000 A 
ATOM      6  C   UNL     1       2.418   4.130  19.458  0.00  0.00    +0.000 A 
ENDROOT
BRANCH   6   7
ATOM      7  C   UNL     1       1.792   5.418  19.874  0.00  0.00    +0.000 C 
ATOM      8  N   UNL     1       1.971   5.956  21.044  0.00  0.00    +0.000 NA
BRANCH   8   9
ATOM      9  N   UNL     1       1.322   7.146  21.352  0.00  0.00    +0.000 N 
ATOM     10  C   UNL     1       1.349   8.334  20.626  0.00  0.00    +0.000 C 
ATOM     11  O   UNL     1       1.928   8.511  19.556  0.00  0.00    +0.000 OA
ATOM     12  H   UNL     1       0.921   7.189  22.290  0.00  0.00    +0.000 HD
BRANCH  10  13
ATOM     13  C   UNL     1       0.606   9.490  21.242  0.00  0.00    +0.000 A 
ATOM     14  C   UNL     1      -0.081   9.273  22.436  0.00  0.00    +0.000 A 
ATOM     15  C   UNL     1      -0.772  10.328  23.022  0.00  0.00    +0.000 A 
ATOM     16  C   UNL     1      -0.745  11.572  22.408  0.00  0.00    +0.000 A 
ATOM     17  C   UNL     1      -0.026  11.708  21.226  0.00  0.00    +0.000 A 
ATOM     18  N   UNL     1       0.648  10.698  20.617  0.00  0.00    +0.000 NA
ENDBRANCH  10  13
ENDBRANCH   8   9
ENDBRANCH   6   7
BRANCH   1  19
ATOM     19  O   UNL     1       4.630   4.993  19.990  0.00  0.00    +0.000 OA
BRANCH  19  21
ATOM     20  O   UNL     1       6.911   5.424  19.727  0.00  0.00    +0.000 OA
ATOM     21  C   UNL     1       5.767   5.372  19.298  0.00  0.00    +0.000 C 
BRANCH  21  22
ATOM     22  C   UNL     1       5.444   5.823  17.933  0.00  0.00    +0.000 C 
ATOM     23  C   UNL     1       5.976   5.332  16.810  0.00  0.00    +0.000 C 
ATOM     24  S   UNL     1       5.394   5.700  15.223  0.00  0.00    +0.000 S 
ATOM     25  C   UNL     1       6.203   4.293  14.550  0.00  0.00    +0.000 C 
ATOM     26  O   UNL     1       6.255   4.040  13.359  0.00  0.00    +0.000 OA
ATOM     27  N   UNL     1       6.836   3.609  15.535  0.00  0.00    +0.000 N 
ATOM     28  C   UNL     1       7.048   4.317  16.674  0.00  0.00    +0.000 C 
ATOM     29  O   UNL     1       8.030   4.203  17.390  0.00  0.00    +0.000 OA
ATOM     30  H   UNL     1       7.496   2.893  15.272  0.00  0.00    +0.000 HD
ENDBRANCH  21  22
ENDBRANCH  19  21
ENDBRANCH   1  19
TORSDOF 6
ENDMDL
MODEL 8
REMARK VINA RESULT:      -7.9      2.874      8.126
REMARK  Name = 
REMARK  6 active torsions:
REMARK  status: ('A' for Active; 'I' for Inactive)
REMARK    1  A    between atoms: C_2  and  C_3
REMARK    2  A    between atoms: C_2  and  O_11
REMARK    3  A    between atoms: O_11  and  C_12
REMARK    4  A    between atoms: C_17  and  C_18
REMARK    5  A    between atoms: N_19  and  N_20
REMARK    6  A    between atoms: C_21  and  C_23
REMARK                            x       y       z     vdW  Elec       q    Type
REMARK                         _______ _______ _______ _____ _____    ______ ____
ROOT
ATOM      1  C   UNL     1       3.135   4.502  19.179  0.00  0.00    +0.000 A 
ATOM      2  C   UNL     1       2.966   3.113  19.245  0.00  0.00    +0.000 A 
ATOM      3  C   UNL     1       2.056   2.565  20.140  0.00  0.00    +0.000 A 
ATOM      4  C   UNL     1       1.300   3.406  20.953  0.00  0.00    +0.000 A 
ATOM      5  C   UNL     1       1.397   4.800  20.822  0.00  0.00    +0.000 A 
ATOM      6  C   UNL     1       2.291   5.361  19.902  0.00  0.00    +0.000 A 
ENDROOT
BRANCH   6   7
ATOM      7  C   UNL     1       2.272   6.826  19.624  0.00  0.00    +0.000 C 
ATOM      8  N   UNL     1       1.535   7.671  20.282  0.00  0.00    +0.000 NA
BRANCH   8   9
ATOM      9  N   UNL     1       1.564   9.016  19.933  0.00  0.00    +0.000 N 
ATOM     10  C   UNL     1       0.530   9.940  20.053  0.00  0.00    +0.000 C 
ATOM     11  O   UNL     1      -0.581   9.720  20.533  0.00  0.00    +0.000 OA
ATOM     12  H   UNL     1       2.377   9.302  19.387  0.00  0.00    +0.000 HD
BRANCH  10  13
ATOM     13  C   UNL     1       0.824  11.318  19.523  0.00  0.00    +0.000 A 
ATOM     14  C   UNL     1      -0.024  12.363  19.889  0.00  0.00    +0.000 A 
ATOM     15  C   UNL     1       0.231  13.643  19.411  0.00  0.00    +0.000 A 
ATOM     16  C   UNL     1       1.334  13.847  18.594  0.00  0.00    +0.000 A 
ATOM     17  C   UNL     1       2.137  12.756  18.287  0.00  0.00    +0.000 A 
ATOM     18  N   UNL     1       1.911  11.489  18.721  0.00  0.00    +0.000 NA
ENDBRANCH  10  13
ENDBRANCH   8   9
ENDBRANCH   6   7
BRANCH   1  19
ATOM     19  O   UNL     1       4.101   5.044  18.308  0.00  0.00    +0.000 OA
BRANCH  19  21
ATOM     20  O   UNL     1       6.121   3.913  18.621  0.00  0.00    +0.000 OA
ATOM     21  C   UNL     1       5.170   4.250  17.930  0.00  0.00    +0.000 C 
BRANCH  21  22
ATOM     22  C   UNL     1       5.102   3.896  16.502  0.00  0.00    +0.000 C 
ATOM     23  C   UNL     1       5.792   4.490  15.524  0.00  0.00    +0.000 C 
ATOM     24  S   UNL     1       5.887   3.891  13.905  0.00  0.00    +0.000 S 
ATOM     25  C   UNL     1       7.320   4.854  13.582  0.00  0.00    +0.000 C 
ATOM     26  O   UNL     1       7.849   4.948  12.489  0.00  0.00    +0.000 OA
ATOM     27  N   UNL     1       7.672   5.546  14.695  0.00  0.00    +0.000 N 
ATOM     28  C   UNL     1       6.689   5.667  15.624  0.00  0.00    +0.000 C 
ATOM     29  O   UNL     1       6.518   6.647  16.331  0.00  0.00    +0.000 OA
ATOM     30  H   UNL     1       8.355   6.283  14.605  0.00  0.00    +0.000 HD
ENDBRANCH  21  22
ENDBRANCH  19  21
ENDBRANCH   1  19
TORSDOF 6
ENDMDL
MODEL 9
REMARK VINA RESULT:      -7.9      2.861      7.922
REMARK  Name = 
REMARK  6 active torsions:
REMARK  status: ('A' for Active; 'I' for Inactive)
REMARK    1  A    between atoms: C_2  and  C_3
REMARK    2  A    between atoms: C_2  and  O_11
REMARK    3  A    between atoms: O_11  and  C_12
REMARK    4  A    between atoms: C_17  and  C_18
REMARK    5  A    between atoms: N_19  and  N_20
REMARK    6  A    between atoms: C_21  and  C_23
REMARK                            x       y       z     vdW  Elec       q    Type
REMARK                         _______ _______ _______ _____ _____    ______ ____
ROOT
ATOM      1  C   UNL     1       3.343   4.794  19.560  0.00  0.00    +0.000 A 
ATOM      2  C   UNL     1       3.213   3.409  19.400  0.00  0.00    +0.000 A 
ATOM      3  C   UNL     1       2.080   2.759  19.873  0.00  0.00    +0.000 A 
ATOM      4  C   UNL     1       1.069   3.496  20.484  0.00  0.00    +0.000 A 
ATOM      5  C   UNL     1       1.153   4.894  20.559  0.00  0.00    +0.000 A 
ATOM      6  C   UNL     1       2.278   5.561  20.060  0.00  0.00    +0.000 A 
ENDROOT
BRANCH   6   7
ATOM      7  C   UNL     1       2.299   7.049  19.968  0.00  0.00    +0.000 C 
ATOM      8  N   UNL     1       1.795   7.712  18.969  0.00  0.00    +0.000 NA
BRANCH   8   9
ATOM      9  N   UNL     1       1.886   9.099  18.957  0.00  0.00    +0.000 N 
ATOM     10  C   UNL     1       0.877  10.013  19.246  0.00  0.00    +0.000 C 
ATOM     11  O   UNL     1      -0.266   9.734  19.605  0.00  0.00    +0.000 OA
ATOM     12  H   UNL     1       2.738   9.471  18.537  0.00  0.00    +0.000 HD
BRANCH  10  13
ATOM     13  C   UNL     1       1.246  11.463  19.081  0.00  0.00    +0.000 A 
ATOM     14  C   UNL     1       2.251  11.790  18.171  0.00  0.00    +0.000 A 
ATOM     15  C   UNL     1       2.606  13.123  18.002  0.00  0.00    +0.000 A 
ATOM     16  C   UNL     1       1.937  14.094  18.734  0.00  0.00    +0.000 A 
ATOM     17  C   UNL     1       0.938  13.686  19.610  0.00  0.00    +0.000 A 
ATOM     18  N   UNL     1       0.575  12.393  19.814  0.00  0.00    +0.000 NA
ENDBRANCH  10  13
ENDBRANCH   8   9
ENDBRANCH   6   7
BRANCH   1  19
ATOM     19  O   UNL     1       4.521   5.436  19.128  0.00  0.00    +0.000 OA
BRANCH  19  21
ATOM     20  O   UNL     1       6.586   4.348  19.004  0.00  0.00    +0.000 OA
ATOM     21  C   UNL     1       5.507   4.671  18.527  0.00  0.00    +0.000 C 
BRANCH  21  22
ATOM     22  C   UNL     1       5.157   4.334  17.136  0.00  0.00    +0.000 C 
ATOM     23  C   UNL     1       5.793   4.780  16.049  0.00  0.00    +0.000 C 
ATOM     24  S   UNL     1       5.524   4.170  14.453  0.00  0.00    +0.000 S 
ATOM     25  C   UNL     1       7.051   4.833  13.891  0.00  0.00    +0.000 C 
ATOM     26  O   UNL     1       7.417   4.818  12.730  0.00  0.00    +0.000 OA
ATOM     27  N   UNL     1       7.694   5.445  14.918  0.00  0.00    +0.000 N 
ATOM     28  C   UNL     1       6.905   5.758  15.977  0.00  0.00    +0.000 C 
ATOM     29  O   UNL     1       7.036   6.754  16.670  0.00  0.00    +0.000 OA
ATOM     30  H   UNL     1       8.486   6.032  14.704  0.00  0.00    +0.000 HD
ENDBRANCH  21  22
ENDBRANCH  19  21
ENDBRANCH   1  19
TORSDOF 6
ENDMDL
