MODEL 1
REMARK VINA RESULT:      -6.4      0.000      0.000
REMARK  Name = 
REMARK  7 active torsions:
REMARK  status: ('A' for Active; 'I' for Inactive)
REMARK    1  A    between atoms: C_1  and  C_2
REMARK    2  A    between atoms: C_2  and  O_3
REMARK    3  A    between atoms: O_3  and  C_4
REMARK    4  A    between atoms: C_4  and  C_6
REMARK    5  A    between atoms: N_8  and  C_9
REMARK    6  A    between atoms: C_15  and  C_16
REMARK    7  A    between atoms: C_20  and  N_21
REMARK                            x       y       z     vdW  Elec       q    Type
REMARK                         _______ _______ _______ _____ _____    ______ ____
ROOT
ATOM      1  C   UNL     1      -0.180  15.048  22.107  0.00  0.00    +0.000 C 
ATOM      2  O   UNL     1       0.363  13.720  22.034  0.00  0.00    +0.000 OA
ATOM      3  N   UNL     1      -0.753  12.851  22.048  0.00  0.00    +0.000 N 
ATOM      4  C   UNL     1      -1.838  13.447  22.840  0.00  0.00    +0.000 C 
ATOM      5  C   UNL     1      -1.532  14.961  22.799  0.00  0.00    +0.000 C 
ATOM      6  C   UNL     1      -1.544  15.462  24.257  0.00  0.00    +0.000 C 
ATOM      7  O   UNL     1      -0.802  15.121  25.162  0.00  0.00    +0.000 OA
ATOM      8  N   UNL     1      -2.600  16.354  24.392  0.00  0.00    +0.000 N 
ATOM      9  C   UNL     1      -3.223  16.588  23.177  0.00  0.00    +0.000 A 
ATOM     10  C   UNL     1      -4.313  17.397  22.933  0.00  0.00    +0.000 A 
ATOM     11  C   UNL     1      -4.791  17.450  21.620  0.00  0.00    +0.000 A 
ATOM     12  C   UNL     1      -4.147  16.740  20.594  0.00  0.00    +0.000 A 
ATOM     13  C   UNL     1      -3.020  15.962  20.861  0.00  0.00    +0.000 A 
ATOM     14  C   UNL     1      -2.593  15.857  22.174  0.00  0.00    +0.000 A 
ATOM     15  H   UNL     1      -2.825  16.810  25.265  0.00  0.00    +0.000 HD
ENDROOT
BRANCH   3  16
ATOM     16  C   UNL     1      -0.583  11.468  21.880  0.00  0.00    +0.000 A 
ATOM     17  C   UNL     1      -0.221  10.879  20.654  0.00  0.00    +0.000 A 
ATOM     18  C   UNL     1       0.063   9.515  20.532  0.00  0.00    +0.000 A 
ATOM     19  C   UNL     1      -0.042   8.686  21.639  0.00  0.00    +0.000 A 
ATOM     20  C   UNL     1      -0.426   9.228  22.861  0.00  0.00    +0.000 A 
ATOM     21  C   UNL     1      -0.690  10.601  22.978  0.00  0.00    +0.000 A 
ENDBRANCH   3  16
BRANCH   4  22
ATOM     22  C   UNL     1      -3.238  13.093  22.331  0.00  0.00    +0.000 A 
ATOM     23  C   UNL     1      -3.496  12.850  20.968  0.00  0.00    +0.000 A 
ATOM     24  C   UNL     1      -4.794  12.635  20.507  0.00  0.00    +0.000 A 
ATOM     25  C   UNL     1      -5.860  12.639  21.401  0.00  0.00    +0.000 A 
ATOM     26  C   UNL     1      -5.614  12.847  22.766  0.00  0.00    +0.000 A 
ATOM     27  C   UNL     1      -4.312  13.069  23.236  0.00  0.00    +0.000 A 
BRANCH  26  28
ATOM     28  N   UNL     1      -6.736  12.848  23.712  0.00  0.00    +0.000 N 
ATOM     29  O   UNL     1      -7.099  13.937  24.176  0.00  0.00    +0.000 OA
ATOM     30  O   UNL     1      -7.253  11.756  23.991  0.00  0.00    +0.000 OA
ENDBRANCH  26  28
ENDBRANCH   4  22
BRANCH   1  31
ATOM     31  C   UNL     1       0.764  16.106  22.699  0.00  0.00    +0.000 C 
ATOM     32  O   UNL     1       1.804  15.889  23.303  0.00  0.00    +0.000 OA
BRANCH  31  33
ATOM     33  O   UNL     1       0.312  17.350  22.344  0.00  0.00    +0.000 OA
BRANCH  33  35
ATOM     34  C   UNL     1      -0.506  18.520  20.374  0.00  0.00    +0.000 C 
ATOM     35  C   UNL     1       0.672  17.841  21.045  0.00  0.00    +0.000 C 
ENDBRANCH  33  35
ENDBRANCH  31  33
ENDBRANCH   1  31
TORSDOF 6
ENDMDL
MODEL 2
REMARK VINA RESULT:      -6.3      0.274      1.074
REMARK  Name = 
REMARK  7 active torsions:
REMARK  status: ('A' for Active; 'I' for Inactive)
REMARK    1  A    between atoms: C_1  and  C_2
REMARK    2  A    between atoms: C_2  and  O_3
REMARK    3  A    between atoms: O_3  and  C_4
REMARK    4  A    between atoms: C_4  and  C_6
REMARK    5  A    between atoms: N_8  and  C_9
REMARK    6  A    between atoms: C_15  and  C_16
REMARK    7  A    between atoms: C_20  and  N_21
REMARK                            x       y       z     vdW  Elec       q    Type
REMARK                         _______ _______ _______ _____ _____    ______ ____
ROOT
ATOM      1  C   UNL     1      -0.134  15.138  22.149  0.00  0.00    +0.000 C 
ATOM      2  O   UNL     1       0.439  13.822  22.100  0.00  0.00    +0.000 OA
ATOM      3  N   UNL     1      -0.657  12.928  22.113  0.00  0.00    +0.000 N 
ATOM      4  C   UNL     1      -1.764  13.510  22.885  0.00  0.00    +0.000 C 
ATOM      5  C   UNL     1      -1.492  15.029  22.828  0.00  0.00    +0.000 C 
ATOM      6  C   UNL     1      -1.532  15.548  24.279  0.00  0.00    +0.000 C 
ATOM      7  O   UNL     1      -0.793  15.236  25.196  0.00  0.00    +0.000 OA
ATOM      8  N   UNL     1      -2.610  16.418  24.390  0.00  0.00    +0.000 N 
ATOM      9  C   UNL     1      -3.224  16.622  23.166  0.00  0.00    +0.000 A 
ATOM     10  C   UNL     1      -4.329  17.402  22.900  0.00  0.00    +0.000 A 
ATOM     11  C   UNL     1      -4.794  17.428  21.582  0.00  0.00    +0.000 A 
ATOM     12  C   UNL     1      -4.122  16.719  20.572  0.00  0.00    +0.000 A 
ATOM     13  C   UNL     1      -2.981  15.971  20.861  0.00  0.00    +0.000 A 
ATOM     14  C   UNL     1      -2.566  15.892  22.180  0.00  0.00    +0.000 A 
ATOM     15  H   UNL     1      -2.854  16.880  25.255  0.00  0.00    +0.000 HD
ENDROOT
BRANCH   3  16
ATOM     16  C   UNL     1      -0.454  11.547  21.965  0.00  0.00    +0.000 A 
ATOM     17  C   UNL     1      -0.649  10.623  23.008  0.00  0.00    +0.000 A 
ATOM     18  C   UNL     1      -0.561   9.240  22.811  0.00  0.00    +0.000 A 
ATOM     19  C   UNL     1      -0.238   8.740  21.558  0.00  0.00    +0.000 A 
ATOM     20  C   UNL     1      -0.010   9.625  20.510  0.00  0.00    +0.000 A 
ATOM     21  C   UNL     1      -0.120  11.010  20.712  0.00  0.00    +0.000 A 
ENDBRANCH   3  16
BRANCH   4  22
ATOM     22  C   UNL     1      -3.150  13.117  22.366  0.00  0.00    +0.000 A 
ATOM     23  C   UNL     1      -3.386  12.846  21.004  0.00  0.00    +0.000 A 
ATOM     24  C   UNL     1      -4.673  12.596  20.532  0.00  0.00    +0.000 A 
ATOM     25  C   UNL     1      -5.750  12.591  21.413  0.00  0.00    +0.000 A 
ATOM     26  C   UNL     1      -5.526  12.827  22.777  0.00  0.00    +0.000 A 
ATOM     27  C   UNL     1      -4.234  13.084  23.259  0.00  0.00    +0.000 A 
BRANCH  26  28
ATOM     28  N   UNL     1      -6.658  12.819  23.709  0.00  0.00    +0.000 N 
ATOM     29  O   UNL     1      -7.162  11.724  23.996  0.00  0.00    +0.000 OA
ATOM     30  O   UNL     1      -7.045  13.909  24.154  0.00  0.00    +0.000 OA
ENDBRANCH  26  28
ENDBRANCH   4  22
BRANCH   1  31
ATOM     31  C   UNL     1       0.778  16.225  22.737  0.00  0.00    +0.000 C 
ATOM     32  O   UNL     1       1.747  16.041  23.461  0.00  0.00    +0.000 OA
BRANCH  31  33
ATOM     33  O   UNL     1       0.401  17.440  22.231  0.00  0.00    +0.000 OA
BRANCH  33  35
ATOM     34  C   UNL     1       1.857  17.782  20.311  0.00  0.00    +0.000 C 
ATOM     35  C   UNL     1       0.434  17.604  20.806  0.00  0.00    +0.000 C 
ENDBRANCH  33  35
ENDBRANCH  31  33
ENDBRANCH   1  31
TORSDOF 6
ENDMDL
MODEL 3
REMARK VINA RESULT:      -6.2      1.225      1.684
REMARK  Name = 
REMARK  7 active torsions:
REMARK  status: ('A' for Active; 'I' for Inactive)
REMARK    1  A    between atoms: C_1  and  C_2
REMARK    2  A    between atoms: C_2  and  O_3
REMARK    3  A    between atoms: O_3  and  C_4
REMARK    4  A    between atoms: C_4  and  C_6
REMARK    5  A    between atoms: N_8  and  C_9
REMARK    6  A    between atoms: C_15  and  C_16
REMARK    7  A    between atoms: C_20  and  N_21
REMARK                            x       y       z     vdW  Elec       q    Type
REMARK                         _______ _______ _______ _____ _____    ______ ____
ROOT
ATOM      1  C   UNL     1      -1.235  15.532  22.565  0.00  0.00    +0.000 C 
ATOM      2  O   UNL     1      -0.488  14.317  22.394  0.00  0.00    +0.000 OA
ATOM      3  N   UNL     1      -1.452  13.287  22.306  0.00  0.00    +0.000 N 
ATOM      4  C   UNL     1      -2.628  13.634  23.116  0.00  0.00    +0.000 C 
ATOM      5  C   UNL     1      -2.565  15.174  23.211  0.00  0.00    +0.000 C 
ATOM      6  C   UNL     1      -2.675  15.537  24.706  0.00  0.00    +0.000 C 
ATOM      7  O   UNL     1      -1.901  15.239  25.598  0.00  0.00    +0.000 OA
ATOM      8  N   UNL     1      -3.861  16.238  24.887  0.00  0.00    +0.000 N 
ATOM      9  C   UNL     1      -4.497  16.477  23.680  0.00  0.00    +0.000 A 
ATOM     10  C   UNL     1      -5.698  17.124  23.477  0.00  0.00    +0.000 A 
ATOM     11  C   UNL     1      -6.162  17.216  22.161  0.00  0.00    +0.000 A 
ATOM     12  C   UNL     1      -5.401  16.708  21.096  0.00  0.00    +0.000 A 
ATOM     13  C   UNL     1      -4.168  16.096  21.326  0.00  0.00    +0.000 A 
ATOM     14  C   UNL     1      -3.747  15.944  22.636  0.00  0.00    +0.000 A 
ATOM     15  H   UNL     1      -4.166  16.575  25.789  0.00  0.00    +0.000 HD
ENDROOT
BRANCH   3  16
ATOM     16  C   UNL     1      -1.064  11.967  22.025  0.00  0.00    +0.000 A 
ATOM     17  C   UNL     1      -0.630  11.545  20.755  0.00  0.00    +0.000 A 
ATOM     18  C   UNL     1      -0.131  10.259  20.522  0.00  0.00    +0.000 A 
ATOM     19  C   UNL     1      -0.083   9.338  21.559  0.00  0.00    +0.000 A 
ATOM     20  C   UNL     1      -0.531   9.711  22.821  0.00  0.00    +0.000 A 
ATOM     21  C   UNL     1      -1.012  11.010  23.050  0.00  0.00    +0.000 A 
ENDBRANCH   3  16
BRANCH   4  22
ATOM     22  C   UNL     1      -3.948  13.111  22.542  0.00  0.00    +0.000 A 
ATOM     23  C   UNL     1      -4.126  12.895  21.161  0.00  0.00    +0.000 A 
ATOM     24  C   UNL     1      -5.366  12.521  20.645  0.00  0.00    +0.000 A 
ATOM     25  C   UNL     1      -6.449  12.337  21.498  0.00  0.00    +0.000 A 
ATOM     26  C   UNL     1      -6.278  12.517  22.878  0.00  0.00    +0.000 A 
ATOM     27  C   UNL     1      -5.036  12.897  23.405  0.00  0.00    +0.000 A 
BRANCH  26  28
ATOM     28  N   UNL     1      -7.418  12.320  23.781  0.00  0.00    +0.000 N 
ATOM     29  O   UNL     1      -7.817  11.161  23.962  0.00  0.00    +0.000 OA
ATOM     30  O   UNL     1      -7.915  13.325  24.308  0.00  0.00    +0.000 OA
ENDBRANCH  26  28
ENDBRANCH   4  22
BRANCH   1  31
ATOM     31  C   UNL     1      -0.479  16.669  23.269  0.00  0.00    +0.000 C 
ATOM     32  O   UNL     1      -0.900  17.799  23.473  0.00  0.00    +0.000 OA
BRANCH  31  33
ATOM     33  O   UNL     1       0.713  16.184  23.738  0.00  0.00    +0.000 OA
BRANCH  33  35
ATOM     34  C   UNL     1       2.179  17.499  25.167  0.00  0.00    +0.000 C 
ATOM     35  C   UNL     1       1.835  17.078  23.751  0.00  0.00    +0.000 C 
ENDBRANCH  33  35
ENDBRANCH  31  33
ENDBRANCH   1  31
TORSDOF 6
ENDMDL
MODEL 4
REMARK VINA RESULT:      -6.0      2.076      2.627
REMARK  Name = 
REMARK  7 active torsions:
REMARK  status: ('A' for Active; 'I' for Inactive)
REMARK    1  A    between atoms: C_1  and  C_2
REMARK    2  A    between atoms: C_2  and  O_3
REMARK    3  A    between atoms: O_3  and  C_4
REMARK    4  A    between atoms: C_4  and  C_6
REMARK    5  A    between atoms: N_8  and  C_9
REMARK    6  A    between atoms: C_15  and  C_16
REMARK    7  A    between atoms: C_20  and  N_21
REMARK                            x       y       z     vdW  Elec       q    Type
REMARK                         _______ _______ _______ _____ _____    ______ ____
ROOT
ATOM      1  C   UNL     1      -1.205  15.195  23.224  0.00  0.00    +0.000 C 
ATOM      2  O   UNL     1      -0.459  13.972  23.130  0.00  0.00    +0.000 OA
ATOM      3  N   UNL     1      -1.348  13.025  22.570  0.00  0.00    +0.000 N 
ATOM      4  C   UNL     1      -2.725  13.329  22.986  0.00  0.00    +0.000 C 
ATOM      5  C   UNL     1      -2.680  14.834  23.329  0.00  0.00    +0.000 C 
ATOM      6  C   UNL     1      -3.285  14.993  24.739  0.00  0.00    +0.000 C 
ATOM      7  O   UNL     1      -2.861  14.526  25.781  0.00  0.00    +0.000 OA
ATOM      8  N   UNL     1      -4.454  15.733  24.619  0.00  0.00    +0.000 N 
ATOM      9  C   UNL     1      -4.642  16.176  23.320  0.00  0.00    +0.000 A 
ATOM     10  C   UNL     1      -5.695  16.918  22.830  0.00  0.00    +0.000 A 
ATOM     11  C   UNL     1      -5.686  17.221  21.464  0.00  0.00    +0.000 A 
ATOM     12  C   UNL     1      -4.615  16.819  20.649  0.00  0.00    +0.000 A 
ATOM     13  C   UNL     1      -3.540  16.106  21.180  0.00  0.00    +0.000 A 
ATOM     14  C   UNL     1      -3.588  15.748  22.517  0.00  0.00    +0.000 A 
ATOM     15  H   UNL     1      -5.042  15.960  25.408  0.00  0.00    +0.000 HD
ENDROOT
BRANCH   3  16
ATOM     16  C   UNL     1      -0.903  11.736  22.239  0.00  0.00    +0.000 A 
ATOM     17  C   UNL     1      -0.198  11.444  21.056  0.00  0.00    +0.000 A 
ATOM     18  C   UNL     1       0.344  10.180  20.799  0.00  0.00    +0.000 A 
ATOM     19  C   UNL     1       0.165   9.152  21.713  0.00  0.00    +0.000 A 
ATOM     20  C   UNL     1      -0.552   9.396  22.879  0.00  0.00    +0.000 A 
ATOM     21  C   UNL     1      -1.076  10.673  23.139  0.00  0.00    +0.000 A 
ENDBRANCH   3  16
BRANCH   4  22
ATOM     22  C   UNL     1      -3.779  12.973  21.934  0.00  0.00    +0.000 A 
ATOM     23  C   UNL     1      -5.146  12.867  22.256  0.00  0.00    +0.000 A 
ATOM     24  C   UNL     1      -6.077  12.437  21.311  0.00  0.00    +0.000 A 
ATOM     25  C   UNL     1      -5.666  12.122  20.020  0.00  0.00    +0.000 A 
ATOM     26  C   UNL     1      -4.312  12.255  19.676  0.00  0.00    +0.000 A 
ATOM     27  C   UNL     1      -3.370  12.682  20.622  0.00  0.00    +0.000 A 
BRANCH  26  28
ATOM     28  N   UNL     1      -3.876  11.927  18.314  0.00  0.00    +0.000 N 
ATOM     29  O   UNL     1      -2.670  11.711  18.131  0.00  0.00    +0.000 OA
ATOM     30  O   UNL     1      -4.741  11.889  17.427  0.00  0.00    +0.000 OA
ENDBRANCH  26  28
ENDBRANCH   4  22
BRANCH   1  31
ATOM     31  C   UNL     1      -0.719  16.174  24.303  0.00  0.00    +0.000 C 
ATOM     32  O   UNL     1      -0.056  15.890  25.290  0.00  0.00    +0.000 OA
BRANCH  31  33
ATOM     33  O   UNL     1      -1.051  17.449  23.926  0.00  0.00    +0.000 OA
BRANCH  33  35
ATOM     34  C   UNL     1       0.860  18.493  22.842  0.00  0.00    +0.000 C 
ATOM     35  C   UNL     1      -0.537  17.926  22.675  0.00  0.00    +0.000 C 
ENDBRANCH  33  35
ENDBRANCH  31  33
ENDBRANCH   1  31
TORSDOF 6
ENDMDL
MODEL 5
REMARK VINA RESULT:      -6.0      3.055      6.650
REMARK  Name = 
REMARK  7 active torsions:
REMARK  status: ('A' for Active; 'I' for Inactive)
REMARK    1  A    between atoms: C_1  and  C_2
REMARK    2  A    between atoms: C_2  and  O_3
REMARK    3  A    between atoms: O_3  and  C_4
REMARK    4  A    between atoms: C_4  and  C_6
REMARK    5  A    between atoms: N_8  and  C_9
REMARK    6  A    between atoms: C_15  and  C_16
REMARK    7  A    between atoms: C_20  and  N_21
REMARK                            x       y       z     vdW  Elec       q    Type
REMARK                         _______ _______ _______ _____ _____    ______ ____
ROOT
ATOM      1  C   UNL     1       0.632  11.640  19.924  0.00  0.00    +0.000 C 
ATOM      2  O   UNL     1       1.795  12.247  19.339  0.00  0.00    +0.000 OA
ATOM      3  N   UNL     1       1.641  13.638  19.542  0.00  0.00    +0.000 N 
ATOM      4  C   UNL     1       0.214  13.988  19.527  0.00  0.00    +0.000 C 
ATOM      5  C   UNL     1      -0.492  12.665  19.897  0.00  0.00    +0.000 C 
ATOM      6  C   UNL     1      -1.570  12.415  18.823  0.00  0.00    +0.000 C 
ATOM      7  O   UNL     1      -1.397  12.235  17.631  0.00  0.00    +0.000 OA
ATOM      8  N   UNL     1      -2.811  12.478  19.444  0.00  0.00    +0.000 N 
ATOM      9  C   UNL     1      -2.685  12.633  20.814  0.00  0.00    +0.000 A 
ATOM     10  C   UNL     1      -3.697  12.752  21.743  0.00  0.00    +0.000 A 
ATOM     11  C   UNL     1      -3.323  12.936  23.078  0.00  0.00    +0.000 A 
ATOM     12  C   UNL     1      -1.968  12.948  23.448  0.00  0.00    +0.000 A 
ATOM     13  C   UNL     1      -0.965  12.784  22.492  0.00  0.00    +0.000 A 
ATOM     14  C   UNL     1      -1.338  12.672  21.164  0.00  0.00    +0.000 A 
ATOM     15  H   UNL     1      -3.681  12.359  18.943  0.00  0.00    +0.000 HD
ENDROOT
BRANCH   3  16
ATOM     16  C   UNL     1       2.664  14.530  19.183  0.00  0.00    +0.000 A 
ATOM     17  C   UNL     1       2.550  15.446  18.121  0.00  0.00    +0.000 A 
ATOM     18  C   UNL     1       3.529  16.410  17.853  0.00  0.00    +0.000 A 
ATOM     19  C   UNL     1       4.678  16.461  18.629  0.00  0.00    +0.000 A 
ATOM     20  C   UNL     1       4.838  15.552  19.669  0.00  0.00    +0.000 A 
ATOM     21  C   UNL     1       3.841  14.601  19.943  0.00  0.00    +0.000 A 
ENDBRANCH   3  16
BRANCH   4  22
ATOM     22  C   UNL     1      -0.145  15.153  20.455  0.00  0.00    +0.000 A 
ATOM     23  C   UNL     1      -1.241  16.000  20.198  0.00  0.00    +0.000 A 
ATOM     24  C   UNL     1      -1.489  17.118  20.992  0.00  0.00    +0.000 A 
ATOM     25  C   UNL     1      -0.658  17.405  22.071  0.00  0.00    +0.000 A 
ATOM     26  C   UNL     1       0.418  16.552  22.358  0.00  0.00    +0.000 A 
ATOM     27  C   UNL     1       0.676  15.428  21.561  0.00  0.00    +0.000 A 
BRANCH  26  28
ATOM     28  N   UNL     1       1.293  16.849  23.498  0.00  0.00    +0.000 N 
ATOM     29  O   UNL     1       2.433  16.364  23.492  0.00  0.00    +0.000 OA
ATOM     30  O   UNL     1       0.838  17.567  24.400  0.00  0.00    +0.000 OA
ENDBRANCH  26  28
ENDBRANCH   4  22
BRANCH   1  31
ATOM     31  C   UNL     1       0.249  10.271  19.341  0.00  0.00    +0.000 C 
ATOM     32  O   UNL     1       0.562   9.842  18.240  0.00  0.00    +0.000 OA
BRANCH  31  33
ATOM     33  O   UNL     1      -0.413   9.551  20.301  0.00  0.00    +0.000 OA
BRANCH  33  35
ATOM     34  C   UNL     1      -0.444   9.272  22.718  0.00  0.00    +0.000 C 
ATOM     35  C   UNL     1       0.345   9.103  21.434  0.00  0.00    +0.000 C 
ENDBRANCH  33  35
ENDBRANCH  31  33
ENDBRANCH   1  31
TORSDOF 6
ENDMDL
MODEL 6
REMARK VINA RESULT:      -5.9      3.143      6.387
REMARK  Name = 
REMARK  7 active torsions:
REMARK  status: ('A' for Active; 'I' for Inactive)
REMARK    1  A    between atoms: C_1  and  C_2
REMARK    2  A    between atoms: C_2  and  O_3
REMARK    3  A    between atoms: O_3  and  C_4
REMARK    4  A    between atoms: C_4  and  C_6
REMARK    5  A    between atoms: N_8  and  C_9
REMARK    6  A    between atoms: C_15  and  C_16
REMARK    7  A    between atoms: C_20  and  N_21
REMARK                            x       y       z     vdW  Elec       q    Type
REMARK                         _______ _______ _______ _____ _____    ______ ____
ROOT
ATOM      1  C   UNL     1       0.663  11.562  19.956  0.00  0.00    +0.000 C 
ATOM      2  O   UNL     1       1.833  12.154  19.370  0.00  0.00    +0.000 OA
ATOM      3  N   UNL     1       1.678  13.549  19.536  0.00  0.00    +0.000 N 
ATOM      4  C   UNL     1       0.251  13.899  19.495  0.00  0.00    +0.000 C 
ATOM      5  C   UNL     1      -0.459  12.586  19.890  0.00  0.00    +0.000 C 
ATOM      6  C   UNL     1      -1.525  12.309  18.810  0.00  0.00    +0.000 C 
ATOM      7  O   UNL     1      -1.337  12.099  17.625  0.00  0.00    +0.000 OA
ATOM      8  N   UNL     1      -2.773  12.388  19.414  0.00  0.00    +0.000 N 
ATOM      9  C   UNL     1      -2.663  12.578  20.781  0.00  0.00    +0.000 A 
ATOM     10  C   UNL     1      -3.686  12.720  21.695  0.00  0.00    +0.000 A 
ATOM     11  C   UNL     1      -3.329  12.938  23.029  0.00  0.00    +0.000 A 
ATOM     12  C   UNL     1      -1.978  12.959  23.414  0.00  0.00    +0.000 A 
ATOM     13  C   UNL     1      -0.964  12.770  22.476  0.00  0.00    +0.000 A 
ATOM     14  C   UNL     1      -1.320  12.625  21.146  0.00  0.00    +0.000 A 
ATOM     15  H   UNL     1      -3.637  12.257  18.906  0.00  0.00    +0.000 HD
ENDROOT
BRANCH   3  16
ATOM     16  C   UNL     1       2.706  14.432  19.167  0.00  0.00    +0.000 A 
ATOM     17  C   UNL     1       2.640  15.259  18.031  0.00  0.00    +0.000 A 
ATOM     18  C   UNL     1       3.617  16.219  17.744  0.00  0.00    +0.000 A 
ATOM     19  C   UNL     1       4.717  16.355  18.579  0.00  0.00    +0.000 A 
ATOM     20  C   UNL     1       4.830  15.534  19.695  0.00  0.00    +0.000 A 
ATOM     21  C   UNL     1       3.835  14.587  19.985  0.00  0.00    +0.000 A 
ENDBRANCH   3  16
BRANCH   4  22
ATOM     22  C   UNL     1      -0.118  15.087  20.389  0.00  0.00    +0.000 A 
ATOM     23  C   UNL     1       0.608  15.393  21.557  0.00  0.00    +0.000 A 
ATOM     24  C   UNL     1       0.194  16.411  22.416  0.00  0.00    +0.000 A 
ATOM     25  C   UNL     1      -0.942  17.156  22.116  0.00  0.00    +0.000 A 
ATOM     26  C   UNL     1      -1.655  16.884  20.940  0.00  0.00    +0.000 A 
ATOM     27  C   UNL     1      -1.248  15.859  20.074  0.00  0.00    +0.000 A 
BRANCH  26  28
ATOM     28  N   UNL     1      -2.851  17.671  20.619  0.00  0.00    +0.000 N 
ATOM     29  O   UNL     1      -3.059  17.946  19.429  0.00  0.00    +0.000 OA
ATOM     30  O   UNL     1      -3.581  18.016  21.559  0.00  0.00    +0.000 OA
ENDBRANCH  26  28
ENDBRANCH   4  22
BRANCH   1  31
ATOM     31  C   UNL     1       0.287  10.178  19.404  0.00  0.00    +0.000 C 
ATOM     32  O   UNL     1       0.633   9.711  18.328  0.00  0.00    +0.000 OA
BRANCH  31  33
ATOM     33  O   UNL     1      -0.415   9.496  20.362  0.00  0.00    +0.000 OA
BRANCH  33  35
ATOM     34  C   UNL     1      -0.417   9.256  22.783  0.00  0.00    +0.000 C 
ATOM     35  C   UNL     1       0.318   8.985  21.484  0.00  0.00    +0.000 C 
ENDBRANCH  33  35
ENDBRANCH  31  33
ENDBRANCH   1  31
TORSDOF 6
ENDMDL
MODEL 7
REMARK VINA RESULT:      -5.9      2.164      5.364
REMARK  Name = 
REMARK  7 active torsions:
REMARK  status: ('A' for Active; 'I' for Inactive)
REMARK    1  A    between atoms: C_1  and  C_2
REMARK    2  A    between atoms: C_2  and  O_3
REMARK    3  A    between atoms: O_3  and  C_4
REMARK    4  A    between atoms: C_4  and  C_6
REMARK    5  A    between atoms: N_8  and  C_9
REMARK    6  A    between atoms: C_15  and  C_16
REMARK    7  A    between atoms: C_20  and  N_21
REMARK                            x       y       z     vdW  Elec       q    Type
REMARK                         _______ _______ _______ _____ _____    ______ ____
ROOT
ATOM      1  C   UNL     1      -3.327  13.222  23.033  0.00  0.00    +0.000 C 
ATOM      2  O   UNL     1      -2.726  11.921  22.933  0.00  0.00    +0.000 OA
ATOM      3  N   UNL     1      -1.622  12.077  22.063  0.00  0.00    +0.000 N 
ATOM      4  C   UNL     1      -1.912  13.124  21.074  0.00  0.00    +0.000 C 
ATOM      5  C   UNL     1      -2.993  13.987  21.761  0.00  0.00    +0.000 C 
ATOM      6  C   UNL     1      -4.162  14.122  20.763  0.00  0.00    +0.000 C 
ATOM      7  O   UNL     1      -4.858  13.228  20.316  0.00  0.00    +0.000 OA
ATOM      8  N   UNL     1      -4.264  15.461  20.407  0.00  0.00    +0.000 N 
ATOM      9  C   UNL     1      -3.378  16.246  21.126  0.00  0.00    +0.000 A 
ATOM     10  C   UNL     1      -3.189  17.608  21.025  0.00  0.00    +0.000 A 
ATOM     11  C   UNL     1      -2.205  18.180  21.837  0.00  0.00    +0.000 A 
ATOM     12  C   UNL     1      -1.481  17.394  22.749  0.00  0.00    +0.000 A 
ATOM     13  C   UNL     1      -1.723  16.024  22.861  0.00  0.00    +0.000 A 
ATOM     14  C   UNL     1      -2.648  15.450  22.005  0.00  0.00    +0.000 A 
ATOM     15  H   UNL     1      -4.951  15.802  19.749  0.00  0.00    +0.000 HD
ENDROOT
BRANCH   3  16
ATOM     16  C   UNL     1      -0.741  11.010  21.830  0.00  0.00    +0.000 A 
ATOM     17  C   UNL     1      -0.203  10.215  22.859  0.00  0.00    +0.000 A 
ATOM     18  C   UNL     1       0.576   9.081  22.602  0.00  0.00    +0.000 A 
ATOM     19  C   UNL     1       0.869   8.727  21.294  0.00  0.00    +0.000 A 
ATOM     20  C   UNL     1       0.379   9.506  20.251  0.00  0.00    +0.000 A 
ATOM     21  C   UNL     1      -0.418  10.631  20.518  0.00  0.00    +0.000 A 
ENDBRANCH   3  16
BRANCH   4  22
ATOM     22  C   UNL     1      -0.678  13.921  20.641  0.00  0.00    +0.000 A 
ATOM     23  C   UNL     1      -0.593  14.534  19.376  0.00  0.00    +0.000 A 
ATOM     24  C   UNL     1       0.578  15.164  18.957  0.00  0.00    +0.000 A 
ATOM     25  C   UNL     1       1.683  15.211  19.800  0.00  0.00    +0.000 A 
ATOM     26  C   UNL     1       1.603  14.633  21.075  0.00  0.00    +0.000 A 
ATOM     27  C   UNL     1       0.430  13.994  21.502  0.00  0.00    +0.000 A 
BRANCH  26  28
ATOM     28  N   UNL     1       2.766  14.684  21.969  0.00  0.00    +0.000 N 
ATOM     29  O   UNL     1       3.661  13.845  21.799  0.00  0.00    +0.000 OA
ATOM     30  O   UNL     1       2.782  15.565  22.841  0.00  0.00    +0.000 OA
ENDBRANCH  26  28
ENDBRANCH   4  22
BRANCH   1  31
ATOM     31  C   UNL     1      -4.820  13.225  23.396  0.00  0.00    +0.000 C 
ATOM     32  O   UNL     1      -5.619  12.328  23.170  0.00  0.00    +0.000 OA
BRANCH  31  33
ATOM     33  O   UNL     1      -5.097  14.354  24.120  0.00  0.00    +0.000 OA
BRANCH  33  35
ATOM     34  C   UNL     1      -5.761  16.686  23.911  0.00  0.00    +0.000 C 
ATOM     35  C   UNL     1      -6.104  15.239  23.609  0.00  0.00    +0.000 C 
ENDBRANCH  33  35
ENDBRANCH  31  33
ENDBRANCH   1  31
TORSDOF 6
ENDMDL
MODEL 8
REMARK VINA RESULT:      -5.9      2.985      6.228
REMARK  Name = 
REMARK  7 active torsions:
REMARK  status: ('A' for Active; 'I' for Inactive)
REMARK    1  A    between atoms: C_1  and  C_2
REMARK    2  A    between atoms: C_2  and  O_3
REMARK    3  A    between atoms: O_3  and  C_4
REMARK    4  A    between atoms: C_4  and  C_6
REMARK    5  A    between atoms: N_8  and  C_9
REMARK    6  A    between atoms: C_15  and  C_16
REMARK    7  A    between atoms: C_20  and  N_21
REMARK                            x       y       z     vdW  Elec       q    Type
REMARK                         _______ _______ _______ _____ _____    ______ ____
ROOT
ATOM      1  C   UNL     1      -5.446  12.366  20.910  0.00  0.00    +0.000 C 
ATOM      2  O   UNL     1      -5.361  11.707  19.637  0.00  0.00    +0.000 OA
ATOM      3  N   UNL     1      -4.033  11.903  19.193  0.00  0.00    +0.000 N 
ATOM      4  C   UNL     1      -3.528  13.191  19.689  0.00  0.00    +0.000 C 
ATOM      5  C   UNL     1      -4.402  13.474  20.930  0.00  0.00    +0.000 C 
ATOM      6  C   UNL     1      -4.970  14.898  20.766  0.00  0.00    +0.000 C 
ATOM      7  O   UNL     1      -5.712  15.301  19.889  0.00  0.00    +0.000 OA
ATOM      8  N   UNL     1      -4.441  15.686  21.782  0.00  0.00    +0.000 N 
ATOM      9  C   UNL     1      -3.680  14.934  22.661  0.00  0.00    +0.000 A 
ATOM     10  C   UNL     1      -2.992  15.380  23.770  0.00  0.00    +0.000 A 
ATOM     11  C   UNL     1      -2.258  14.435  24.492  0.00  0.00    +0.000 A 
ATOM     12  C   UNL     1      -2.270  13.081  24.119  0.00  0.00    +0.000 A 
ATOM     13  C   UNL     1      -3.009  12.649  23.017  0.00  0.00    +0.000 A 
ATOM     14  C   UNL     1      -3.677  13.600  22.263  0.00  0.00    +0.000 A 
ATOM     15  H   UNL     1      -4.654  16.669  21.880  0.00  0.00    +0.000 HD
ENDROOT
BRANCH   3  16
ATOM     16  C   UNL     1      -3.575  11.290  18.016  0.00  0.00    +0.000 A 
ATOM     17  C   UNL     1      -2.556  10.319  18.000  0.00  0.00    +0.000 A 
ATOM     18  C   UNL     1      -2.196   9.630  16.837  0.00  0.00    +0.000 A 
ATOM     19  C   UNL     1      -2.830   9.920  15.637  0.00  0.00    +0.000 A 
ATOM     20  C   UNL     1      -3.822  10.895  15.610  0.00  0.00    +0.000 A 
ATOM     21  C   UNL     1      -4.190  11.567  16.786  0.00  0.00    +0.000 A 
ENDBRANCH   3  16
BRANCH   4  22
ATOM     22  C   UNL     1      -2.026  13.190  19.987  0.00  0.00    +0.000 A 
ATOM     23  C   UNL     1      -1.242  14.354  19.866  0.00  0.00    +0.000 A 
ATOM     24  C   UNL     1       0.141  14.313  20.036  0.00  0.00    +0.000 A 
ATOM     25  C   UNL     1       0.769  13.111  20.349  0.00  0.00    +0.000 A 
ATOM     26  C   UNL     1      -0.003  11.950  20.504  0.00  0.00    +0.000 A 
ATOM     27  C   UNL     1      -1.394  11.983  20.330  0.00  0.00    +0.000 A 
BRANCH  26  28
ATOM     28  N   UNL     1       0.655  10.682  20.838  0.00  0.00    +0.000 N 
ATOM     29  O   UNL     1       0.718   9.814  19.956  0.00  0.00    +0.000 OA
ATOM     30  O   UNL     1       1.108  10.554  21.985  0.00  0.00    +0.000 OA
ENDBRANCH  26  28
ENDBRANCH   4  22
BRANCH   1  31
ATOM     31  C   UNL     1      -6.856  12.822  21.316  0.00  0.00    +0.000 C 
ATOM     32  O   UNL     1      -7.752  13.162  20.556  0.00  0.00    +0.000 OA
BRANCH  31  33
ATOM     33  O   UNL     1      -6.992  12.682  22.672  0.00  0.00    +0.000 OA
BRANCH  33  35
ATOM     34  C   UNL     1      -7.232  14.834  23.781  0.00  0.00    +0.000 C 
ATOM     35  C   UNL     1      -7.915  13.554  23.339  0.00  0.00    +0.000 C 
ENDBRANCH  33  35
ENDBRANCH  31  33
ENDBRANCH   1  31
TORSDOF 6
ENDMDL
MODEL 9
REMARK VINA RESULT:      -5.9      0.864      1.460
REMARK  Name = 
REMARK  7 active torsions:
REMARK  status: ('A' for Active; 'I' for Inactive)
REMARK    1  A    between atoms: C_1  and  C_2
REMARK    2  A    between atoms: C_2  and  O_3
REMARK    3  A    between atoms: O_3  and  C_4
REMARK    4  A    between atoms: C_4  and  C_6
REMARK    5  A    between atoms: N_8  and  C_9
REMARK    6  A    between atoms: C_15  and  C_16
REMARK    7  A    between atoms: C_20  and  N_21
REMARK                            x       y       z     vdW  Elec       q    Type
REMARK                         _______ _______ _______ _____ _____    ______ ____
ROOT
ATOM      1  C   UNL     1       0.037  15.063  21.988  0.00  0.00    +0.000 C 
ATOM      2  O   UNL     1       0.578  13.733  21.937  0.00  0.00    +0.000 OA
ATOM      3  N   UNL     1      -0.541  12.868  21.915  0.00  0.00    +0.000 N 
ATOM      4  C   UNL     1      -1.650  13.469  22.668  0.00  0.00    +0.000 C 
ATOM      5  C   UNL     1      -1.338  14.982  22.634  0.00  0.00    +0.000 C 
ATOM      6  C   UNL     1      -1.398  15.486  24.090  0.00  0.00    +0.000 C 
ATOM      7  O   UNL     1      -0.689  15.145  25.020  0.00  0.00    +0.000 OA
ATOM      8  N   UNL     1      -2.456  16.382  24.187  0.00  0.00    +0.000 N 
ATOM      9  C   UNL     1      -3.036  16.615  22.951  0.00  0.00    +0.000 A 
ATOM     10  C   UNL     1      -4.114  17.427  22.669  0.00  0.00    +0.000 A 
ATOM     11  C   UNL     1      -4.547  17.479  21.340  0.00  0.00    +0.000 A 
ATOM     12  C   UNL     1      -3.871  16.764  20.338  0.00  0.00    +0.000 A 
ATOM     13  C   UNL     1      -2.756  15.983  20.645  0.00  0.00    +0.000 A 
ATOM     14  C   UNL     1      -2.374  15.880  21.972  0.00  0.00    +0.000 A 
ATOM     15  H   UNL     1      -2.708  16.840  25.051  0.00  0.00    +0.000 HD
ENDROOT
BRANCH   3  16
ATOM     16  C   UNL     1      -0.370  11.484  21.755  0.00  0.00    +0.000 A 
ATOM     17  C   UNL     1       0.057  10.894  20.551  0.00  0.00    +0.000 A 
ATOM     18  C   UNL     1       0.340   9.528  20.444  0.00  0.00    +0.000 A 
ATOM     19  C   UNL     1       0.168   8.699  21.543  0.00  0.00    +0.000 A 
ATOM     20  C   UNL     1      -0.281   9.242  22.742  0.00  0.00    +0.000 A 
ATOM     21  C   UNL     1      -0.543  10.618  22.845  0.00  0.00    +0.000 A 
ENDBRANCH   3  16
BRANCH   4  22
ATOM     22  C   UNL     1      -3.033  13.118  22.113  0.00  0.00    +0.000 A 
ATOM     23  C   UNL     1      -3.246  12.876  20.741  0.00  0.00    +0.000 A 
ATOM     24  C   UNL     1      -4.528  12.663  20.237  0.00  0.00    +0.000 A 
ATOM     25  C   UNL     1      -5.624  12.671  21.095  0.00  0.00    +0.000 A 
ATOM     26  C   UNL     1      -5.423  12.879  22.467  0.00  0.00    +0.000 A 
ATOM     27  C   UNL     1      -4.137  13.097  22.981  0.00  0.00    +0.000 A 
BRANCH  26  28
ATOM     28  N   UNL     1      -6.576  12.883  23.375  0.00  0.00    +0.000 N 
ATOM     29  O   UNL     1      -6.608  12.028  24.271  0.00  0.00    +0.000 OA
ATOM     30  O   UNL     1      -7.451  13.741  23.190  0.00  0.00    +0.000 OA
ENDBRANCH  26  28
ENDBRANCH   4  22
BRANCH   1  31
ATOM     31  C   UNL     1       0.963  16.120  22.610  0.00  0.00    +0.000 C 
ATOM     32  O   UNL     1       0.689  17.295  22.805  0.00  0.00    +0.000 OA
BRANCH  31  33
ATOM     33  O   UNL     1       2.120  15.509  23.019  0.00  0.00    +0.000 OA
BRANCH  33  35
ATOM     34  C   UNL     1       4.054  14.609  21.849  0.00  0.00    +0.000 C 
ATOM     35  C   UNL     1       3.331  15.852  22.330  0.00  0.00    +0.000 C 
ENDBRANCH  33  35
ENDBRANCH  31  33
ENDBRANCH   1  31
TORSDOF 6
ENDMDL
