MODEL 1
REMARK VINA RESULT:      -7.6      0.000      0.000
REMARK  Name = 
REMARK  13 active torsions:
REMARK  status: ('A' for Active; 'I' for Inactive)
REMARK    1  A    between atoms: C_1  and  C_2
REMARK    2  A    between atoms: C_4  and  C_5
REMARK    3  A    between atoms: C_5  and  C_6
REMARK    4  A    between atoms: C_6  and  C_7
REMARK    5  A    between atoms: C_7  and  O_9
REMARK    6  A    between atoms: C_12  and  C_13
REMARK    7  A    between atoms: C_16  and  C_17
REMARK    8  A    between atoms: C_20  and  O_21
REMARK    9  A    between atoms: O_21  and  C_22
REMARK   10  A    between atoms: C_22  and  C_23
REMARK   11  A    between atoms: C_23  and  C_24
REMARK   12  A    between atoms: C_23  and  C_25
REMARK   13  A    between atoms: C_26  and  C_27
REMARK                            x       y       z     vdW  Elec       q    Type
REMARK                         _______ _______ _______ _____ _____    ______ ____
ROOT
ATOM      1  C   UNL     1       2.651   7.291  18.644  0.00  0.00    +0.000 A 
ATOM      2  N   UNL     1       2.388   7.187  19.933  0.00  0.00    +0.000 NA
ATOM      3  N   UNL     1       1.560   8.192  20.391  0.00  0.00    +0.000 NA
ATOM      4  C   UNL     1       1.189   9.015  19.431  0.00  0.00    +0.000 A 
ATOM      5  S   UNL     1       1.844   8.615  17.896  0.00  0.00    +0.000 S 
ENDROOT
BRANCH   1  12
ATOM      6  C   UNL     1       1.919   4.415  18.212  0.00  0.00    +0.000 C 
ATOM      7  C   UNL     1       3.167   5.033  17.644  0.00  0.00    +0.000 A 
ATOM      8  C   UNL     1       4.024   4.222  16.876  0.00  0.00    +0.000 A 
ATOM      9  C   UNL     1       5.193   4.728  16.294  0.00  0.00    +0.000 A 
ATOM     10  C   UNL     1       5.530   6.063  16.517  0.00  0.00    +0.000 A 
ATOM     11  C   UNL     1       4.702   6.873  17.293  0.00  0.00    +0.000 A 
ATOM     12  C   UNL     1       3.505   6.389  17.854  0.00  0.00    +0.000 A 
BRANCH   9  13
ATOM     13  C   UNL     1       6.098   3.843  15.471  0.00  0.00    +0.000 C 
BRANCH  13  14
ATOM     14  C   UNL     1       5.934   4.070  13.969  0.00  0.00    +0.000 C 
BRANCH  14  15
ATOM     15  C   UNL     1       7.147   4.750  13.388  0.00  0.00    +0.000 C 
ATOM     16  O   UNL     1       7.879   5.524  13.984  0.00  0.00    +0.000 OA
BRANCH  15  17
ATOM     17  O   UNL     1       7.359   4.407  12.095  0.00  0.00    +0.000 OA
ATOM     18  H   UNL     1       6.544   4.183  11.607  0.00  0.00    +0.000 HD
ENDBRANCH  15  17
ENDBRANCH  14  15
ENDBRANCH  13  14
ENDBRANCH   9  13
ENDBRANCH   1  12
BRANCH   4  19
ATOM     19  C   UNL     1       0.356  10.207  19.616  0.00  0.00    +0.000 A 
ATOM     20  C   UNL     1       0.685  11.221  20.526  0.00  0.00    +0.000 A 
ATOM     21  C   UNL     1      -0.147  12.331  20.680  0.00  0.00    +0.000 A 
ATOM     22  C   UNL     1      -1.329  12.460  19.942  0.00  0.00    +0.000 A 
ATOM     23  C   UNL     1      -1.653  11.472  19.002  0.00  0.00    +0.000 A 
ATOM     24  C   UNL     1      -0.809  10.354  18.853  0.00  0.00    +0.000 A 
BRANCH  23  25
ATOM     25  C   UNL     1      -2.799  11.525  18.144  0.00  0.00    +0.000 C 
ATOM     26  N   UNL     1      -3.710  11.561  17.423  0.00  0.00    +0.000 NA
ENDBRANCH  23  25
BRANCH  22  27
ATOM     27  O   UNL     1      -2.002  13.613  20.242  0.00  0.00    +0.000 OA
BRANCH  27  28
ATOM     28  C   UNL     1      -1.951  14.088  21.585  0.00  0.00    +0.000 C 
BRANCH  28  29
ATOM     29  C   UNL     1      -3.355  14.071  22.202  0.00  0.00    +0.000 C 
ATOM     30  C   UNL     1      -3.732  12.692  22.744  0.00  0.00    +0.000 C 
ATOM     31  C   UNL     1      -3.430  15.122  23.307  0.00  0.00    +0.000 C 
ENDBRANCH  28  29
ENDBRANCH  27  28
ENDBRANCH  22  27
ENDBRANCH   4  19
TORSDOF 10
ENDMDL
MODEL 2
REMARK VINA RESULT:      -7.5      0.869      1.189
REMARK  Name = 
REMARK  13 active torsions:
REMARK  status: ('A' for Active; 'I' for Inactive)
REMARK    1  A    between atoms: C_1  and  C_2
REMARK    2  A    between atoms: C_4  and  C_5
REMARK    3  A    between atoms: C_5  and  C_6
REMARK    4  A    between atoms: C_6  and  C_7
REMARK    5  A    between atoms: C_7  and  O_9
REMARK    6  A    between atoms: C_12  and  C_13
REMARK    7  A    between atoms: C_16  and  C_17
REMARK    8  A    between atoms: C_20  and  O_21
REMARK    9  A    between atoms: O_21  and  C_22
REMARK   10  A    between atoms: C_22  and  C_23
REMARK   11  A    between atoms: C_23  and  C_24
REMARK   12  A    between atoms: C_23  and  C_25
REMARK   13  A    between atoms: C_26  and  C_27
REMARK                            x       y       z     vdW  Elec       q    Type
REMARK                         _______ _______ _______ _____ _____    ______ ____
ROOT
ATOM      1  C   UNL     1       2.700   7.115  18.628  0.00  0.00    +0.000 A 
ATOM      2  N   UNL     1       2.442   6.945  19.911  0.00  0.00    +0.000 NA
ATOM      3  N   UNL     1       1.650   7.948  20.433  0.00  0.00    +0.000 NA
ATOM      4  C   UNL     1       1.299   8.836  19.524  0.00  0.00    +0.000 A 
ATOM      5  S   UNL     1       1.931   8.505  17.964  0.00  0.00    +0.000 S 
ENDROOT
BRANCH   1  12
ATOM      6  C   UNL     1       1.971   4.239  18.190  0.00  0.00    +0.000 C 
ATOM      7  C   UNL     1       3.183   4.878  17.567  0.00  0.00    +0.000 A 
ATOM      8  C   UNL     1       4.006   4.087  16.743  0.00  0.00    +0.000 A 
ATOM      9  C   UNL     1       5.139   4.613  16.110  0.00  0.00    +0.000 A 
ATOM     10  C   UNL     1       5.475   5.947  16.337  0.00  0.00    +0.000 A 
ATOM     11  C   UNL     1       4.682   6.737  17.167  0.00  0.00    +0.000 A 
ATOM     12  C   UNL     1       3.520   6.233  17.781  0.00  0.00    +0.000 A 
BRANCH   9  13
ATOM     13  C   UNL     1       6.008   3.748  15.227  0.00  0.00    +0.000 C 
BRANCH  13  14
ATOM     14  C   UNL     1       6.335   4.415  13.892  0.00  0.00    +0.000 C 
BRANCH  14  15
ATOM     15  C   UNL     1       5.845   3.582  12.736  0.00  0.00    +0.000 C 
ATOM     16  O   UNL     1       4.693   3.536  12.334  0.00  0.00    +0.000 OA
BRANCH  15  17
ATOM     17  O   UNL     1       6.839   2.866  12.160  0.00  0.00    +0.000 OA
ATOM     18  H   UNL     1       6.525   2.117  11.618  0.00  0.00    +0.000 HD
ENDBRANCH  15  17
ENDBRANCH  14  15
ENDBRANCH  13  14
ENDBRANCH   9  13
ENDBRANCH   1  12
BRANCH   4  19
ATOM     19  C   UNL     1       0.506  10.041  19.785  0.00  0.00    +0.000 A 
ATOM     20  C   UNL     1       0.885  11.002  20.731  0.00  0.00    +0.000 A 
ATOM     21  C   UNL     1       0.090  12.127  20.956  0.00  0.00    +0.000 A 
ATOM     22  C   UNL     1      -1.105  12.323  20.254  0.00  0.00    +0.000 A 
ATOM     23  C   UNL     1      -1.480  11.389  19.278  0.00  0.00    +0.000 A 
ATOM     24  C   UNL     1      -0.672  10.256  19.058  0.00  0.00    +0.000 A 
BRANCH  23  25
ATOM     25  C   UNL     1      -2.644  11.513  18.452  0.00  0.00    +0.000 C 
ATOM     26  N   UNL     1      -3.606  11.618  17.809  0.00  0.00    +0.000 NA
ENDBRANCH  23  25
BRANCH  22  27
ATOM     27  O   UNL     1      -1.737  13.480  20.623  0.00  0.00    +0.000 OA
BRANCH  27  28
ATOM     28  C   UNL     1      -2.884  13.377  21.464  0.00  0.00    +0.000 C 
BRANCH  28  29
ATOM     29  C   UNL     1      -2.450  13.263  22.931  0.00  0.00    +0.000 C 
ATOM     30  C   UNL     1      -2.246  14.630  23.582  0.00  0.00    +0.000 C 
ATOM     31  C   UNL     1      -3.491  12.451  23.699  0.00  0.00    +0.000 C 
ENDBRANCH  28  29
ENDBRANCH  27  28
ENDBRANCH  22  27
ENDBRANCH   4  19
TORSDOF 10
ENDMDL
MODEL 3
REMARK VINA RESULT:      -7.5      1.371      2.012
REMARK  Name = 
REMARK  13 active torsions:
REMARK  status: ('A' for Active; 'I' for Inactive)
REMARK    1  A    between atoms: C_1  and  C_2
REMARK    2  A    between atoms: C_4  and  C_5
REMARK    3  A    between atoms: C_5  and  C_6
REMARK    4  A    between atoms: C_6  and  C_7
REMARK    5  A    between atoms: C_7  and  O_9
REMARK    6  A    between atoms: C_12  and  C_13
REMARK    7  A    between atoms: C_16  and  C_17
REMARK    8  A    between atoms: C_20  and  O_21
REMARK    9  A    between atoms: O_21  and  C_22
REMARK   10  A    between atoms: C_22  and  C_23
REMARK   11  A    between atoms: C_23  and  C_24
REMARK   12  A    between atoms: C_23  and  C_25
REMARK   13  A    between atoms: C_26  and  C_27
REMARK                            x       y       z     vdW  Elec       q    Type
REMARK                         _______ _______ _______ _____ _____    ______ ____
ROOT
ATOM      1  C   UNL     1       2.634   7.302  18.696  0.00  0.00    +0.000 A 
ATOM      2  N   UNL     1       2.310   7.155  19.967  0.00  0.00    +0.000 NA
ATOM      3  N   UNL     1       1.506   8.176  20.434  0.00  0.00    +0.000 NA
ATOM      4  C   UNL     1       1.214   9.054  19.496  0.00  0.00    +0.000 A 
ATOM      5  S   UNL     1       1.919   8.691  17.974  0.00  0.00    +0.000 S 
ENDROOT
BRANCH   1  12
ATOM      6  C   UNL     1       1.830   4.463  18.163  0.00  0.00    +0.000 C 
ATOM      7  C   UNL     1       3.111   5.058  17.646  0.00  0.00    +0.000 A 
ATOM      8  C   UNL     1       3.964   4.244  16.878  0.00  0.00    +0.000 A 
ATOM      9  C   UNL     1       5.164   4.730  16.343  0.00  0.00    +0.000 A 
ATOM     10  C   UNL     1       5.533   6.047  16.612  0.00  0.00    +0.000 A 
ATOM     11  C   UNL     1       4.708   6.860  17.389  0.00  0.00    +0.000 A 
ATOM     12  C   UNL     1       3.482   6.396  17.904  0.00  0.00    +0.000 A 
BRANCH   9  13
ATOM     13  C   UNL     1       6.065   3.841  15.518  0.00  0.00    +0.000 C 
BRANCH  13  14
ATOM     14  C   UNL     1       5.885   4.054  14.016  0.00  0.00    +0.000 C 
BRANCH  14  15
ATOM     15  C   UNL     1       7.094   4.723  13.415  0.00  0.00    +0.000 C 
ATOM     16  O   UNL     1       7.857   5.470  14.007  0.00  0.00    +0.000 OA
BRANCH  15  17
ATOM     17  O   UNL     1       7.264   4.404  12.111  0.00  0.00    +0.000 OA
ATOM     18  H   UNL     1       8.074   3.889  11.932  0.00  0.00    +0.000 HD
ENDBRANCH  15  17
ENDBRANCH  14  15
ENDBRANCH  13  14
ENDBRANCH   9  13
ENDBRANCH   1  12
BRANCH   4  19
ATOM     19  C   UNL     1       0.425  10.274  19.699  0.00  0.00    +0.000 A 
ATOM     20  C   UNL     1      -0.888  10.407  19.231  0.00  0.00    +0.000 A 
ATOM     21  C   UNL     1      -1.595  11.593  19.435  0.00  0.00    +0.000 A 
ATOM     22  C   UNL     1      -1.015  12.679  20.101  0.00  0.00    +0.000 A 
ATOM     23  C   UNL     1       0.286  12.548  20.606  0.00  0.00    +0.000 A 
ATOM     24  C   UNL     1       0.993  11.348  20.396  0.00  0.00    +0.000 A 
BRANCH  23  25
ATOM     25  C   UNL     1       0.961  13.563  21.359  0.00  0.00    +0.000 C 
ATOM     26  N   UNL     1       1.537  14.373  21.962  0.00  0.00    +0.000 NA
ENDBRANCH  23  25
BRANCH  22  27
ATOM     27  O   UNL     1      -1.869  13.745  20.193  0.00  0.00    +0.000 OA
BRANCH  27  28
ATOM     28  C   UNL     1      -2.215  14.215  21.494  0.00  0.00    +0.000 C 
BRANCH  28  29
ATOM     29  C   UNL     1      -3.633  13.757  21.858  0.00  0.00    +0.000 C 
ATOM     30  C   UNL     1      -4.494  13.504  20.620  0.00  0.00    +0.000 C 
ATOM     31  C   UNL     1      -3.547  12.498  22.719  0.00  0.00    +0.000 C 
ENDBRANCH  28  29
ENDBRANCH  27  28
ENDBRANCH  22  27
ENDBRANCH   4  19
TORSDOF 10
ENDMDL
MODEL 4
REMARK VINA RESULT:      -7.4      1.579      1.998
REMARK  Name = 
REMARK  13 active torsions:
REMARK  status: ('A' for Active; 'I' for Inactive)
REMARK    1  A    between atoms: C_1  and  C_2
REMARK    2  A    between atoms: C_4  and  C_5
REMARK    3  A    between atoms: C_5  and  C_6
REMARK    4  A    between atoms: C_6  and  C_7
REMARK    5  A    between atoms: C_7  and  O_9
REMARK    6  A    between atoms: C_12  and  C_13
REMARK    7  A    between atoms: C_16  and  C_17
REMARK    8  A    between atoms: C_20  and  O_21
REMARK    9  A    between atoms: O_21  and  C_22
REMARK   10  A    between atoms: C_22  and  C_23
REMARK   11  A    between atoms: C_23  and  C_24
REMARK   12  A    between atoms: C_23  and  C_25
REMARK   13  A    between atoms: C_26  and  C_27
REMARK                            x       y       z     vdW  Elec       q    Type
REMARK                         _______ _______ _______ _____ _____    ______ ____
ROOT
ATOM      1  C   UNL     1       2.579   6.437  19.215  0.00  0.00    +0.000 A 
ATOM      2  N   UNL     1       2.123   5.883  20.323  0.00  0.00    +0.000 NA
ATOM      3  N   UNL     1       1.380   6.758  21.090  0.00  0.00    +0.000 NA
ATOM      4  C   UNL     1       1.263   7.944  20.528  0.00  0.00    +0.000 A 
ATOM      5  S   UNL     1       2.070   8.070  19.019  0.00  0.00    +0.000 S 
ENDROOT
BRANCH   1  12
ATOM      6  C   UNL     1       1.828   3.775  18.057  0.00  0.00    +0.000 C 
ATOM      7  C   UNL     1       3.061   4.528  17.638  0.00  0.00    +0.000 A 
ATOM      8  C   UNL     1       3.895   3.954  16.660  0.00  0.00    +0.000 A 
ATOM      9  C   UNL     1       5.049   4.602  16.201  0.00  0.00    +0.000 A 
ATOM     10  C   UNL     1       5.394   5.832  16.760  0.00  0.00    +0.000 A 
ATOM     11  C   UNL     1       4.590   6.403  17.746  0.00  0.00    +0.000 A 
ATOM     12  C   UNL     1       3.408   5.781  18.191  0.00  0.00    +0.000 A 
BRANCH   9  13
ATOM     13  C   UNL     1       5.928   3.971  15.148  0.00  0.00    +0.000 C 
BRANCH  13  14
ATOM     14  C   UNL     1       7.099   4.867  14.748  0.00  0.00    +0.000 C 
BRANCH  14  15
ATOM     15  C   UNL     1       7.338   4.816  13.261  0.00  0.00    +0.000 C 
ATOM     16  O   UNL     1       6.804   4.040  12.484  0.00  0.00    +0.000 OA
BRANCH  15  17
ATOM     17  O   UNL     1       8.231   5.747  12.851  0.00  0.00    +0.000 OA
ATOM     18  H   UNL     1       7.906   6.665  12.923  0.00  0.00    +0.000 HD
ENDBRANCH  15  17
ENDBRANCH  14  15
ENDBRANCH  13  14
ENDBRANCH   9  13
ENDBRANCH   1  12
BRANCH   4  19
ATOM     19  C   UNL     1       0.577   9.096  21.124  0.00  0.00    +0.000 A 
ATOM     20  C   UNL     1       0.157   9.113  22.460  0.00  0.00    +0.000 A 
ATOM     21  C   UNL     1      -0.505  10.226  22.980  0.00  0.00    +0.000 A 
ATOM     22  C   UNL     1      -0.774  11.347  22.186  0.00  0.00    +0.000 A 
ATOM     23  C   UNL     1      -0.328  11.359  20.857  0.00  0.00    +0.000 A 
ATOM     24  C   UNL     1       0.339  10.232  20.340  0.00  0.00    +0.000 A 
BRANCH  23  25
ATOM     25  C   UNL     1      -0.486  12.471  19.967  0.00  0.00    +0.000 C 
ATOM     26  N   UNL     1      -0.628  13.390  19.270  0.00  0.00    +0.000 NA
ENDBRANCH  23  25
BRANCH  22  27
ATOM     27  O   UNL     1      -1.433  12.325  22.880  0.00  0.00    +0.000 OA
BRANCH  27  28
ATOM     28  C   UNL     1      -2.859  12.319  22.854  0.00  0.00    +0.000 C 
BRANCH  28  29
ATOM     29  C   UNL     1      -3.409  12.953  24.138  0.00  0.00    +0.000 C 
ATOM     30  C   UNL     1      -2.996  14.418  24.283  0.00  0.00    +0.000 C 
ATOM     31  C   UNL     1      -4.931  12.820  24.150  0.00  0.00    +0.000 C 
ENDBRANCH  28  29
ENDBRANCH  27  28
ENDBRANCH  22  27
ENDBRANCH   4  19
TORSDOF 10
ENDMDL
MODEL 5
REMARK VINA RESULT:      -7.4      1.542      1.999
REMARK  Name = 
REMARK  13 active torsions:
REMARK  status: ('A' for Active; 'I' for Inactive)
REMARK    1  A    between atoms: C_1  and  C_2
REMARK    2  A    between atoms: C_4  and  C_5
REMARK    3  A    between atoms: C_5  and  C_6
REMARK    4  A    between atoms: C_6  and  C_7
REMARK    5  A    between atoms: C_7  and  O_9
REMARK    6  A    between atoms: C_12  and  C_13
REMARK    7  A    between atoms: C_16  and  C_17
REMARK    8  A    between atoms: C_20  and  O_21
REMARK    9  A    between atoms: O_21  and  C_22
REMARK   10  A    between atoms: C_22  and  C_23
REMARK   11  A    between atoms: C_23  and  C_24
REMARK   12  A    between atoms: C_23  and  C_25
REMARK   13  A    between atoms: C_26  and  C_27
REMARK                            x       y       z     vdW  Elec       q    Type
REMARK                         _______ _______ _______ _____ _____    ______ ____
ROOT
ATOM      1  C   UNL     1       2.766   6.393  19.036  0.00  0.00    +0.000 A 
ATOM      2  N   UNL     1       2.328   5.896  20.178  0.00  0.00    +0.000 NA
ATOM      3  N   UNL     1       1.585   6.803  20.905  0.00  0.00    +0.000 NA
ATOM      4  C   UNL     1       1.450   7.956  20.281  0.00  0.00    +0.000 A 
ATOM      5  S   UNL     1       2.238   8.008  18.758  0.00  0.00    +0.000 S 
ENDROOT
BRANCH   1  12
ATOM      6  C   UNL     1       2.070   3.634  18.087  0.00  0.00    +0.000 C 
ATOM      7  C   UNL     1       3.269   4.391  17.585  0.00  0.00    +0.000 A 
ATOM      8  C   UNL     1       4.095   3.774  16.627  0.00  0.00    +0.000 A 
ATOM      9  C   UNL     1       5.217   4.421  16.094  0.00  0.00    +0.000 A 
ATOM     10  C   UNL     1       5.538   5.697  16.556  0.00  0.00    +0.000 A 
ATOM     11  C   UNL     1       4.741   6.313  17.521  0.00  0.00    +0.000 A 
ATOM     12  C   UNL     1       3.590   5.690  18.039  0.00  0.00    +0.000 A 
BRANCH   9  13
ATOM     13  C   UNL     1       6.090   3.743  15.065  0.00  0.00    +0.000 C 
BRANCH  13  14
ATOM     14  C   UNL     1       6.089   4.473  13.722  0.00  0.00    +0.000 C 
BRANCH  14  15
ATOM     15  C   UNL     1       5.739   3.535  12.596  0.00  0.00    +0.000 C 
ATOM     16  O   UNL     1       4.651   3.459  12.050  0.00  0.00    +0.000 OA
BRANCH  15  17
ATOM     17  O   UNL     1       6.786   2.758  12.229  0.00  0.00    +0.000 OA
ATOM     18  H   UNL     1       6.901   1.963  12.783  0.00  0.00    +0.000 HD
ENDBRANCH  15  17
ENDBRANCH  14  15
ENDBRANCH  13  14
ENDBRANCH   9  13
ENDBRANCH   1  12
BRANCH   4  19
ATOM     19  C   UNL     1       0.760   9.132  20.823  0.00  0.00    +0.000 A 
ATOM     20  C   UNL     1       0.382   9.230  22.168  0.00  0.00    +0.000 A 
ATOM     21  C   UNL     1      -0.286  10.363  22.635  0.00  0.00    +0.000 A 
ATOM     22  C   UNL     1      -0.603  11.423  21.779  0.00  0.00    +0.000 A 
ATOM     23  C   UNL     1      -0.199  11.356  20.438  0.00  0.00    +0.000 A 
ATOM     24  C   UNL     1       0.474  10.209  19.974  0.00  0.00    +0.000 A 
BRANCH  23  25
ATOM     25  C   UNL     1      -0.409  12.403  19.482  0.00  0.00    +0.000 C 
ATOM     26  N   UNL     1      -0.599  13.234  18.693  0.00  0.00    +0.000 NA
ENDBRANCH  23  25
BRANCH  22  27
ATOM     27  O   UNL     1      -1.260  12.433  22.428  0.00  0.00    +0.000 OA
BRANCH  27  28
ATOM     28  C   UNL     1      -2.662  12.287  22.647  0.00  0.00    +0.000 C 
BRANCH  28  29
ATOM     29  C   UNL     1      -3.427  13.377  21.885  0.00  0.00    +0.000 C 
ATOM     30  C   UNL     1      -2.578  14.626  21.653  0.00  0.00    +0.000 C 
ATOM     31  C   UNL     1      -3.919  12.807  20.556  0.00  0.00    +0.000 C 
ENDBRANCH  28  29
ENDBRANCH  27  28
ENDBRANCH  22  27
ENDBRANCH   4  19
TORSDOF 10
ENDMDL
MODEL 6
REMARK VINA RESULT:      -7.3      2.692     11.215
REMARK  Name = 
REMARK  13 active torsions:
REMARK  status: ('A' for Active; 'I' for Inactive)
REMARK    1  A    between atoms: C_1  and  C_2
REMARK    2  A    between atoms: C_4  and  C_5
REMARK    3  A    between atoms: C_5  and  C_6
REMARK    4  A    between atoms: C_6  and  C_7
REMARK    5  A    between atoms: C_7  and  O_9
REMARK    6  A    between atoms: C_12  and  C_13
REMARK    7  A    between atoms: C_16  and  C_17
REMARK    8  A    between atoms: C_20  and  O_21
REMARK    9  A    between atoms: O_21  and  C_22
REMARK   10  A    between atoms: C_22  and  C_23
REMARK   11  A    between atoms: C_23  and  C_24
REMARK   12  A    between atoms: C_23  and  C_25
REMARK   13  A    between atoms: C_26  and  C_27
REMARK                            x       y       z     vdW  Elec       q    Type
REMARK                         _______ _______ _______ _____ _____    ______ ____
ROOT
ATOM      1  C   UNL     1       0.126  10.786  19.998  0.00  0.00    +0.000 A 
ATOM      2  N   UNL     1       0.728  11.116  18.871  0.00  0.00    +0.000 NA
ATOM      3  N   UNL     1       1.547  10.114  18.390  0.00  0.00    +0.000 NA
ATOM      4  C   UNL     1       1.518   9.035  19.147  0.00  0.00    +0.000 A 
ATOM      5  S   UNL     1       0.490   9.184  20.513  0.00  0.00    +0.000 S 
ENDROOT
BRANCH   1  12
ATOM      6  C   UNL     1      -2.428  11.811  18.806  0.00  0.00    +0.000 C 
ATOM      7  C   UNL     1      -2.006  12.116  20.218  0.00  0.00    +0.000 A 
ATOM      8  C   UNL     1      -2.851  12.917  21.009  0.00  0.00    +0.000 A 
ATOM      9  C   UNL     1      -2.540  13.228  22.338  0.00  0.00    +0.000 A 
ATOM     10  C   UNL     1      -1.341  12.759  22.874  0.00  0.00    +0.000 A 
ATOM     11  C   UNL     1      -0.483  11.982  22.096  0.00  0.00    +0.000 A 
ATOM     12  C   UNL     1      -0.800  11.631  20.769  0.00  0.00    +0.000 A 
BRANCH   9  13
ATOM     13  C   UNL     1      -3.461  14.087  23.172  0.00  0.00    +0.000 C 
BRANCH  13  14
ATOM     14  C   UNL     1      -4.228  13.280  24.219  0.00  0.00    +0.000 C 
BRANCH  14  15
ATOM     15  C   UNL     1      -5.621  12.958  23.742  0.00  0.00    +0.000 C 
ATOM     16  O   UNL     1      -5.896  12.354  22.718  0.00  0.00    +0.000 OA
BRANCH  15  17
ATOM     17  O   UNL     1      -6.573  13.413  24.590  0.00  0.00    +0.000 OA
ATOM     18  H   UNL     1      -7.011  14.232  24.289  0.00  0.00    +0.000 HD
ENDBRANCH  15  17
ENDBRANCH  14  15
ENDBRANCH  13  14
ENDBRANCH   9  13
ENDBRANCH   1  12
BRANCH   4  19
ATOM     19  C   UNL     1       2.319   7.827  18.924  0.00  0.00    +0.000 A 
ATOM     20  C   UNL     1       2.274   6.724  19.787  0.00  0.00    +0.000 A 
ATOM     21  C   UNL     1       3.067   5.602  19.543  0.00  0.00    +0.000 A 
ATOM     22  C   UNL     1       3.929   5.547  18.442  0.00  0.00    +0.000 A 
ATOM     23  C   UNL     1       3.959   6.628  17.550  0.00  0.00    +0.000 A 
ATOM     24  C   UNL     1       3.157   7.758  17.804  0.00  0.00    +0.000 A 
BRANCH  23  25
ATOM     25  C   UNL     1       4.751   6.663  16.356  0.00  0.00    +0.000 C 
ATOM     26  N   UNL     1       5.410   6.715  15.401  0.00  0.00    +0.000 NA
ENDBRANCH  23  25
BRANCH  22  27
ATOM     27  O   UNL     1       4.619   4.367  18.384  0.00  0.00    +0.000 OA
BRANCH  27  28
ATOM     28  C   UNL     1       4.181   3.381  17.451  0.00  0.00    +0.000 C 
BRANCH  28  29
ATOM     29  C   UNL     1       3.603   2.172  18.198  0.00  0.00    +0.000 C 
ATOM     30  C   UNL     1       4.120   2.078  19.633  0.00  0.00    +0.000 C 
ATOM     31  C   UNL     1       2.078   2.257  18.182  0.00  0.00    +0.000 C 
ENDBRANCH  28  29
ENDBRANCH  27  28
ENDBRANCH  22  27
ENDBRANCH   4  19
TORSDOF 10
ENDMDL
MODEL 7
REMARK VINA RESULT:      -7.3      1.813     11.105
REMARK  Name = 
REMARK  13 active torsions:
REMARK  status: ('A' for Active; 'I' for Inactive)
REMARK    1  A    between atoms: C_1  and  C_2
REMARK    2  A    between atoms: C_4  and  C_5
REMARK    3  A    between atoms: C_5  and  C_6
REMARK    4  A    between atoms: C_6  and  C_7
REMARK    5  A    between atoms: C_7  and  O_9
REMARK    6  A    between atoms: C_12  and  C_13
REMARK    7  A    between atoms: C_16  and  C_17
REMARK    8  A    between atoms: C_20  and  O_21
REMARK    9  A    between atoms: O_21  and  C_22
REMARK   10  A    between atoms: C_22  and  C_23
REMARK   11  A    between atoms: C_23  and  C_24
REMARK   12  A    between atoms: C_23  and  C_25
REMARK   13  A    between atoms: C_26  and  C_27
REMARK                            x       y       z     vdW  Elec       q    Type
REMARK                         _______ _______ _______ _____ _____    ______ ____
ROOT
ATOM      1  C   UNL     1       1.147   9.059  19.706  0.00  0.00    +0.000 A 
ATOM      2  N   UNL     1       1.424   8.122  20.594  0.00  0.00    +0.000 NA
ATOM      3  N   UNL     1       2.230   7.125  20.084  0.00  0.00    +0.000 NA
ATOM      4  C   UNL     1       2.573   7.347  18.831  0.00  0.00    +0.000 A 
ATOM      5  S   UNL     1       1.916   8.796  18.188  0.00  0.00    +0.000 S 
ENDROOT
BRANCH   1  12
ATOM      6  C   UNL     1      -1.070   9.791  17.825  0.00  0.00    +0.000 C 
ATOM      7  C   UNL     1      -0.738  10.601  19.049  0.00  0.00    +0.000 A 
ATOM      8  C   UNL     1      -1.505  11.750  19.318  0.00  0.00    +0.000 A 
ATOM      9  C   UNL     1      -1.272  12.544  20.449  0.00  0.00    +0.000 A 
ATOM     10  C   UNL     1      -0.228  12.200  21.305  0.00  0.00    +0.000 A 
ATOM     11  C   UNL     1       0.555  11.077  21.040  0.00  0.00    +0.000 A 
ATOM     12  C   UNL     1       0.310  10.249  19.928  0.00  0.00    +0.000 A 
BRANCH   9  13
ATOM     13  C   UNL     1      -2.109  13.771  20.722  0.00  0.00    +0.000 C 
BRANCH  13  14
ATOM     14  C   UNL     1      -2.784  13.728  22.092  0.00  0.00    +0.000 C 
BRANCH  14  15
ATOM     15  C   UNL     1      -4.014  12.859  22.063  0.00  0.00    +0.000 C 
ATOM     16  O   UNL     1      -4.504  12.293  23.027  0.00  0.00    +0.000 OA
BRANCH  15  17
ATOM     17  O   UNL     1      -4.548  12.764  20.823  0.00  0.00    +0.000 OA
ATOM     18  H   UNL     1      -5.322  12.171  20.769  0.00  0.00    +0.000 HD
ENDBRANCH  15  17
ENDBRANCH  14  15
ENDBRANCH  13  14
ENDBRANCH   9  13
ENDBRANCH   1  12
BRANCH   4  19
ATOM     19  C   UNL     1       3.378   6.443  18.003  0.00  0.00    +0.000 A 
ATOM     20  C   UNL     1       4.328   6.908  17.085  0.00  0.00    +0.000 A 
ATOM     21  C   UNL     1       5.060   6.009  16.308  0.00  0.00    +0.000 A 
ATOM     22  C   UNL     1       4.865   4.628  16.416  0.00  0.00    +0.000 A 
ATOM     23  C   UNL     1       3.943   4.146  17.357  0.00  0.00    +0.000 A 
ATOM     24  C   UNL     1       3.207   5.059  18.137  0.00  0.00    +0.000 A 
BRANCH  23  25
ATOM     25  C   UNL     1       3.702   2.755  17.605  0.00  0.00    +0.000 C 
ATOM     26  N   UNL     1       3.484   1.636  17.827  0.00  0.00    +0.000 NA
ENDBRANCH  23  25
BRANCH  22  27
ATOM     27  O   UNL     1       5.674   3.923  15.568  0.00  0.00    +0.000 OA
BRANCH  27  28
ATOM     28  C   UNL     1       6.222   4.607  14.443  0.00  0.00    +0.000 C 
BRANCH  28  29
ATOM     29  C   UNL     1       6.225   3.683  13.218  0.00  0.00    +0.000 C 
ATOM     30  C   UNL     1       4.842   3.565  12.579  0.00  0.00    +0.000 C 
ATOM     31  C   UNL     1       7.243   4.200  12.203  0.00  0.00    +0.000 C 
ENDBRANCH  28  29
ENDBRANCH  27  28
ENDBRANCH  22  27
ENDBRANCH   4  19
TORSDOF 10
ENDMDL
MODEL 8
REMARK VINA RESULT:      -7.3      1.682      2.170
REMARK  Name = 
REMARK  13 active torsions:
REMARK  status: ('A' for Active; 'I' for Inactive)
REMARK    1  A    between atoms: C_1  and  C_2
REMARK    2  A    between atoms: C_4  and  C_5
REMARK    3  A    between atoms: C_5  and  C_6
REMARK    4  A    between atoms: C_6  and  C_7
REMARK    5  A    between atoms: C_7  and  O_9
REMARK    6  A    between atoms: C_12  and  C_13
REMARK    7  A    between atoms: C_16  and  C_17
REMARK    8  A    between atoms: C_20  and  O_21
REMARK    9  A    between atoms: O_21  and  C_22
REMARK   10  A    between atoms: C_22  and  C_23
REMARK   11  A    between atoms: C_23  and  C_24
REMARK   12  A    between atoms: C_23  and  C_25
REMARK   13  A    between atoms: C_26  and  C_27
REMARK                            x       y       z     vdW  Elec       q    Type
REMARK                         _______ _______ _______ _____ _____    ______ ____
ROOT
ATOM      1  C   UNL     1       3.162   6.162  18.556  0.00  0.00    +0.000 A 
ATOM      2  N   UNL     1       2.840   5.615  19.713  0.00  0.00    +0.000 NA
ATOM      3  N   UNL     1       2.109   6.463  20.520  0.00  0.00    +0.000 NA
ATOM      4  C   UNL     1       1.865   7.622  19.940  0.00  0.00    +0.000 A 
ATOM      5  S   UNL     1       2.531   7.752  18.364  0.00  0.00    +0.000 S 
ENDROOT
BRANCH   1  12
ATOM      6  C   UNL     1       2.942   3.228  17.975  0.00  0.00    +0.000 C 
ATOM      7  C   UNL     1       3.844   4.148  17.198  0.00  0.00    +0.000 A 
ATOM      8  C   UNL     1       4.615   3.603  16.154  0.00  0.00    +0.000 A 
ATOM      9  C   UNL     1       5.462   4.397  15.371  0.00  0.00    +0.000 A 
ATOM     10  C   UNL     1       5.567   5.756  15.663  0.00  0.00    +0.000 A 
ATOM     11  C   UNL     1       4.826   6.307  16.709  0.00  0.00    +0.000 A 
ATOM     12  C   UNL     1       3.943   5.529  17.481  0.00  0.00    +0.000 A 
BRANCH   9  13
ATOM     13  C   UNL     1       6.279   3.794  14.253  0.00  0.00    +0.000 C 
BRANCH  13  14
ATOM     14  C   UNL     1       5.832   4.275  12.874  0.00  0.00    +0.000 C 
BRANCH  14  15
ATOM     15  C   UNL     1       5.437   3.115  11.996  0.00  0.00    +0.000 C 
ATOM     16  O   UNL     1       6.147   2.161  11.723  0.00  0.00    +0.000 OA
BRANCH  15  17
ATOM     17  O   UNL     1       4.174   3.233  11.525  0.00  0.00    +0.000 OA
ATOM     18  H   UNL     1       3.604   3.816  12.062  0.00  0.00    +0.000 HD
ENDBRANCH  15  17
ENDBRANCH  14  15
ENDBRANCH  13  14
ENDBRANCH   9  13
ENDBRANCH   1  12
BRANCH   4  19
ATOM     19  C   UNL     1       1.159   8.745  20.564  0.00  0.00    +0.000 A 
ATOM     20  C   UNL     1       1.026   8.873  21.953  0.00  0.00    +0.000 A 
ATOM     21  C   UNL     1       0.332   9.952  22.501  0.00  0.00    +0.000 A 
ATOM     22  C   UNL     1      -0.256  10.927  21.687  0.00  0.00    +0.000 A 
ATOM     23  C   UNL     1      -0.101  10.832  20.297  0.00  0.00    +0.000 A 
ATOM     24  C   UNL     1       0.601   9.740  19.751  0.00  0.00    +0.000 A 
BRANCH  23  25
ATOM     25  C   UNL     1      -0.601  11.800  19.366  0.00  0.00    +0.000 C 
ATOM     26  N   UNL     1      -0.976  12.600  18.611  0.00  0.00    +0.000 NA
ENDBRANCH  23  25
BRANCH  22  27
ATOM     27  O   UNL     1      -0.892  11.895  22.416  0.00  0.00    +0.000 OA
BRANCH  27  28
ATOM     28  C   UNL     1      -1.990  11.501  23.236  0.00  0.00    +0.000 C 
BRANCH  28  29
ATOM     29  C   UNL     1      -3.228  12.339  22.891  0.00  0.00    +0.000 C 
ATOM     30  C   UNL     1      -4.024  12.735  24.135  0.00  0.00    +0.000 C 
ATOM     31  C   UNL     1      -2.792  13.581  22.115  0.00  0.00    +0.000 C 
ENDBRANCH  28  29
ENDBRANCH  27  28
ENDBRANCH  22  27
ENDBRANCH   4  19
TORSDOF 10
ENDMDL
MODEL 9
REMARK VINA RESULT:      -7.3      1.570      1.952
REMARK  Name = 
REMARK  13 active torsions:
REMARK  status: ('A' for Active; 'I' for Inactive)
REMARK    1  A    between atoms: C_1  and  C_2
REMARK    2  A    between atoms: C_4  and  C_5
REMARK    3  A    between atoms: C_5  and  C_6
REMARK    4  A    between atoms: C_6  and  C_7
REMARK    5  A    between atoms: C_7  and  O_9
REMARK    6  A    between atoms: C_12  and  C_13
REMARK    7  A    between atoms: C_16  and  C_17
REMARK    8  A    between atoms: C_20  and  O_21
REMARK    9  A    between atoms: O_21  and  C_22
REMARK   10  A    between atoms: C_22  and  C_23
REMARK   11  A    between atoms: C_23  and  C_24
REMARK   12  A    between atoms: C_23  and  C_25
REMARK   13  A    between atoms: C_26  and  C_27
REMARK                            x       y       z     vdW  Elec       q    Type
REMARK                         _______ _______ _______ _____ _____    ______ ____
ROOT
ATOM      1  C   UNL     1       3.192   6.421  18.614  0.00  0.00    +0.000 A 
ATOM      2  N   UNL     1       2.872   5.936  19.800  0.00  0.00    +0.000 NA
ATOM      3  N   UNL     1       2.053   6.783  20.520  0.00  0.00    +0.000 NA
ATOM      4  C   UNL     1       1.745   7.874  19.848  0.00  0.00    +0.000 A 
ATOM      5  S   UNL     1       2.452   7.941  18.286  0.00  0.00    +0.000 S 
ENDROOT
BRANCH   1  12
ATOM      6  C   UNL     1       2.560   3.699  17.526  0.00  0.00    +0.000 C 
ATOM      7  C   UNL     1       3.762   4.492  17.092  0.00  0.00    +0.000 A 
ATOM      8  C   UNL     1       4.624   3.927  16.133  0.00  0.00    +0.000 A 
ATOM      9  C   UNL     1       5.752   4.611  15.662  0.00  0.00    +0.000 A 
ATOM     10  C   UNL     1       6.042   5.869  16.188  0.00  0.00    +0.000 A 
ATOM     11  C   UNL     1       5.210   6.432  17.155  0.00  0.00    +0.000 A 
ATOM     12  C   UNL     1       4.053   5.773  17.612  0.00  0.00    +0.000 A 
BRANCH   9  13
ATOM     13  C   UNL     1       6.663   3.990  14.629  0.00  0.00    +0.000 C 
BRANCH  13  14
ATOM     14  C   UNL     1       6.372   4.488  13.215  0.00  0.00    +0.000 C 
BRANCH  14  15
ATOM     15  C   UNL     1       5.735   3.407  12.379  0.00  0.00    +0.000 C 
ATOM     16  O   UNL     1       4.580   3.406  11.985  0.00  0.00    +0.000 OA
BRANCH  15  17
ATOM     17  O   UNL     1       6.597   2.403  12.092  0.00  0.00    +0.000 OA
ATOM     18  H   UNL     1       6.400   1.568  12.558  0.00  0.00    +0.000 HD
ENDBRANCH  15  17
ENDBRANCH  14  15
ENDBRANCH  13  14
ENDBRANCH   9  13
ENDBRANCH   1  12
BRANCH   4  19
ATOM     19  C   UNL     1       0.936   8.983  20.366  0.00  0.00    +0.000 A 
ATOM     20  C   UNL     1       0.576   9.085  21.716  0.00  0.00    +0.000 A 
ATOM     21  C   UNL     1      -0.208  10.150  22.161  0.00  0.00    +0.000 A 
ATOM     22  C   UNL     1      -0.660  11.138  21.278  0.00  0.00    +0.000 A 
ATOM     23  C   UNL     1      -0.278  11.068  19.931  0.00  0.00    +0.000 A 
ATOM     24  C   UNL     1       0.513   9.990  19.490  0.00  0.00    +0.000 A 
BRANCH  23  25
ATOM     25  C   UNL     1      -0.623  12.051  18.947  0.00  0.00    +0.000 C 
ATOM     26  N   UNL     1      -0.881  12.868  18.162  0.00  0.00    +0.000 NA
ENDBRANCH  23  25
BRANCH  22  27
ATOM     27  O   UNL     1      -1.415  12.089  21.909  0.00  0.00    +0.000 OA
BRANCH  27  28
ATOM     28  C   UNL     1      -0.737  13.185  22.519  0.00  0.00    +0.000 C 
BRANCH  28  29
ATOM     29  C   UNL     1      -1.659  13.871  23.535  0.00  0.00    +0.000 C 
ATOM     30  C   UNL     1      -1.127  15.237  23.969  0.00  0.00    +0.000 C 
ATOM     31  C   UNL     1      -3.056  14.007  22.931  0.00  0.00    +0.000 C 
ENDBRANCH  28  29
ENDBRANCH  27  28
ENDBRANCH  22  27
ENDBRANCH   4  19
TORSDOF 10
ENDMDL
