MODEL 1
REMARK VINA RESULT:      -7.0      0.000      0.000
REMARK  Name = 
REMARK  4 active torsions:
REMARK  status: ('A' for Active; 'I' for Inactive)
REMARK    1  A    between atoms: C_1  and  O_2
REMARK    2  A    between atoms: O_2  and  C_3
REMARK    3  A    between atoms: C_8  and  C_9
REMARK    4  A    between atoms: C_9  and  O_11
REMARK                            x       y       z     vdW  Elec       q    Type
REMARK                         _______ _______ _______ _____ _____    ______ ____
ROOT
ATOM      1  C   UNL     1       2.092   3.559  19.118  0.00  0.00    +0.000 A 
ATOM      2  C   UNL     1       2.454   2.289  18.617  0.00  0.00    +0.000 A 
ATOM      3  C   UNL     1       3.482   2.114  17.666  0.00  0.00    +0.000 A 
ATOM      4  C   UNL     1       4.114   3.275  17.248  0.00  0.00    +0.000 A 
ATOM      5  O   UNL     1       5.138   3.412  16.354  0.00  0.00    +0.000 OA
ATOM      6  C   UNL     1       5.425   4.767  16.263  0.00  0.00    +0.000 A 
ATOM      7  C   UNL     1       4.577   5.474  17.094  0.00  0.00    +0.000 A 
ATOM      8  C   UNL     1       3.757   4.515  17.714  0.00  0.00    +0.000 A 
ATOM      9  C   UNL     1       2.730   4.711  18.638  0.00  0.00    +0.000 A 
ATOM     10  C   UNL     1       2.482   6.133  19.071  0.00  0.00    +0.000 C 
ATOM     11  C   UNL     1       2.947   7.150  17.979  0.00  0.00    +0.000 C 
ATOM     12  C   UNL     1       4.387   6.913  17.426  0.00  0.00    +0.000 C 
ENDROOT
BRANCH   1  14
ATOM     13  C   UNL     1       1.233   3.053  21.268  0.00  0.00    +0.000 C 
ATOM     14  O   UNL     1       1.107   3.770  20.046  0.00  0.00    +0.000 OA
ENDBRANCH   1  14
BRANCH   6  15
ATOM     15  C   UNL     1       6.484   5.181  15.374  0.00  0.00    +0.000 C 
ATOM     16  O   UNL     1       7.404   5.935  15.650  0.00  0.00    +0.000 OA
BRANCH  15  17
ATOM     17  O   UNL     1       6.339   4.615  14.148  0.00  0.00    +0.000 OA
ATOM     18  H   UNL     1       7.214   4.555  13.707  0.00  0.00    +0.000 HD
ENDBRANCH  15  17
ENDBRANCH   6  15
TORSDOF 3
ENDMDL
MODEL 2
REMARK VINA RESULT:      -6.6      2.671      4.616
REMARK  Name = 
REMARK  4 active torsions:
REMARK  status: ('A' for Active; 'I' for Inactive)
REMARK    1  A    between atoms: C_1  and  O_2
REMARK    2  A    between atoms: O_2  and  C_3
REMARK    3  A    between atoms: C_8  and  C_9
REMARK    4  A    between atoms: C_9  and  O_11
REMARK                            x       y       z     vdW  Elec       q    Type
REMARK                         _______ _______ _______ _____ _____    ______ ____
ROOT
ATOM      1  C   UNL     1       2.821   7.631  18.315  0.00  0.00    +0.000 A 
ATOM      2  C   UNL     1       2.018   7.417  19.456  0.00  0.00    +0.000 A 
ATOM      3  C   UNL     1       2.045   6.208  20.185  0.00  0.00    +0.000 A 
ATOM      4  C   UNL     1       2.912   5.239  19.705  0.00  0.00    +0.000 A 
ATOM      5  O   UNL     1       3.153   3.991  20.204  0.00  0.00    +0.000 OA
ATOM      6  C   UNL     1       4.096   3.394  19.379  0.00  0.00    +0.000 A 
ATOM      7  C   UNL     1       4.437   4.266  18.362  0.00  0.00    +0.000 A 
ATOM      8  C   UNL     1       3.682   5.431  18.586  0.00  0.00    +0.000 A 
ATOM      9  C   UNL     1       3.654   6.609  17.839  0.00  0.00    +0.000 A 
ATOM     10  C   UNL     1       4.583   6.673  16.654  0.00  0.00    +0.000 C 
ATOM     11  C   UNL     1       4.912   5.245  16.111  0.00  0.00    +0.000 C 
ATOM     12  C   UNL     1       5.359   4.214  17.194  0.00  0.00    +0.000 C 
ENDROOT
BRANCH   1  14
ATOM     13  C   UNL     1       1.779   9.711  17.857  0.00  0.00    +0.000 C 
ATOM     14  O   UNL     1       2.829   8.791  17.584  0.00  0.00    +0.000 OA
ENDBRANCH   1  14
BRANCH   6  15
ATOM     15  C   UNL     1       4.529   2.054  19.696  0.00  0.00    +0.000 C 
ATOM     16  O   UNL     1       5.149   1.713  20.692  0.00  0.00    +0.000 OA
BRANCH  15  17
ATOM     17  O   UNL     1       4.156   1.179  18.726  0.00  0.00    +0.000 OA
ATOM     18  H   UNL     1       3.178   1.101  18.711  0.00  0.00    +0.000 HD
ENDBRANCH  15  17
ENDBRANCH   6  15
TORSDOF 3
ENDMDL
MODEL 3
REMARK VINA RESULT:      -6.6      2.115      5.080
REMARK  Name = 
REMARK  4 active torsions:
REMARK  status: ('A' for Active; 'I' for Inactive)
REMARK    1  A    between atoms: C_1  and  O_2
REMARK    2  A    between atoms: O_2  and  C_3
REMARK    3  A    between atoms: C_8  and  C_9
REMARK    4  A    between atoms: C_9  and  O_11
REMARK                            x       y       z     vdW  Elec       q    Type
REMARK                         _______ _______ _______ _____ _____    ______ ____
ROOT
ATOM      1  C   UNL     1       6.557   6.729  17.548  0.00  0.00    +0.000 A 
ATOM      2  C   UNL     1       7.491   5.771  17.997  0.00  0.00    +0.000 A 
ATOM      3  C   UNL     1       7.100   4.542  18.569  0.00  0.00    +0.000 A 
ATOM      4  C   UNL     1       5.733   4.334  18.665  0.00  0.00    +0.000 A 
ATOM      5  O   UNL     1       5.070   3.248  19.161  0.00  0.00    +0.000 OA
ATOM      6  C   UNL     1       3.711   3.510  19.049  0.00  0.00    +0.000 A 
ATOM      7  C   UNL     1       3.528   4.760  18.490  0.00  0.00    +0.000 A 
ATOM      8  C   UNL     1       4.817   5.267  18.249  0.00  0.00    +0.000 A 
ATOM      9  C   UNL     1       5.183   6.497  17.701  0.00  0.00    +0.000 A 
ATOM     10  C   UNL     1       4.055   7.398  17.265  0.00  0.00    +0.000 C 
ATOM     11  C   UNL     1       2.746   7.096  18.062  0.00  0.00    +0.000 C 
ATOM     12  C   UNL     1       2.345   5.589  18.128  0.00  0.00    +0.000 C 
ENDROOT
BRANCH   1  14
ATOM     13  C   UNL     1       7.884   8.690  17.666  0.00  0.00    +0.000 C 
ATOM     14  O   UNL     1       6.895   7.930  16.981  0.00  0.00    +0.000 OA
ENDBRANCH   1  14
BRANCH   6  15
ATOM     15  C   UNL     1       2.783   2.504  19.505  0.00  0.00    +0.000 C 
ATOM     16  O   UNL     1       2.245   2.462  20.601  0.00  0.00    +0.000 OA
BRANCH  15  17
ATOM     17  O   UNL     1       2.565   1.570  18.543  0.00  0.00    +0.000 OA
ATOM     18  H   UNL     1       1.600   1.431  18.431  0.00  0.00    +0.000 HD
ENDBRANCH  15  17
ENDBRANCH   6  15
TORSDOF 3
ENDMDL
MODEL 4
REMARK VINA RESULT:      -6.5      1.527      3.030
REMARK  Name = 
REMARK  4 active torsions:
REMARK  status: ('A' for Active; 'I' for Inactive)
REMARK    1  A    between atoms: C_1  and  O_2
REMARK    2  A    between atoms: O_2  and  C_3
REMARK    3  A    between atoms: C_8  and  C_9
REMARK    4  A    between atoms: C_9  and  O_11
REMARK                            x       y       z     vdW  Elec       q    Type
REMARK                         _______ _______ _______ _____ _____    ______ ____
ROOT
ATOM      1  C   UNL     1       1.534   4.235  20.157  0.00  0.00    +0.000 A 
ATOM      2  C   UNL     1       1.539   5.565  20.631  0.00  0.00    +0.000 A 
ATOM      3  C   UNL     1       2.309   6.582  20.026  0.00  0.00    +0.000 A 
ATOM      4  C   UNL     1       3.067   6.189  18.935  0.00  0.00    +0.000 A 
ATOM      5  O   UNL     1       3.893   6.947  18.154  0.00  0.00    +0.000 OA
ATOM      6  C   UNL     1       4.433   6.108  17.190  0.00  0.00    +0.000 A 
ATOM      7  C   UNL     1       3.950   4.826  17.373  0.00  0.00    +0.000 A 
ATOM      8  C   UNL     1       3.084   4.895  18.478  0.00  0.00    +0.000 A 
ATOM      9  C   UNL     1       2.346   3.871  19.074  0.00  0.00    +0.000 A 
ATOM     10  C   UNL     1       2.450   2.511  18.433  0.00  0.00    +0.000 C 
ATOM     11  C   UNL     1       3.799   2.347  17.661  0.00  0.00    +0.000 C 
ATOM     12  C   UNL     1       4.151   3.518  16.691  0.00  0.00    +0.000 C 
ENDROOT
BRANCH   1  14
ATOM     13  C   UNL     1       1.385   2.549  21.816  0.00  0.00    +0.000 C 
ATOM     14  O   UNL     1       0.795   3.222  20.710  0.00  0.00    +0.000 OA
ENDBRANCH   1  14
BRANCH   6  15
ATOM     15  C   UNL     1       5.347   6.674  16.228  0.00  0.00    +0.000 C 
ATOM     16  O   UNL     1       5.224   6.650  15.013  0.00  0.00    +0.000 OA
BRANCH  15  17
ATOM     17  O   UNL     1       6.404   7.262  16.848  0.00  0.00    +0.000 OA
ATOM     18  H   UNL     1       6.244   7.292  17.816  0.00  0.00    +0.000 HD
ENDBRANCH  15  17
ENDBRANCH   6  15
TORSDOF 3
ENDMDL
MODEL 5
REMARK VINA RESULT:      -6.5      1.614      4.865
REMARK  Name = 
REMARK  4 active torsions:
REMARK  status: ('A' for Active; 'I' for Inactive)
REMARK    1  A    between atoms: C_1  and  O_2
REMARK    2  A    between atoms: O_2  and  C_3
REMARK    3  A    between atoms: C_8  and  C_9
REMARK    4  A    between atoms: C_9  and  O_11
REMARK                            x       y       z     vdW  Elec       q    Type
REMARK                         _______ _______ _______ _____ _____    ______ ____
ROOT
ATOM      1  C   UNL     1       5.792   6.122  16.644  0.00  0.00    +0.000 A 
ATOM      2  C   UNL     1       6.397   4.893  16.303  0.00  0.00    +0.000 A 
ATOM      3  C   UNL     1       5.766   3.650  16.526  0.00  0.00    +0.000 A 
ATOM      4  C   UNL     1       4.510   3.713  17.108  0.00  0.00    +0.000 A 
ATOM      5  O   UNL     1       3.669   2.686  17.430  0.00  0.00    +0.000 OA
ATOM      6  C   UNL     1       2.532   3.247  17.994  0.00  0.00    +0.000 A 
ATOM      7  C   UNL     1       2.666   4.622  18.030  0.00  0.00    +0.000 A 
ATOM      8  C   UNL     1       3.921   4.901  17.462  0.00  0.00    +0.000 A 
ATOM      9  C   UNL     1       4.537   6.138  17.269  0.00  0.00    +0.000 A 
ATOM     10  C   UNL     1       3.744   7.352  17.684  0.00  0.00    +0.000 C 
ATOM     11  C   UNL     1       2.708   7.000  18.799  0.00  0.00    +0.000 C 
ATOM     12  C   UNL     1       1.820   5.751  18.506  0.00  0.00    +0.000 C 
ENDROOT
BRANCH   1  14
ATOM     13  C   UNL     1       7.426   7.701  17.321  0.00  0.00    +0.000 C 
ATOM     14  O   UNL     1       6.367   7.349  16.438  0.00  0.00    +0.000 OA
ENDBRANCH   1  14
BRANCH   6  15
ATOM     15  C   UNL     1       1.475   2.362  18.422  0.00  0.00    +0.000 C 
ATOM     16  O   UNL     1       0.277   2.593  18.375  0.00  0.00    +0.000 OA
BRANCH  15  17
ATOM     17  O   UNL     1       1.981   1.196  18.902  0.00  0.00    +0.000 OA
ATOM     18  H   UNL     1       1.368   0.821  19.570  0.00  0.00    +0.000 HD
ENDBRANCH  15  17
ENDBRANCH   6  15
TORSDOF 3
ENDMDL
MODEL 6
REMARK VINA RESULT:      -6.4      1.293      1.293
REMARK  Name = 
REMARK  4 active torsions:
REMARK  status: ('A' for Active; 'I' for Inactive)
REMARK    1  A    between atoms: C_1  and  O_2
REMARK    2  A    between atoms: O_2  and  C_3
REMARK    3  A    between atoms: C_8  and  C_9
REMARK    4  A    between atoms: C_9  and  O_11
REMARK                            x       y       z     vdW  Elec       q    Type
REMARK                         _______ _______ _______ _____ _____    ______ ____
ROOT
ATOM      1  C   UNL     1       2.721   3.918  20.300  0.00  0.00    +0.000 A 
ATOM      2  C   UNL     1       3.548   2.781  20.169  0.00  0.00    +0.000 A 
ATOM      3  C   UNL     1       4.665   2.752  19.306  0.00  0.00    +0.000 A 
ATOM      4  C   UNL     1       4.896   3.914  18.588  0.00  0.00    +0.000 A 
ATOM      5  O   UNL     1       5.894   4.178  17.693  0.00  0.00    +0.000 OA
ATOM      6  C   UNL     1       5.704   5.474  17.234  0.00  0.00    +0.000 A 
ATOM      7  C   UNL     1       4.584   6.015  17.836  0.00  0.00    +0.000 A 
ATOM      8  C   UNL     1       4.087   5.018  18.693  0.00  0.00    +0.000 A 
ATOM      9  C   UNL     1       2.967   5.059  19.525  0.00  0.00    +0.000 A 
ATOM     10  C   UNL     1       2.200   6.357  19.549  0.00  0.00    +0.000 C 
ATOM     11  C   UNL     1       2.394   7.158  18.222  0.00  0.00    +0.000 C 
ATOM     12  C   UNL     1       3.876   7.323  17.760  0.00  0.00    +0.000 C 
ENDROOT
BRANCH   1  14
ATOM     13  C   UNL     1       1.283   2.788  21.808  0.00  0.00    +0.000 C 
ATOM     14  O   UNL     1       1.634   3.990  21.131  0.00  0.00    +0.000 OA
ENDBRANCH   1  14
BRANCH   6  15
ATOM     15  C   UNL     1       6.640   6.000  16.270  0.00  0.00    +0.000 C 
ATOM     16  O   UNL     1       7.603   6.711  16.512  0.00  0.00    +0.000 OA
BRANCH  15  17
ATOM     17  O   UNL     1       6.319   5.600  15.012  0.00  0.00    +0.000 OA
ATOM     18  H   UNL     1       7.026   5.016  14.661  0.00  0.00    +0.000 HD
ENDBRANCH  15  17
ENDBRANCH   6  15
TORSDOF 3
ENDMDL
MODEL 7
REMARK VINA RESULT:      -6.3      2.548      4.952
REMARK  Name = 
REMARK  4 active torsions:
REMARK  status: ('A' for Active; 'I' for Inactive)
REMARK    1  A    between atoms: C_1  and  O_2
REMARK    2  A    between atoms: O_2  and  C_3
REMARK    3  A    between atoms: C_8  and  C_9
REMARK    4  A    between atoms: C_9  and  O_11
REMARK                            x       y       z     vdW  Elec       q    Type
REMARK                         _______ _______ _______ _____ _____    ______ ____
ROOT
ATOM      1  C   UNL     1       2.551   3.024  18.795  0.00  0.00    +0.000 A 
ATOM      2  C   UNL     1       1.810   2.721  19.959  0.00  0.00    +0.000 A 
ATOM      3  C   UNL     1       1.302   3.722  20.815  0.00  0.00    +0.000 A 
ATOM      4  C   UNL     1       1.581   5.027  20.441  0.00  0.00    +0.000 A 
ATOM      5  O   UNL     1       1.216   6.188  21.063  0.00  0.00    +0.000 OA
ATOM      6  C   UNL     1       1.733   7.236  20.314  0.00  0.00    +0.000 A 
ATOM      7  C   UNL     1       2.425   6.730  19.230  0.00  0.00    +0.000 A 
ATOM      8  C   UNL     1       2.316   5.331  19.323  0.00  0.00    +0.000 A 
ATOM      9  C   UNL     1       2.844   4.357  18.475  0.00  0.00    +0.000 A 
ATOM     10  C   UNL     1       3.603   4.856  17.272  0.00  0.00    +0.000 C 
ATOM     11  C   UNL     1       4.195   6.280  17.523  0.00  0.00    +0.000 C 
ATOM     12  C   UNL     1       3.186   7.323  18.096  0.00  0.00    +0.000 C 
ENDROOT
BRANCH   1  14
ATOM     13  C   UNL     1       3.909   1.102  18.511  0.00  0.00    +0.000 C 
ATOM     14  O   UNL     1       3.054   2.083  17.935  0.00  0.00    +0.000 OA
ENDBRANCH   1  14
BRANCH   6  15
ATOM     15  C   UNL     1       1.481   8.583  20.763  0.00  0.00    +0.000 C 
ATOM     16  O   UNL     1       1.090   9.513  20.074  0.00  0.00    +0.000 OA
BRANCH  15  17
ATOM     17  O   UNL     1       1.735   8.709  22.092  0.00  0.00    +0.000 OA
ATOM     18  H   UNL     1       2.700   8.622  22.253  0.00  0.00    +0.000 HD
ENDBRANCH  15  17
ENDBRANCH   6  15
TORSDOF 3
ENDMDL
MODEL 8
REMARK VINA RESULT:      -6.2      2.814      4.477
REMARK  Name = 
REMARK  4 active torsions:
REMARK  status: ('A' for Active; 'I' for Inactive)
REMARK    1  A    between atoms: C_1  and  O_2
REMARK    2  A    between atoms: O_2  and  C_3
REMARK    3  A    between atoms: C_8  and  C_9
REMARK    4  A    between atoms: C_9  and  O_11
REMARK                            x       y       z     vdW  Elec       q    Type
REMARK                         _______ _______ _______ _____ _____    ______ ____
ROOT
ATOM      1  C   UNL     1       4.255   3.706  18.551  0.00  0.00    +0.000 A 
ATOM      2  C   UNL     1       4.839   4.212  17.370  0.00  0.00    +0.000 A 
ATOM      3  C   UNL     1       4.581   5.516  16.895  0.00  0.00    +0.000 A 
ATOM      4  C   UNL     1       3.710   6.271  17.663  0.00  0.00    +0.000 A 
ATOM      5  O   UNL     1       3.286   7.553  17.457  0.00  0.00    +0.000 OA
ATOM      6  C   UNL     1       2.417   7.870  18.492  0.00  0.00    +0.000 A 
ATOM      7  C   UNL     1       2.294   6.784  19.338  0.00  0.00    +0.000 A 
ATOM      8  C   UNL     1       3.121   5.782  18.802  0.00  0.00    +0.000 A 
ATOM      9  C   UNL     1       3.347   4.490  19.277  0.00  0.00    +0.000 A 
ATOM     10  C   UNL     1       2.648   4.116  20.560  0.00  0.00    +0.000 C 
ATOM     11  C   UNL     1       1.351   4.962  20.768  0.00  0.00    +0.000 C 
ATOM     12  C   UNL     1       1.530   6.502  20.585  0.00  0.00    +0.000 C 
ENDROOT
BRANCH   1  14
ATOM     13  C   UNL     1       3.715   1.399  18.479  0.00  0.00    +0.000 C 
ATOM     14  O   UNL     1       4.485   2.451  19.050  0.00  0.00    +0.000 OA
ENDBRANCH   1  14
BRANCH   6  15
ATOM     15  C   UNL     1       1.826   9.186  18.508  0.00  0.00    +0.000 C 
ATOM     16  O   UNL     1       1.227   9.698  19.441  0.00  0.00    +0.000 OA
BRANCH  15  17
ATOM     17  O   UNL     1       2.019   9.820  17.322  0.00  0.00    +0.000 OA
ATOM     18  H   UNL     1       1.185  10.253  17.040  0.00  0.00    +0.000 HD
ENDBRANCH  15  17
ENDBRANCH   6  15
TORSDOF 3
ENDMDL
MODEL 9
REMARK VINA RESULT:      -6.1      1.703      2.178
REMARK  Name = 
REMARK  4 active torsions:
REMARK  status: ('A' for Active; 'I' for Inactive)
REMARK    1  A    between atoms: C_1  and  O_2
REMARK    2  A    between atoms: O_2  and  C_3
REMARK    3  A    between atoms: C_8  and  C_9
REMARK    4  A    between atoms: C_9  and  O_11
REMARK                            x       y       z     vdW  Elec       q    Type
REMARK                         _______ _______ _______ _____ _____    ______ ____
ROOT
ATOM      1  C   UNL     1       3.545   4.205  19.284  0.00  0.00    +0.000 A 
ATOM      2  C   UNL     1       2.574   3.773  18.354  0.00  0.00    +0.000 A 
ATOM      3  C   UNL     1       2.847   3.652  16.974  0.00  0.00    +0.000 A 
ATOM      4  C   UNL     1       4.134   3.989  16.588  0.00  0.00    +0.000 A 
ATOM      5  O   UNL     1       4.682   3.962  15.336  0.00  0.00    +0.000 OA
ATOM      6  C   UNL     1       5.997   4.391  15.453  0.00  0.00    +0.000 A 
ATOM      7  C   UNL     1       6.267   4.691  16.775  0.00  0.00    +0.000 A 
ATOM      8  C   UNL     1       5.080   4.428  17.480  0.00  0.00    +0.000 A 
ATOM      9  C   UNL     1       4.824   4.574  18.844  0.00  0.00    +0.000 A 
ATOM     10  C   UNL     1       5.978   5.038  19.696  0.00  0.00    +0.000 C 
ATOM     11  C   UNL     1       7.010   5.859  18.857  0.00  0.00    +0.000 C 
ATOM     12  C   UNL     1       7.456   5.190  17.520  0.00  0.00    +0.000 C 
ENDROOT
BRANCH   1  14
ATOM     13  C   UNL     1       2.043   3.915  21.095  0.00  0.00    +0.000 C 
ATOM     14  O   UNL     1       3.323   4.329  20.630  0.00  0.00    +0.000 OA
ENDBRANCH   1  14
BRANCH   6  15
ATOM     15  C   UNL     1       6.803   4.450  14.259  0.00  0.00    +0.000 C 
ATOM     16  O   UNL     1       7.679   5.267  14.018  0.00  0.00    +0.000 OA
BRANCH  15  17
ATOM     17  O   UNL     1       6.468   3.456  13.395  0.00  0.00    +0.000 OA
ATOM     18  H   UNL     1       7.155   3.379  12.699  0.00  0.00    +0.000 HD
ENDBRANCH  15  17
ENDBRANCH   6  15
TORSDOF 3
ENDMDL
