MODEL 1
REMARK VINA RESULT:      -8.0      0.000      0.000
REMARK  Name = 
REMARK  5 active torsions:
REMARK  status: ('A' for Active; 'I' for Inactive)
REMARK    1  A    between atoms: C_1  and  C_2
REMARK    2  A    between atoms: C_5  and  N_6
REMARK    3  A    between atoms: C_8  and  C_9
REMARK    4  A    between atoms: C_15  and  C_16
REMARK    5  A    between atoms: C_16  and  O_18
REMARK                            x       y       z     vdW  Elec       q    Type
REMARK                         _______ _______ _______ _____ _____    ______ ____
ROOT
ATOM      1  N   UNL     1       5.731   4.584  17.783  0.00  0.00    +0.000 N 
ATOM      2  N   UNL     1       5.548   4.197  16.490  0.00  0.00    +0.000 NA
ATOM      3  C   UNL     1       6.560   4.737  15.813  0.00  0.00    +0.000 A 
ATOM      4  C   UNL     1       7.440   5.428  16.659  0.00  0.00    +0.000 A 
ATOM      5  C   UNL     1       6.903   5.322  17.934  0.00  0.00    +0.000 A 
ENDROOT
BRANCH   1  10
ATOM      6  C   UNL     1       1.701   3.220  21.628  0.00  0.00    +0.000 C 
ATOM      7  C   UNL     1       2.761   3.566  20.626  0.00  0.00    +0.000 A 
ATOM      8  C   UNL     1       3.653   2.599  20.148  0.00  0.00    +0.000 A 
ATOM      9  C   UNL     1       4.619   2.939  19.196  0.00  0.00    +0.000 A 
ATOM     10  C   UNL     1       4.725   4.261  18.737  0.00  0.00    +0.000 A 
ATOM     11  C   UNL     1       3.825   5.223  19.204  0.00  0.00    +0.000 A 
ATOM     12  C   UNL     1       2.854   4.875  20.143  0.00  0.00    +0.000 A 
ENDBRANCH   1  10
BRANCH   3  13
ATOM     13  C   UNL     1       6.731   4.587  14.339  0.00  0.00    +0.000 A 
ATOM     14  C   UNL     1       6.072   3.685  13.526  0.00  0.00    +0.000 A 
ATOM     15  C   UNL     1       6.557   3.888  12.212  0.00  0.00    +0.000 A 
ATOM     16  C   UNL     1       7.482   4.901  12.300  0.00  0.00    +0.000 A 
ATOM     17  O   UNL     1       7.581   5.344  13.580  0.00  0.00    +0.000 OA
ENDBRANCH   3  13
BRANCH   5  18
ATOM     18  C   UNL     1       7.479   5.748  19.182  0.00  0.00    +0.000 C 
ATOM     19  O   UNL     1       7.303   5.240  20.275  0.00  0.00    +0.000 OA
BRANCH  18  20
ATOM     20  O   UNL     1       8.282   6.831  19.027  0.00  0.00    +0.000 OA
ATOM     21  H   UNL     1       7.945   7.497  18.403  0.00  0.00    +0.000 HD
ENDBRANCH  18  20
ENDBRANCH   5  18
TORSDOF 4
ENDMDL
MODEL 2
REMARK VINA RESULT:      -8.0      0.071      1.081
REMARK  Name = 
REMARK  5 active torsions:
REMARK  status: ('A' for Active; 'I' for Inactive)
REMARK    1  A    between atoms: C_1  and  C_2
REMARK    2  A    between atoms: C_5  and  N_6
REMARK    3  A    between atoms: C_8  and  C_9
REMARK    4  A    between atoms: C_15  and  C_16
REMARK    5  A    between atoms: C_16  and  O_18
REMARK                            x       y       z     vdW  Elec       q    Type
REMARK                         _______ _______ _______ _____ _____    ______ ____
ROOT
ATOM      1  N   UNL     1       5.705   4.554  17.755  0.00  0.00    +0.000 N 
ATOM      2  N   UNL     1       5.530   4.163  16.462  0.00  0.00    +0.000 NA
ATOM      3  C   UNL     1       6.537   4.716  15.788  0.00  0.00    +0.000 A 
ATOM      4  C   UNL     1       7.405   5.420  16.635  0.00  0.00    +0.000 A 
ATOM      5  C   UNL     1       6.866   5.308  17.908  0.00  0.00    +0.000 A 
ENDROOT
BRANCH   1  10
ATOM      6  C   UNL     1       1.631   3.269  21.582  0.00  0.00    +0.000 C 
ATOM      7  C   UNL     1       2.689   3.615  20.578  0.00  0.00    +0.000 A 
ATOM      8  C   UNL     1       2.767   4.894  20.016  0.00  0.00    +0.000 A 
ATOM      9  C   UNL     1       3.777   5.202  19.098  0.00  0.00    +0.000 A 
ATOM     10  C   UNL     1       4.700   4.220  18.706  0.00  0.00    +0.000 A 
ATOM     11  C   UNL     1       4.630   2.946  19.279  0.00  0.00    +0.000 A 
ATOM     12  C   UNL     1       3.629   2.649  20.205  0.00  0.00    +0.000 A 
ENDBRANCH   1  10
BRANCH   3  13
ATOM     13  C   UNL     1       6.714   4.566  14.314  0.00  0.00    +0.000 A 
ATOM     14  C   UNL     1       6.060   3.663  13.498  0.00  0.00    +0.000 A 
ATOM     15  C   UNL     1       6.549   3.867  12.186  0.00  0.00    +0.000 A 
ATOM     16  C   UNL     1       7.473   4.881  12.279  0.00  0.00    +0.000 A 
ATOM     17  O   UNL     1       7.566   5.324  13.559  0.00  0.00    +0.000 OA
ENDBRANCH   3  13
BRANCH   5  18
ATOM     18  C   UNL     1       7.432   5.743  19.157  0.00  0.00    +0.000 C 
ATOM     19  O   UNL     1       7.229   5.258  20.256  0.00  0.00    +0.000 OA
BRANCH  18  20
ATOM     20  O   UNL     1       8.261   6.806  18.996  0.00  0.00    +0.000 OA
ATOM     21  H   UNL     1       8.379   7.089  18.073  0.00  0.00    +0.000 HD
ENDBRANCH  18  20
ENDBRANCH   5  18
TORSDOF 4
ENDMDL
MODEL 3
REMARK VINA RESULT:      -7.5      1.051      1.498
REMARK  Name = 
REMARK  5 active torsions:
REMARK  status: ('A' for Active; 'I' for Inactive)
REMARK    1  A    between atoms: C_1  and  C_2
REMARK    2  A    between atoms: C_5  and  N_6
REMARK    3  A    between atoms: C_8  and  C_9
REMARK    4  A    between atoms: C_15  and  C_16
REMARK    5  A    between atoms: C_16  and  O_18
REMARK                            x       y       z     vdW  Elec       q    Type
REMARK                         _______ _______ _______ _____ _____    ______ ____
ROOT
ATOM      1  N   UNL     1       5.213   4.244  17.216  0.00  0.00    +0.000 N 
ATOM      2  N   UNL     1       5.176   3.970  15.883  0.00  0.00    +0.000 NA
ATOM      3  C   UNL     1       6.307   4.469  15.389  0.00  0.00    +0.000 A 
ATOM      4  C   UNL     1       7.115   5.019  16.394  0.00  0.00    +0.000 A 
ATOM      5  C   UNL     1       6.406   4.865  17.577  0.00  0.00    +0.000 A 
ENDROOT
BRANCH   1  10
ATOM      6  C   UNL     1       0.568   3.079  20.373  0.00  0.00    +0.000 C 
ATOM      7  C   UNL     1       1.776   3.394  19.542  0.00  0.00    +0.000 A 
ATOM      8  C   UNL     1       1.920   4.632  18.908  0.00  0.00    +0.000 A 
ATOM      9  C   UNL     1       3.066   4.912  18.156  0.00  0.00    +0.000 A 
ATOM     10  C   UNL     1       4.067   3.940  18.004  0.00  0.00    +0.000 A 
ATOM     11  C   UNL     1       3.928   2.708  18.650  0.00  0.00    +0.000 A 
ATOM     12  C   UNL     1       2.790   2.439  19.409  0.00  0.00    +0.000 A 
ENDBRANCH   1  10
BRANCH   3  13
ATOM     13  C   UNL     1       6.662   4.413  13.941  0.00  0.00    +0.000 A 
ATOM     14  C   UNL     1       6.191   3.501  13.017  0.00  0.00    +0.000 A 
ATOM     15  C   UNL     1       6.804   3.816  11.780  0.00  0.00    +0.000 A 
ATOM     16  C   UNL     1       7.613   4.901  12.023  0.00  0.00    +0.000 A 
ATOM     17  O   UNL     1       7.519   5.282  13.323  0.00  0.00    +0.000 OA
ENDBRANCH   3  13
BRANCH   5  18
ATOM     18  C   UNL     1       6.840   5.148  18.919  0.00  0.00    +0.000 C 
ATOM     19  O   UNL     1       6.148   5.552  19.837  0.00  0.00    +0.000 OA
BRANCH  18  20
ATOM     20  O   UNL     1       8.166   4.913  19.085  0.00  0.00    +0.000 OA
ATOM     21  H   UNL     1       8.382   4.329  19.833  0.00  0.00    +0.000 HD
ENDBRANCH  18  20
ENDBRANCH   5  18
TORSDOF 4
ENDMDL
MODEL 4
REMARK VINA RESULT:      -7.3      1.245      1.991
REMARK  Name = 
REMARK  5 active torsions:
REMARK  status: ('A' for Active; 'I' for Inactive)
REMARK    1  A    between atoms: C_1  and  C_2
REMARK    2  A    between atoms: C_5  and  N_6
REMARK    3  A    between atoms: C_8  and  C_9
REMARK    4  A    between atoms: C_15  and  C_16
REMARK    5  A    between atoms: C_16  and  O_18
REMARK                            x       y       z     vdW  Elec       q    Type
REMARK                         _______ _______ _______ _____ _____    ______ ____
ROOT
ATOM      1  N   UNL     1       5.477   5.568  17.438  0.00  0.00    +0.000 N 
ATOM      2  N   UNL     1       5.218   5.157  16.166  0.00  0.00    +0.000 NA
ATOM      3  C   UNL     1       6.411   5.025  15.588  0.00  0.00    +0.000 A 
ATOM      4  C   UNL     1       7.455   5.288  16.486  0.00  0.00    +0.000 A 
ATOM      5  C   UNL     1       6.846   5.634  17.684  0.00  0.00    +0.000 A 
ENDROOT
BRANCH   1  10
ATOM      6  C   UNL     1       1.045   7.042  20.765  0.00  0.00    +0.000 C 
ATOM      7  C   UNL     1       2.199   6.664  19.887  0.00  0.00    +0.000 A 
ATOM      8  C   UNL     1       2.557   7.444  18.782  0.00  0.00    +0.000 A 
ATOM      9  C   UNL     1       3.652   7.086  17.988  0.00  0.00    +0.000 A 
ATOM     10  C   UNL     1       4.380   5.920  18.274  0.00  0.00    +0.000 A 
ATOM     11  C   UNL     1       4.031   5.149  19.386  0.00  0.00    +0.000 A 
ATOM     12  C   UNL     1       2.946   5.520  20.182  0.00  0.00    +0.000 A 
ENDBRANCH   1  10
BRANCH   3  13
ATOM     13  C   UNL     1       6.589   4.616  14.165  0.00  0.00    +0.000 A 
ATOM     14  C   UNL     1       5.891   3.624  13.503  0.00  0.00    +0.000 A 
ATOM     15  C   UNL     1       6.400   3.575  12.183  0.00  0.00    +0.000 A 
ATOM     16  C   UNL     1       7.379   4.538  12.118  0.00  0.00    +0.000 A 
ATOM     17  O   UNL     1       7.488   5.188  13.306  0.00  0.00    +0.000 OA
ENDBRANCH   3  13
BRANCH   5  18
ATOM     18  C   UNL     1       7.465   5.875  18.961  0.00  0.00    +0.000 C 
ATOM     19  O   UNL     1       7.301   5.231  19.982  0.00  0.00    +0.000 OA
BRANCH  18  20
ATOM     20  O   UNL     1       8.296   6.948  18.928  0.00  0.00    +0.000 OA
ATOM     21  H   UNL     1       9.047   6.858  18.316  0.00  0.00    +0.000 HD
ENDBRANCH  18  20
ENDBRANCH   5  18
TORSDOF 4
ENDMDL
MODEL 5
REMARK VINA RESULT:      -7.3      1.373      1.899
REMARK  Name = 
REMARK  5 active torsions:
REMARK  status: ('A' for Active; 'I' for Inactive)
REMARK    1  A    between atoms: C_1  and  C_2
REMARK    2  A    between atoms: C_5  and  N_6
REMARK    3  A    between atoms: C_8  and  C_9
REMARK    4  A    between atoms: C_15  and  C_16
REMARK    5  A    between atoms: C_16  and  O_18
REMARK                            x       y       z     vdW  Elec       q    Type
REMARK                         _______ _______ _______ _____ _____    ______ ____
ROOT
ATOM      1  N   UNL     1       5.459   5.686  17.364  0.00  0.00    +0.000 N 
ATOM      2  N   UNL     1       5.200   5.274  16.092  0.00  0.00    +0.000 NA
ATOM      3  C   UNL     1       6.393   5.056  15.542  0.00  0.00    +0.000 A 
ATOM      4  C   UNL     1       7.434   5.265  16.459  0.00  0.00    +0.000 A 
ATOM      5  C   UNL     1       6.825   5.666  17.639  0.00  0.00    +0.000 A 
ENDROOT
BRANCH   1  10
ATOM      6  C   UNL     1       1.085   7.388  20.659  0.00  0.00    +0.000 C 
ATOM      7  C   UNL     1       2.232   6.935  19.807  0.00  0.00    +0.000 A 
ATOM      8  C   UNL     1       2.964   5.786  20.124  0.00  0.00    +0.000 A 
ATOM      9  C   UNL     1       4.017   5.369  19.302  0.00  0.00    +0.000 A 
ATOM     10  C   UNL     1       4.370   6.121  18.171  0.00  0.00    +0.000 A 
ATOM     11  C   UNL     1       3.630   7.261  17.848  0.00  0.00    +0.000 A 
ATOM     12  C   UNL     1       2.572   7.664  18.663  0.00  0.00    +0.000 A 
ENDBRANCH   1  10
BRANCH   3  13
ATOM     13  C   UNL     1       6.573   4.616  14.129  0.00  0.00    +0.000 A 
ATOM     14  C   UNL     1       5.891   3.596  13.494  0.00  0.00    +0.000 A 
ATOM     15  C   UNL     1       6.396   3.523  12.174  0.00  0.00    +0.000 A 
ATOM     16  C   UNL     1       7.358   4.501  12.081  0.00  0.00    +0.000 A 
ATOM     17  O   UNL     1       7.459   5.181  13.252  0.00  0.00    +0.000 OA
ENDBRANCH   3  13
BRANCH   5  18
ATOM     18  C   UNL     1       7.431   5.887  18.925  0.00  0.00    +0.000 C 
ATOM     19  O   UNL     1       7.256   5.227  19.934  0.00  0.00    +0.000 OA
BRANCH  18  20
ATOM     20  O   UNL     1       8.264   6.958  18.917  0.00  0.00    +0.000 OA
ATOM     21  H   UNL     1       9.162   6.769  18.593  0.00  0.00    +0.000 HD
ENDBRANCH  18  20
ENDBRANCH   5  18
TORSDOF 4
ENDMDL
MODEL 6
REMARK VINA RESULT:      -7.2      2.011      2.921
REMARK  Name = 
REMARK  5 active torsions:
REMARK  status: ('A' for Active; 'I' for Inactive)
REMARK    1  A    between atoms: C_1  and  C_2
REMARK    2  A    between atoms: C_5  and  N_6
REMARK    3  A    between atoms: C_8  and  C_9
REMARK    4  A    between atoms: C_15  and  C_16
REMARK    5  A    between atoms: C_16  and  O_18
REMARK                            x       y       z     vdW  Elec       q    Type
REMARK                         _______ _______ _______ _____ _____    ______ ____
ROOT
ATOM      1  N   UNL     1       4.951   5.633  17.192  0.00  0.00    +0.000 N 
ATOM      2  N   UNL     1       4.979   5.601  15.830  0.00  0.00    +0.000 NA
ATOM      3  C   UNL     1       6.059   4.887  15.516  0.00  0.00    +0.000 A 
ATOM      4  C   UNL     1       6.710   4.400  16.658  0.00  0.00    +0.000 A 
ATOM      5  C   UNL     1       5.986   4.879  17.741  0.00  0.00    +0.000 A 
ENDROOT
BRANCH   1  10
ATOM      6  C   UNL     1       1.001   8.931  19.722  0.00  0.00    +0.000 C 
ATOM      7  C   UNL     1       2.032   8.076  19.050  0.00  0.00    +0.000 A 
ATOM      8  C   UNL     1       2.681   8.500  17.885  0.00  0.00    +0.000 A 
ATOM      9  C   UNL     1       3.657   7.695  17.288  0.00  0.00    +0.000 A 
ATOM     10  C   UNL     1       3.969   6.440  17.832  0.00  0.00    +0.000 A 
ATOM     11  C   UNL     1       3.330   6.023  19.004  0.00  0.00    +0.000 A 
ATOM     12  C   UNL     1       2.368   6.836  19.603  0.00  0.00    +0.000 A 
ENDBRANCH   1  10
BRANCH   3  13
ATOM     13  C   UNL     1       6.486   4.628  14.111  0.00  0.00    +0.000 A 
ATOM     14  C   UNL     1       5.969   3.671  13.260  0.00  0.00    +0.000 A 
ATOM     15  C   UNL     1       6.683   3.775  12.042  0.00  0.00    +0.000 A 
ATOM     16  C   UNL     1       7.594   4.789  12.222  0.00  0.00    +0.000 A 
ATOM     17  O   UNL     1       7.471   5.325  13.464  0.00  0.00    +0.000 OA
ENDBRANCH   3  13
BRANCH   5  18
ATOM     18  C   UNL     1       6.158   4.569  19.135  0.00  0.00    +0.000 C 
ATOM     19  O   UNL     1       6.776   5.225  19.955  0.00  0.00    +0.000 OA
BRANCH  18  20
ATOM     20  O   UNL     1       5.536   3.412  19.479  0.00  0.00    +0.000 OA
ATOM     21  H   UNL     1       5.159   2.919  18.730  0.00  0.00    +0.000 HD
ENDBRANCH  18  20
ENDBRANCH   5  18
TORSDOF 4
ENDMDL
MODEL 7
REMARK VINA RESULT:      -7.2      2.013      2.794
REMARK  Name = 
REMARK  5 active torsions:
REMARK  status: ('A' for Active; 'I' for Inactive)
REMARK    1  A    between atoms: C_1  and  C_2
REMARK    2  A    between atoms: C_5  and  N_6
REMARK    3  A    between atoms: C_8  and  C_9
REMARK    4  A    between atoms: C_15  and  C_16
REMARK    5  A    between atoms: C_16  and  O_18
REMARK                            x       y       z     vdW  Elec       q    Type
REMARK                         _______ _______ _______ _____ _____    ______ ____
ROOT
ATOM      1  N   UNL     1       4.956   5.667  17.177  0.00  0.00    +0.000 N 
ATOM      2  N   UNL     1       4.990   5.629  15.816  0.00  0.00    +0.000 NA
ATOM      3  C   UNL     1       6.064   4.902  15.511  0.00  0.00    +0.000 A 
ATOM      4  C   UNL     1       6.704   4.412  16.658  0.00  0.00    +0.000 A 
ATOM      5  C   UNL     1       5.980   4.905  17.735  0.00  0.00    +0.000 A 
ENDROOT
BRANCH   1  10
ATOM      6  C   UNL     1       1.014   8.927  19.770  0.00  0.00    +0.000 C 
ATOM      7  C   UNL     1       2.046   8.068  19.103  0.00  0.00    +0.000 A 
ATOM      8  C   UNL     1       2.400   6.819  19.625  0.00  0.00    +0.000 A 
ATOM      9  C   UNL     1       3.348   6.024  18.973  0.00  0.00    +0.000 A 
ATOM     10  C   UNL     1       3.979   6.487  17.808  0.00  0.00    +0.000 A 
ATOM     11  C   UNL     1       3.615   7.729  17.280  0.00  0.00    +0.000 A 
ATOM     12  C   UNL     1       2.658   8.512  17.926  0.00  0.00    +0.000 A 
ENDBRANCH   1  10
BRANCH   3  13
ATOM     13  C   UNL     1       6.496   4.631  14.109  0.00  0.00    +0.000 A 
ATOM     14  C   UNL     1       6.005   3.644  13.276  0.00  0.00    +0.000 A 
ATOM     15  C   UNL     1       6.713   3.749  12.055  0.00  0.00    +0.000 A 
ATOM     16  C   UNL     1       7.594   4.793  12.214  0.00  0.00    +0.000 A 
ATOM     17  O   UNL     1       7.457   5.346  13.447  0.00  0.00    +0.000 OA
ENDBRANCH   3  13
BRANCH   5  18
ATOM     18  C   UNL     1       6.141   4.599  19.132  0.00  0.00    +0.000 C 
ATOM     19  O   UNL     1       6.732   5.271  19.959  0.00  0.00    +0.000 OA
BRANCH  18  20
ATOM     20  O   UNL     1       5.544   3.428  19.468  0.00  0.00    +0.000 OA
ATOM     21  H   UNL     1       5.294   3.357  20.406  0.00  0.00    +0.000 HD
ENDBRANCH  18  20
ENDBRANCH   5  18
TORSDOF 4
ENDMDL
MODEL 8
REMARK VINA RESULT:      -7.1      1.416      1.976
REMARK  Name = 
REMARK  5 active torsions:
REMARK  status: ('A' for Active; 'I' for Inactive)
REMARK    1  A    between atoms: C_1  and  C_2
REMARK    2  A    between atoms: C_5  and  N_6
REMARK    3  A    between atoms: C_8  and  C_9
REMARK    4  A    between atoms: C_15  and  C_16
REMARK    5  A    between atoms: C_16  and  O_18
REMARK                            x       y       z     vdW  Elec       q    Type
REMARK                         _______ _______ _______ _____ _____    ______ ____
ROOT
ATOM      1  N   UNL     1       5.335   5.272  16.990  0.00  0.00    +0.000 N 
ATOM      2  N   UNL     1       4.922   4.697  15.827  0.00  0.00    +0.000 NA
ATOM      3  C   UNL     1       6.026   4.545  15.097  0.00  0.00    +0.000 A 
ATOM      4  C   UNL     1       7.170   4.962  15.793  0.00  0.00    +0.000 A 
ATOM      5  C   UNL     1       6.719   5.426  17.021  0.00  0.00    +0.000 A 
ENDROOT
BRANCH   1  10
ATOM      6  C   UNL     1       1.377   6.853  20.828  0.00  0.00    +0.000 C 
ATOM      7  C   UNL     1       2.416   6.431  19.834  0.00  0.00    +0.000 A 
ATOM      8  C   UNL     1       3.133   5.240  19.991  0.00  0.00    +0.000 A 
ATOM      9  C   UNL     1       4.082   4.855  19.038  0.00  0.00    +0.000 A 
ATOM     10  C   UNL     1       4.349   5.678  17.934  0.00  0.00    +0.000 A 
ATOM     11  C   UNL     1       3.623   6.861  17.769  0.00  0.00    +0.000 A 
ATOM     12  C   UNL     1       2.667   7.233  18.715  0.00  0.00    +0.000 A 
ENDBRANCH   1  10
BRANCH   3  13
ATOM     13  C   UNL     1       6.023   3.972  13.720  0.00  0.00    +0.000 A 
ATOM     14  C   UNL     1       4.923   3.501  13.031  0.00  0.00    +0.000 A 
ATOM     15  C   UNL     1       5.391   3.040  11.777  0.00  0.00    +0.000 A 
ATOM     16  C   UNL     1       6.749   3.257  11.775  0.00  0.00    +0.000 A 
ATOM     17  O   UNL     1       7.139   3.839  12.939  0.00  0.00    +0.000 OA
ENDBRANCH   3  13
BRANCH   5  18
ATOM     18  C   UNL     1       7.497   5.850  18.154  0.00  0.00    +0.000 C 
ATOM     19  O   UNL     1       7.842   6.989  18.414  0.00  0.00    +0.000 OA
BRANCH  18  20
ATOM     20  O   UNL     1       7.836   4.808  18.956  0.00  0.00    +0.000 OA
ATOM     21  H   UNL     1       8.052   5.058  19.872  0.00  0.00    +0.000 HD
ENDBRANCH  18  20
ENDBRANCH   5  18
TORSDOF 4
ENDMDL
MODEL 9
REMARK VINA RESULT:      -7.1      2.543      6.071
REMARK  Name = 
REMARK  5 active torsions:
REMARK  status: ('A' for Active; 'I' for Inactive)
REMARK    1  A    between atoms: C_1  and  C_2
REMARK    2  A    between atoms: C_5  and  N_6
REMARK    3  A    between atoms: C_8  and  C_9
REMARK    4  A    between atoms: C_15  and  C_16
REMARK    5  A    between atoms: C_16  and  O_18
REMARK                            x       y       z     vdW  Elec       q    Type
REMARK                         _______ _______ _______ _____ _____    ______ ____
ROOT
ATOM      1  N   UNL     1       5.664   5.222  17.507  0.00  0.00    +0.000 N 
ATOM      2  N   UNL     1       4.673   4.945  18.399  0.00  0.00    +0.000 NA
ATOM      3  C   UNL     1       3.964   3.962  17.845  0.00  0.00    +0.000 A 
ATOM      4  C   UNL     1       4.515   3.551  16.622  0.00  0.00    +0.000 A 
ATOM      5  C   UNL     1       5.618   4.365  16.410  0.00  0.00    +0.000 A 
ENDROOT
BRANCH   1  10
ATOM      6  C   UNL     1       9.148   9.646  18.592  0.00  0.00    +0.000 C 
ATOM      7  C   UNL     1       8.246   8.482  18.314  0.00  0.00    +0.000 A 
ATOM      8  C   UNL     1       8.449   7.241  18.928  0.00  0.00    +0.000 A 
ATOM      9  C   UNL     1       7.581   6.175  18.671  0.00  0.00    +0.000 A 
ATOM     10  C   UNL     1       6.519   6.330  17.766  0.00  0.00    +0.000 A 
ATOM     11  C   UNL     1       6.309   7.574  17.163  0.00  0.00    +0.000 A 
ATOM     12  C   UNL     1       7.170   8.638  17.435  0.00  0.00    +0.000 A 
ENDBRANCH   1  10
BRANCH   3  13
ATOM     13  C   UNL     1       2.753   3.369  18.481  0.00  0.00    +0.000 A 
ATOM     14  C   UNL     1       2.482   3.314  19.835  0.00  0.00    +0.000 A 
ATOM     15  C   UNL     1       1.238   2.653  19.977  0.00  0.00    +0.000 A 
ATOM     16  C   UNL     1       0.825   2.343  18.703  0.00  0.00    +0.000 A 
ATOM     17  O   UNL     1       1.725   2.789  17.789  0.00  0.00    +0.000 OA
ENDBRANCH   3  13
BRANCH   5  18
ATOM     18  C   UNL     1       6.603   4.276  15.365  0.00  0.00    +0.000 C 
ATOM     19  O   UNL     1       7.653   4.891  15.302  0.00  0.00    +0.000 OA
BRANCH  18  20
ATOM     20  O   UNL     1       6.239   3.397  14.397  0.00  0.00    +0.000 OA
ATOM     21  H   UNL     1       6.512   3.652  13.498  0.00  0.00    +0.000 HD
ENDBRANCH  18  20
ENDBRANCH   5  18
TORSDOF 4
ENDMDL
