MODEL 1
REMARK VINA RESULT:      -7.4      0.000      0.000
REMARK  Name = 
REMARK  3 active torsions:
REMARK  status: ('A' for Active; 'I' for Inactive)
REMARK    1  A    between atoms: N_3  and  C_4
REMARK    2  A    between atoms: N_11  and  C_12
REMARK    3  A    between atoms: N_15  and  C_16
REMARK                            x       y       z     vdW  Elec       q    Type
REMARK                         _______ _______ _______ _____ _____    ______ ____
ROOT
ATOM      1  O   UNL     1       2.239   6.734  20.396  0.00  0.00    +0.000 OA
ATOM      2  C   UNL     1       2.160   7.274  19.294  0.00  0.00    +0.000 C 
ATOM      3  N   UNL     1       2.399   6.682  18.086  0.00  0.00    +0.000 N 
ATOM      4  N   UNL     1       1.812   8.588  19.279  0.00  0.00    +0.000 N 
ATOM      5  H   UNL     1       2.605   7.291  17.308  0.00  0.00    +0.000 HD
ATOM      6  H   UNL     1       1.732   8.963  20.218  0.00  0.00    +0.000 HD
ENDROOT
BRANCH   3   7
ATOM      7  C   UNL     1       2.737   5.314  17.893  0.00  0.00    +0.000 A 
ATOM      8  C   UNL     1       1.781   4.293  17.969  0.00  0.00    +0.000 A 
ATOM      9  C   UNL     1       2.145   2.949  17.842  0.00  0.00    +0.000 A 
ATOM     10  C   UNL     1       3.473   2.603  17.620  0.00  0.00    +0.000 A 
ATOM     11  C   UNL     1       4.436   3.604  17.495  0.00  0.00    +0.000 A 
ATOM     12  C   UNL     1       4.068   4.951  17.620  0.00  0.00    +0.000 A 
ATOM     13 BR   UNL     1       5.439   6.260  17.460  0.00  0.00    +0.000 Br
ENDBRANCH   3   7
BRANCH   4  14
ATOM     14  C   UNL     1       1.649   9.528  18.178  0.00  0.00    +0.000 C 
ATOM     15  C   UNL     1       1.584  10.963  18.683  0.00  0.00    +0.000 C 
ATOM     16  C   UNL     1       0.131  11.123  19.137  0.00  0.00    +0.000 C 
ATOM     17  N   UNL     1      -0.638  10.219  18.270  0.00  0.00    +0.000 N 
ATOM     18  C   UNL     1       0.280   9.372  17.486  0.00  0.00    +0.000 C 
BRANCH  17  19
ATOM     19  C   UNL     1      -1.877  10.594  17.768  0.00  0.00    +0.000 A 
ATOM     20  C   UNL     1      -2.790  11.353  18.524  0.00  0.00    +0.000 A 
ATOM     21  C   UNL     1      -4.074  11.665  18.053  0.00  0.00    +0.000 A 
ATOM     22  C   UNL     1      -4.470  11.247  16.790  0.00  0.00    +0.000 A 
ATOM     23  C   UNL     1      -3.562  10.559  16.002  0.00  0.00    +0.000 A 
ATOM     24  F   UNL     1      -3.923  10.171  14.771  0.00  0.00    +0.000 F 
ATOM     25  C   UNL     1      -2.283  10.253  16.469  0.00  0.00    +0.000 A 
ENDBRANCH  17  19
ENDBRANCH   4  14
TORSDOF 3
ENDMDL
MODEL 2
REMARK VINA RESULT:      -7.4      3.967      8.506
REMARK  Name = 
REMARK  3 active torsions:
REMARK  status: ('A' for Active; 'I' for Inactive)
REMARK    1  A    between atoms: N_3  and  C_4
REMARK    2  A    between atoms: N_11  and  C_12
REMARK    3  A    between atoms: N_15  and  C_16
REMARK                            x       y       z     vdW  Elec       q    Type
REMARK                         _______ _______ _______ _____ _____    ______ ____
ROOT
ATOM      1  O   UNL     1       1.801   9.272  22.682  0.00  0.00    +0.000 OA
ATOM      2  C   UNL     1       1.310   8.783  21.667  0.00  0.00    +0.000 C 
ATOM      3  N   UNL     1       0.198   9.228  21.012  0.00  0.00    +0.000 N 
ATOM      4  N   UNL     1       1.931   7.688  21.154  0.00  0.00    +0.000 N 
ATOM      5  H   UNL     1      -0.269   8.575  20.400  0.00  0.00    +0.000 HD
ATOM      6  H   UNL     1       2.696   7.382  21.745  0.00  0.00    +0.000 HD
ENDROOT
BRANCH   3   7
ATOM      7  C   UNL     1      -0.565  10.374  21.372  0.00  0.00    +0.000 A 
ATOM      8  C   UNL     1      -0.875  10.673  22.705  0.00  0.00    +0.000 A 
ATOM      9  C   UNL     1      -1.681  11.767  23.033  0.00  0.00    +0.000 A 
ATOM     10  C   UNL     1      -2.179  12.593  22.032  0.00  0.00    +0.000 A 
ATOM     11  C   UNL     1      -1.846  12.343  20.701  0.00  0.00    +0.000 A 
ATOM     12  C   UNL     1      -1.035  11.247  20.374  0.00  0.00    +0.000 A 
ATOM     13 BR   UNL     1      -0.641  10.955  18.537  0.00  0.00    +0.000 Br
ENDBRANCH   3   7
BRANCH   4  14
ATOM     14  C   UNL     1       1.618   6.857  19.999  0.00  0.00    +0.000 C 
ATOM     15  C   UNL     1       1.598   5.381  20.370  0.00  0.00    +0.000 C 
ATOM     16  C   UNL     1       3.075   4.981  20.355  0.00  0.00    +0.000 C 
ATOM     17  N   UNL     1       3.694   5.862  19.354  0.00  0.00    +0.000 N 
ATOM     18  C   UNL     1       2.735   6.902  18.937  0.00  0.00    +0.000 C 
BRANCH  17  19
ATOM     19  C   UNL     1       4.660   5.381  18.480  0.00  0.00    +0.000 A 
ATOM     20  C   UNL     1       6.001   5.210  18.871  0.00  0.00    +0.000 A 
ATOM     21  C   UNL     1       6.997   4.802  17.970  0.00  0.00    +0.000 A 
ATOM     22  C   UNL     1       6.667   4.523  16.651  0.00  0.00    +0.000 A 
ATOM     23  C   UNL     1       5.340   4.618  16.263  0.00  0.00    +0.000 A 
ATOM     24  F   UNL     1       5.003   4.329  14.998  0.00  0.00    +0.000 F 
ATOM     25  C   UNL     1       4.349   5.020  17.160  0.00  0.00    +0.000 A 
ENDBRANCH  17  19
ENDBRANCH   4  14
TORSDOF 3
ENDMDL
MODEL 3
REMARK VINA RESULT:      -7.3      4.308      8.621
REMARK  Name = 
REMARK  3 active torsions:
REMARK  status: ('A' for Active; 'I' for Inactive)
REMARK    1  A    between atoms: N_3  and  C_4
REMARK    2  A    between atoms: N_11  and  C_12
REMARK    3  A    between atoms: N_15  and  C_16
REMARK                            x       y       z     vdW  Elec       q    Type
REMARK                         _______ _______ _______ _____ _____    ______ ____
ROOT
ATOM      1  O   UNL     1       1.829   8.980  22.528  0.00  0.00    +0.000 OA
ATOM      2  C   UNL     1       1.392   8.546  21.465  0.00  0.00    +0.000 C 
ATOM      3  N   UNL     1       0.330   9.045  20.765  0.00  0.00    +0.000 N 
ATOM      4  N   UNL     1       2.020   7.460  20.942  0.00  0.00    +0.000 N 
ATOM      5  H   UNL     1      -0.112   8.429  20.098  0.00  0.00    +0.000 HD
ATOM      6  H   UNL     1       2.741   7.111  21.565  0.00  0.00    +0.000 HD
ENDROOT
BRANCH   3   7
ATOM      7  C   UNL     1      -0.429  10.192  21.128  0.00  0.00    +0.000 A 
ATOM      8  C   UNL     1      -0.565  10.603  22.461  0.00  0.00    +0.000 A 
ATOM      9  C   UNL     1      -1.369  11.692  22.804  0.00  0.00    +0.000 A 
ATOM     10  C   UNL     1      -2.040  12.405  21.816  0.00  0.00    +0.000 A 
ATOM     11  C   UNL     1      -1.883  12.044  20.478  0.00  0.00    +0.000 A 
ATOM     12  C   UNL     1      -1.075  10.951  20.136  0.00  0.00    +0.000 A 
ATOM     13 BR   UNL     1      -0.926  10.503  18.294  0.00  0.00    +0.000 Br
ENDBRANCH   3   7
BRANCH   4  14
ATOM     14  C   UNL     1       1.761   6.687  19.735  0.00  0.00    +0.000 C 
ATOM     15  C   UNL     1       1.918   5.194  19.992  0.00  0.00    +0.000 C 
ATOM     16  C   UNL     1       3.429   4.967  19.906  0.00  0.00    +0.000 C 
ATOM     17  N   UNL     1       3.911   5.985  18.960  0.00  0.00    +0.000 N 
ATOM     18  C   UNL     1       2.828   6.937  18.651  0.00  0.00    +0.000 C 
BRANCH  17  19
ATOM     19  C   UNL     1       4.893   5.683  18.026  0.00  0.00    +0.000 A 
ATOM     20  C   UNL     1       4.712   5.916  16.650  0.00  0.00    +0.000 A 
ATOM     21  C   UNL     1       5.667   5.539  15.694  0.00  0.00    +0.000 A 
ATOM     22  C   UNL     1       6.852   4.940  16.098  0.00  0.00    +0.000 A 
ATOM     23  C   UNL     1       7.082   4.764  17.453  0.00  0.00    +0.000 A 
ATOM     24  F   UNL     1       8.232   4.209  17.858  0.00  0.00    +0.000 F 
ATOM     25  C   UNL     1       6.133   5.144  18.404  0.00  0.00    +0.000 A 
ENDBRANCH  17  19
ENDBRANCH   4  14
TORSDOF 3
ENDMDL
MODEL 4
REMARK VINA RESULT:      -7.3      4.218      8.478
REMARK  Name = 
REMARK  3 active torsions:
REMARK  status: ('A' for Active; 'I' for Inactive)
REMARK    1  A    between atoms: N_3  and  C_4
REMARK    2  A    between atoms: N_11  and  C_12
REMARK    3  A    between atoms: N_15  and  C_16
REMARK                            x       y       z     vdW  Elec       q    Type
REMARK                         _______ _______ _______ _____ _____    ______ ____
ROOT
ATOM      1  O   UNL     1       1.969   9.366  22.674  0.00  0.00    +0.000 OA
ATOM      2  C   UNL     1       1.371   8.856  21.728  0.00  0.00    +0.000 C 
ATOM      3  N   UNL     1       0.201   9.298  21.180  0.00  0.00    +0.000 N 
ATOM      4  N   UNL     1       1.924   7.741  21.184  0.00  0.00    +0.000 N 
ATOM      5  H   UNL     1      -0.334   8.636  20.637  0.00  0.00    +0.000 HD
ATOM      6  H   UNL     1       2.743   7.440  21.701  0.00  0.00    +0.000 HD
ENDROOT
BRANCH   3   7
ATOM      7  C   UNL     1      -0.509  10.463  21.585  0.00  0.00    +0.000 A 
ATOM      8  C   UNL     1      -1.078  10.582  22.860  0.00  0.00    +0.000 A 
ATOM      9  C   UNL     1      -1.829  11.706  23.216  0.00  0.00    +0.000 A 
ATOM     10  C   UNL     1      -2.008  12.743  22.307  0.00  0.00    +0.000 A 
ATOM     11  C   UNL     1      -1.412  12.669  21.049  0.00  0.00    +0.000 A 
ATOM     12  C   UNL     1      -0.659  11.540  20.694  0.00  0.00    +0.000 A 
ATOM     13 BR   UNL     1       0.105  11.499  18.953  0.00  0.00    +0.000 Br
ENDBRANCH   3   7
BRANCH   4  14
ATOM     14  C   UNL     1       1.485   6.884  20.091  0.00  0.00    +0.000 C 
ATOM     15  C   UNL     1       1.625   5.412  20.452  0.00  0.00    +0.000 C 
ATOM     16  C   UNL     1       3.104   5.113  20.195  0.00  0.00    +0.000 C 
ATOM     17  N   UNL     1       3.491   6.028  19.112  0.00  0.00    +0.000 N 
ATOM     18  C   UNL     1       2.409   6.998  18.862  0.00  0.00    +0.000 C 
BRANCH  17  19
ATOM     19  C   UNL     1       4.333   5.608  18.091  0.00  0.00    +0.000 A 
ATOM     20  C   UNL     1       4.028   4.499  17.280  0.00  0.00    +0.000 A 
ATOM     21  C   UNL     1       4.912   4.022  16.300  0.00  0.00    +0.000 A 
ATOM     22  C   UNL     1       6.122   4.667  16.085  0.00  0.00    +0.000 A 
ATOM     23  C   UNL     1       6.411   5.803  16.823  0.00  0.00    +0.000 A 
ATOM     24  F   UNL     1       7.565   6.450  16.609  0.00  0.00    +0.000 F 
ATOM     25  C   UNL     1       5.530   6.280  17.795  0.00  0.00    +0.000 A 
ENDBRANCH  17  19
ENDBRANCH   4  14
TORSDOF 3
ENDMDL
MODEL 5
REMARK VINA RESULT:      -7.2      1.024      1.422
REMARK  Name = 
REMARK  3 active torsions:
REMARK  status: ('A' for Active; 'I' for Inactive)
REMARK    1  A    between atoms: N_3  and  C_4
REMARK    2  A    between atoms: N_11  and  C_12
REMARK    3  A    between atoms: N_15  and  C_16
REMARK                            x       y       z     vdW  Elec       q    Type
REMARK                         _______ _______ _______ _____ _____    ______ ____
ROOT
ATOM      1  O   UNL     1       1.859   6.611  20.677  0.00  0.00    +0.000 OA
ATOM      2  C   UNL     1       1.883   7.328  19.679  0.00  0.00    +0.000 C 
ATOM      3  N   UNL     1       2.249   6.946  18.420  0.00  0.00    +0.000 N 
ATOM      4  N   UNL     1       1.520   8.626  19.849  0.00  0.00    +0.000 N 
ATOM      5  H   UNL     1       2.523   7.675  17.778  0.00  0.00    +0.000 HD
ATOM      6  H   UNL     1       1.343   8.839  20.824  0.00  0.00    +0.000 HD
ENDROOT
BRANCH   3   7
ATOM      7  C   UNL     1       2.624   5.628  18.036  0.00  0.00    +0.000 A 
ATOM      8  C   UNL     1       1.758   4.536  18.181  0.00  0.00    +0.000 A 
ATOM      9  C   UNL     1       2.168   3.239  17.861  0.00  0.00    +0.000 A 
ATOM     10  C   UNL     1       3.450   3.013  17.370  0.00  0.00    +0.000 A 
ATOM     11  C   UNL     1       4.314   4.089  17.173  0.00  0.00    +0.000 A 
ATOM     12  C   UNL     1       3.899   5.390  17.494  0.00  0.00    +0.000 A 
ATOM     13 BR   UNL     1       5.139   6.806  17.220  0.00  0.00    +0.000 Br
ENDBRANCH   3   7
BRANCH   4  14
ATOM     14  C   UNL     1       1.455   9.738  18.910  0.00  0.00    +0.000 C 
ATOM     15  C   UNL     1       1.047  11.028  19.608  0.00  0.00    +0.000 C 
ATOM     16  C   UNL     1      -0.477  10.921  19.708  0.00  0.00    +0.000 C 
ATOM     17  N   UNL     1      -0.876  10.120  18.543  0.00  0.00    +0.000 N 
ATOM     18  C   UNL     1       0.318   9.559  17.884  0.00  0.00    +0.000 C 
BRANCH  17  19
ATOM     19  C   UNL     1      -2.018  10.435  17.817  0.00  0.00    +0.000 A 
ATOM     20  C   UNL     1      -2.226   9.960  16.509  0.00  0.00    +0.000 A 
ATOM     21  C   UNL     1      -3.337  10.341  15.742  0.00  0.00    +0.000 A 
ATOM     22  C   UNL     1      -4.293  11.191  16.281  0.00  0.00    +0.000 A 
ATOM     23  C   UNL     1      -4.144  11.614  17.591  0.00  0.00    +0.000 A 
ATOM     24  F   UNL     1      -5.071  12.416  18.132  0.00  0.00    +0.000 F 
ATOM     25  C   UNL     1      -3.040  11.232  18.355  0.00  0.00    +0.000 A 
ENDBRANCH  17  19
ENDBRANCH   4  14
TORSDOF 3
ENDMDL
MODEL 6
REMARK VINA RESULT:      -7.0      4.262      8.367
REMARK  Name = 
REMARK  3 active torsions:
REMARK  status: ('A' for Active; 'I' for Inactive)
REMARK    1  A    between atoms: N_3  and  C_4
REMARK    2  A    between atoms: N_11  and  C_12
REMARK    3  A    between atoms: N_15  and  C_16
REMARK                            x       y       z     vdW  Elec       q    Type
REMARK                         _______ _______ _______ _____ _____    ______ ____
ROOT
ATOM      1  O   UNL     1       1.923   9.441  23.016  0.00  0.00    +0.000 OA
ATOM      2  C   UNL     1       1.378   9.040  21.990  0.00  0.00    +0.000 C 
ATOM      3  N   UNL     1       0.331   9.635  21.346  0.00  0.00    +0.000 N 
ATOM      4  N   UNL     1       1.859   7.889  21.450  0.00  0.00    +0.000 N 
ATOM      5  H   UNL     1      -0.212   9.060  20.719  0.00  0.00    +0.000 HD
ATOM      6  H   UNL     1       2.579   7.476  22.034  0.00  0.00    +0.000 HD
ENDROOT
BRANCH   3   7
ATOM      7  C   UNL     1      -0.285  10.859  21.733  0.00  0.00    +0.000 A 
ATOM      8  C   UNL     1      -1.167  10.937  22.819  0.00  0.00    +0.000 A 
ATOM      9  C   UNL     1      -1.813  12.133  23.142  0.00  0.00    +0.000 A 
ATOM     10  C   UNL     1      -1.573  13.281  22.395  0.00  0.00    +0.000 A 
ATOM     11  C   UNL     1      -0.663  13.240  21.339  0.00  0.00    +0.000 A 
ATOM     12  C   UNL     1      -0.015  12.038  21.017  0.00  0.00    +0.000 A 
ATOM     13 BR   UNL     1       1.195  12.052  19.550  0.00  0.00    +0.000 Br
ENDBRANCH   3   7
BRANCH   4  14
ATOM     14  C   UNL     1       1.448   7.131  20.276  0.00  0.00    +0.000 C 
ATOM     15  C   UNL     1       1.479   5.633  20.547  0.00  0.00    +0.000 C 
ATOM     16  C   UNL     1       2.953   5.261  20.367  0.00  0.00    +0.000 C 
ATOM     17  N   UNL     1       3.465   6.217  19.375  0.00  0.00    +0.000 N 
ATOM     18  C   UNL     1       2.460   7.266  19.121  0.00  0.00    +0.000 C 
BRANCH  17  19
ATOM     19  C   UNL     1       4.350   5.812  18.385  0.00  0.00    +0.000 A 
ATOM     20  C   UNL     1       5.373   4.879  18.633  0.00  0.00    +0.000 A 
ATOM     21  C   UNL     1       6.319   4.527  17.659  0.00  0.00    +0.000 A 
ATOM     22  C   UNL     1       6.246   5.084  16.389  0.00  0.00    +0.000 A 
ATOM     23  C   UNL     1       5.205   5.952  16.102  0.00  0.00    +0.000 A 
ATOM     24  F   UNL     1       5.109   6.478  14.873  0.00  0.00    +0.000 F 
ATOM     25  C   UNL     1       4.262   6.298  17.070  0.00  0.00    +0.000 A 
ENDBRANCH  17  19
ENDBRANCH   4  14
TORSDOF 3
ENDMDL
MODEL 7
REMARK VINA RESULT:      -6.9      3.800      5.541
REMARK  Name = 
REMARK  3 active torsions:
REMARK  status: ('A' for Active; 'I' for Inactive)
REMARK    1  A    between atoms: N_3  and  C_4
REMARK    2  A    between atoms: N_11  and  C_12
REMARK    3  A    between atoms: N_15  and  C_16
REMARK                            x       y       z     vdW  Elec       q    Type
REMARK                         _______ _______ _______ _____ _____    ______ ____
ROOT
ATOM      1  O   UNL     1       3.800   1.868  17.291  0.00  0.00    +0.000 OA
ATOM      2  C   UNL     1       3.993   2.778  18.093  0.00  0.00    +0.000 C 
ATOM      3  N   UNL     1       4.774   3.880  17.892  0.00  0.00    +0.000 N 
ATOM      4  N   UNL     1       3.377   2.672  19.300  0.00  0.00    +0.000 N 
ATOM      5  H   UNL     1       5.095   4.375  18.711  0.00  0.00    +0.000 HD
ATOM      6  H   UNL     1       2.885   1.789  19.391  0.00  0.00    +0.000 HD
ENDROOT
BRANCH   3   7
ATOM      7  C   UNL     1       5.468   4.187  16.688  0.00  0.00    +0.000 A 
ATOM      8  C   UNL     1       4.943   3.878  15.427  0.00  0.00    +0.000 A 
ATOM      9  C   UNL     1       5.670   4.127  14.259  0.00  0.00    +0.000 A 
ATOM     10  C   UNL     1       6.931   4.709  14.331  0.00  0.00    +0.000 A 
ATOM     11  C   UNL     1       7.455   5.069  15.572  0.00  0.00    +0.000 A 
ATOM     12  C   UNL     1       6.724   4.819  16.742  0.00  0.00    +0.000 A 
ATOM     13 BR   UNL     1       7.512   5.316  18.400  0.00  0.00    +0.000 Br
ENDBRANCH   3   7
BRANCH   4  14
ATOM     14  C   UNL     1       3.400   3.536  20.472  0.00  0.00    +0.000 C 
ATOM     15  C   UNL     1       2.052   3.543  21.180  0.00  0.00    +0.000 C 
ATOM     16  C   UNL     1       1.218   4.536  20.367  0.00  0.00    +0.000 C 
ATOM     17  N   UNL     1       2.192   5.499  19.834  0.00  0.00    +0.000 N 
ATOM     18  C   UNL     1       3.564   5.021  20.089  0.00  0.00    +0.000 C 
BRANCH  17  19
ATOM     19  C   UNL     1       1.900   6.855  19.782  0.00  0.00    +0.000 A 
ATOM     20  C   UNL     1       1.368   7.547  20.886  0.00  0.00    +0.000 A 
ATOM     21  C   UNL     1       0.996   8.898  20.815  0.00  0.00    +0.000 A 
ATOM     22  C   UNL     1       1.176   9.605  19.634  0.00  0.00    +0.000 A 
ATOM     23  C   UNL     1       1.764   8.963  18.556  0.00  0.00    +0.000 A 
ATOM     24  F   UNL     1       1.966   9.641  17.418  0.00  0.00    +0.000 F 
ATOM     25  C   UNL     1       2.138   7.620  18.629  0.00  0.00    +0.000 A 
ENDBRANCH  17  19
ENDBRANCH   4  14
TORSDOF 3
ENDMDL
MODEL 8
REMARK VINA RESULT:      -6.9      3.916      8.477
REMARK  Name = 
REMARK  3 active torsions:
REMARK  status: ('A' for Active; 'I' for Inactive)
REMARK    1  A    between atoms: N_3  and  C_4
REMARK    2  A    between atoms: N_11  and  C_12
REMARK    3  A    between atoms: N_15  and  C_16
REMARK                            x       y       z     vdW  Elec       q    Type
REMARK                         _______ _______ _______ _____ _____    ______ ____
ROOT
ATOM      1  O   UNL     1       1.689   9.043  22.234  0.00  0.00    +0.000 OA
ATOM      2  C   UNL     1       1.447   8.591  21.117  0.00  0.00    +0.000 C 
ATOM      3  N   UNL     1       0.733   9.211  20.132  0.00  0.00    +0.000 N 
ATOM      4  N   UNL     1       1.929   7.350  20.841  0.00  0.00    +0.000 N 
ATOM      5  H   UNL     1       0.347   8.628  19.405  0.00  0.00    +0.000 HD
ATOM      6  H   UNL     1       2.375   6.935  21.652  0.00  0.00    +0.000 HD
ENDROOT
BRANCH   3   7
ATOM      7  C   UNL     1       0.182  10.520  20.217  0.00  0.00    +0.000 A 
ATOM      8  C   UNL     1      -0.864  10.832  21.095  0.00  0.00    +0.000 A 
ATOM      9  C   UNL     1      -1.437  12.106  21.116  0.00  0.00    +0.000 A 
ATOM     10  C   UNL     1      -0.961  13.100  20.268  0.00  0.00    +0.000 A 
ATOM     11  C   UNL     1       0.110  12.828  19.418  0.00  0.00    +0.000 A 
ATOM     12  C   UNL     1       0.684  11.549  19.400  0.00  0.00    +0.000 A 
ATOM     13 BR   UNL     1       2.127  11.244  18.199  0.00  0.00    +0.000 Br
ENDBRANCH   3   7
BRANCH   4  14
ATOM     14  C   UNL     1       1.815   6.516  19.652  0.00  0.00    +0.000 C 
ATOM     15  C   UNL     1       1.842   5.037  20.011  0.00  0.00    +0.000 C 
ATOM     16  C   UNL     1       3.332   4.730  20.178  0.00  0.00    +0.000 C 
ATOM     17  N   UNL     1       4.014   5.661  19.267  0.00  0.00    +0.000 N 
ATOM     18  C   UNL     1       3.050   6.644  18.739  0.00  0.00    +0.000 C 
BRANCH  17  19
ATOM     19  C   UNL     1       5.109   5.252  18.518  0.00  0.00    +0.000 A 
ATOM     20  C   UNL     1       6.429   5.407  18.980  0.00  0.00    +0.000 A 
ATOM     21  C   UNL     1       7.542   5.071  18.194  0.00  0.00    +0.000 A 
ATOM     22  C   UNL     1       7.359   4.539  16.926  0.00  0.00    +0.000 A 
ATOM     23  C   UNL     1       6.068   4.312  16.478  0.00  0.00    +0.000 A 
ATOM     24  F   UNL     1       5.877   3.776  15.265  0.00  0.00    +0.000 F 
ATOM     25  C   UNL     1       4.961   4.643  17.262  0.00  0.00    +0.000 A 
ENDBRANCH  17  19
ENDBRANCH   4  14
TORSDOF 3
ENDMDL
MODEL 9
REMARK VINA RESULT:      -6.9      3.823      8.598
REMARK  Name = 
REMARK  3 active torsions:
REMARK  status: ('A' for Active; 'I' for Inactive)
REMARK    1  A    between atoms: N_3  and  C_4
REMARK    2  A    between atoms: N_11  and  C_12
REMARK    3  A    between atoms: N_15  and  C_16
REMARK                            x       y       z     vdW  Elec       q    Type
REMARK                         _______ _______ _______ _____ _____    ______ ____
ROOT
ATOM      1  O   UNL     1       1.496   8.963  22.157  0.00  0.00    +0.000 OA
ATOM      2  C   UNL     1       1.397   8.558  21.001  0.00  0.00    +0.000 C 
ATOM      3  N   UNL     1       0.934   9.271  19.932  0.00  0.00    +0.000 N 
ATOM      4  N   UNL     1       1.777   7.274  20.768  0.00  0.00    +0.000 N 
ATOM      5  H   UNL     1       0.614   8.746  19.131  0.00  0.00    +0.000 HD
ATOM      6  H   UNL     1       2.031   6.798  21.627  0.00  0.00    +0.000 HD
ENDROOT
BRANCH   3   7
ATOM      7  C   UNL     1       0.526  10.633  19.967  0.00  0.00    +0.000 A 
ATOM      8  C   UNL     1       1.097  11.559  20.851  0.00  0.00    +0.000 A 
ATOM      9  C   UNL     1       0.636  12.876  20.917  0.00  0.00    +0.000 A 
ATOM     10  C   UNL     1      -0.394  13.299  20.084  0.00  0.00    +0.000 A 
ATOM     11  C   UNL     1      -0.946  12.409  19.163  0.00  0.00    +0.000 A 
ATOM     12  C   UNL     1      -0.482  11.088  19.098  0.00  0.00    +0.000 A 
ATOM     13 BR   UNL     1      -1.297   9.925  17.833  0.00  0.00    +0.000 Br
ENDBRANCH   3   7
BRANCH   4  14
ATOM     14  C   UNL     1       1.774   6.475  19.549  0.00  0.00    +0.000 C 
ATOM     15  C   UNL     1       1.784   4.986  19.865  0.00  0.00    +0.000 C 
ATOM     16  C   UNL     1       3.257   4.684  20.150  0.00  0.00    +0.000 C 
ATOM     17  N   UNL     1       4.005   5.646  19.330  0.00  0.00    +0.000 N 
ATOM     18  C   UNL     1       3.082   6.639  18.750  0.00  0.00    +0.000 C 
BRANCH  17  19
ATOM     19  C   UNL     1       5.165   5.268  18.666  0.00  0.00    +0.000 A 
ATOM     20  C   UNL     1       6.444   5.513  19.199  0.00  0.00    +0.000 A 
ATOM     21  C   UNL     1       7.620   5.207  18.497  0.00  0.00    +0.000 A 
ATOM     22  C   UNL     1       7.544   4.614  17.244  0.00  0.00    +0.000 A 
ATOM     23  C   UNL     1       6.296   4.299  16.731  0.00  0.00    +0.000 A 
ATOM     24  F   UNL     1       6.209   3.705  15.533  0.00  0.00    +0.000 F 
ATOM     25  C   UNL     1       5.127   4.601  17.431  0.00  0.00    +0.000 A 
ENDBRANCH  17  19
ENDBRANCH   4  14
TORSDOF 3
ENDMDL
