MODEL 1
REMARK VINA RESULT:      -6.9      0.000      0.000
REMARK  Name = 
REMARK  12 active torsions:
REMARK  status: ('A' for Active; 'I' for Inactive)
REMARK    1  A    between atoms: C_1  and  C_2
REMARK    2  A    between atoms: C_2  and  O_3
REMARK    3  A    between atoms: O_3  and  C_4
REMARK    4  A    between atoms: C_4  and  C_6
REMARK    5  A    between atoms: C_6  and  O_7
REMARK    6  A    between atoms: O_7  and  C_8
REMARK    7  A    between atoms: C_11  and  C_12
REMARK    8  A    between atoms: N_19  and  C_20
REMARK    9  A    between atoms: C_20  and  C_21
REMARK   10  A    between atoms: C_21  and  O_23
REMARK   11  A    between atoms: O_23  and  C_24
REMARK   12  A    between atoms: C_24  and  C_25
REMARK                            x       y       z     vdW  Elec       q    Type
REMARK                         _______ _______ _______ _____ _____    ______ ____
ROOT
ATOM      1  C   UNL     1       1.869   7.050  19.823  0.00  0.00    +0.000 C 
ATOM      2  C   UNL     1       1.552   8.289  19.419  0.00  0.00    +0.000 C 
ATOM      3  C   UNL     1       2.003   8.967  18.152  0.00  0.00    +0.000 C 
ATOM      4  O   UNL     1       2.739   8.543  17.285  0.00  0.00    +0.000 OA
ATOM      5  N   UNL     1       1.405  10.191  18.179  0.00  0.00    +0.000 N 
ATOM      6  C   UNL     1       0.630  10.352  19.290  0.00  0.00    +0.000 C 
ATOM      7  O   UNL     1      -0.035  11.343  19.543  0.00  0.00    +0.000 OA
ATOM      8  N   UNL     1       0.745   9.206  20.067  0.00  0.00    +0.000 N 
ATOM      9  H   UNL     1       1.509  10.883  17.458  0.00  0.00    +0.000 HD
ENDROOT
BRANCH   1  13
ATOM     10  C   UNL     1       4.433   4.443  17.611  0.00  0.00    +0.000 A 
ATOM     11  C   UNL     1       3.064   4.478  17.346  0.00  0.00    +0.000 A 
ATOM     12  C   UNL     1       2.230   5.333  18.072  0.00  0.00    +0.000 A 
ATOM     13  C   UNL     1       2.755   6.146  19.082  0.00  0.00    +0.000 A 
ATOM     14  C   UNL     1       4.122   6.077  19.374  0.00  0.00    +0.000 A 
ATOM     15  C   UNL     1       4.956   5.224  18.643  0.00  0.00    +0.000 A 
BRANCH  10  16
ATOM     16  O   UNL     1       5.334   3.676  16.924  0.00  0.00    +0.000 OA
BRANCH  16  17
ATOM     17  C   UNL     1       6.626   4.256  16.786  0.00  0.00    +0.000 C 
BRANCH  17  18
ATOM     18  C   UNL     1       6.596   5.467  15.871  0.00  0.00    +0.000 C 
ATOM     19  O   UNL     1       5.949   5.579  14.840  0.00  0.00    +0.000 OA
BRANCH  18  20
ATOM     20  O   UNL     1       7.504   6.384  16.332  0.00  0.00    +0.000 OA
BRANCH  20  22
ATOM     21  C   UNL     1       8.066   7.971  18.026  0.00  0.00    +0.000 C 
ATOM     22  C   UNL     1       6.953   7.427  17.146  0.00  0.00    +0.000 C 
ENDBRANCH  20  22
ENDBRANCH  18  20
ENDBRANCH  17  18
ENDBRANCH  16  17
ENDBRANCH  10  16
ENDBRANCH   1  13
BRANCH   8  23
ATOM     23  C   UNL     1       0.089   9.083  21.355  0.00  0.00    +0.000 C 
BRANCH  23  24
ATOM     24  C   UNL     1       0.833   9.635  22.561  0.00  0.00    +0.000 C 
ATOM     25  O   UNL     1       2.020   9.404  22.764  0.00  0.00    +0.000 OA
BRANCH  24  26
ATOM     26  O   UNL     1       0.010  10.288  23.425  0.00  0.00    +0.000 OA
BRANCH  26  27
ATOM     27  C   UNL     1      -1.243  10.710  22.871  0.00  0.00    +0.000 C 
ATOM     28  C   UNL     1      -1.295  12.226  22.958  0.00  0.00    +0.000 C 
ENDBRANCH  26  27
ENDBRANCH  24  26
ENDBRANCH  23  24
ENDBRANCH   8  23
TORSDOF 10
ENDMDL
MODEL 2
REMARK VINA RESULT:      -6.9      0.991      1.828
REMARK  Name = 
REMARK  12 active torsions:
REMARK  status: ('A' for Active; 'I' for Inactive)
REMARK    1  A    between atoms: C_1  and  C_2
REMARK    2  A    between atoms: C_2  and  O_3
REMARK    3  A    between atoms: O_3  and  C_4
REMARK    4  A    between atoms: C_4  and  C_6
REMARK    5  A    between atoms: C_6  and  O_7
REMARK    6  A    between atoms: O_7  and  C_8
REMARK    7  A    between atoms: C_11  and  C_12
REMARK    8  A    between atoms: N_19  and  C_20
REMARK    9  A    between atoms: C_20  and  C_21
REMARK   10  A    between atoms: C_21  and  O_23
REMARK   11  A    between atoms: O_23  and  C_24
REMARK   12  A    between atoms: C_24  and  C_25
REMARK                            x       y       z     vdW  Elec       q    Type
REMARK                         _______ _______ _______ _____ _____    ______ ____
ROOT
ATOM      1  C   UNL     1       1.799   7.171  19.743  0.00  0.00    +0.000 C 
ATOM      2  C   UNL     1       1.532   8.411  19.306  0.00  0.00    +0.000 C 
ATOM      3  C   UNL     1       2.065   9.062  18.058  0.00  0.00    +0.000 C 
ATOM      4  O   UNL     1       2.838   8.610  17.237  0.00  0.00    +0.000 OA
ATOM      5  N   UNL     1       1.494  10.298  18.036  0.00  0.00    +0.000 N 
ATOM      6  C   UNL     1       0.663  10.491  19.101  0.00  0.00    +0.000 C 
ATOM      7  O   UNL     1       0.007  11.500  19.304  0.00  0.00    +0.000 OA
ATOM      8  N   UNL     1       0.710   9.354  19.898  0.00  0.00    +0.000 N 
ATOM      9  H   UNL     1       1.652  10.977  17.313  0.00  0.00    +0.000 HD
ENDROOT
BRANCH   1  13
ATOM     10  C   UNL     1       4.420   4.478  17.709  0.00  0.00    +0.000 A 
ATOM     11  C   UNL     1       3.058   4.498  17.410  0.00  0.00    +0.000 A 
ATOM     12  C   UNL     1       2.205   5.381  18.078  0.00  0.00    +0.000 A 
ATOM     13  C   UNL     1       2.704   6.239  19.064  0.00  0.00    +0.000 A 
ATOM     14  C   UNL     1       4.064   6.187  19.391  0.00  0.00    +0.000 A 
ATOM     15  C   UNL     1       4.916   5.305  18.718  0.00  0.00    +0.000 A 
BRANCH  10  16
ATOM     16  O   UNL     1       5.339   3.685  17.077  0.00  0.00    +0.000 OA
BRANCH  16  17
ATOM     17  C   UNL     1       6.657   4.219  17.034  0.00  0.00    +0.000 C 
BRANCH  17  18
ATOM     18  C   UNL     1       6.870   5.071  15.795  0.00  0.00    +0.000 C 
ATOM     19  O   UNL     1       7.527   6.099  15.729  0.00  0.00    +0.000 OA
BRANCH  18  20
ATOM     20  O   UNL     1       6.112   4.557  14.777  0.00  0.00    +0.000 OA
BRANCH  20  22
ATOM     21  C   UNL     1       5.982   3.438  12.671  0.00  0.00    +0.000 C 
ATOM     22  C   UNL     1       6.805   4.379  13.535  0.00  0.00    +0.000 C 
ENDBRANCH  20  22
ENDBRANCH  18  20
ENDBRANCH  17  18
ENDBRANCH  16  17
ENDBRANCH  10  16
ENDBRANCH   1  13
BRANCH   8  23
ATOM     23  C   UNL     1      -0.017   9.263  21.149  0.00  0.00    +0.000 C 
BRANCH  23  24
ATOM     24  C   UNL     1       0.700   9.749  22.398  0.00  0.00    +0.000 C 
ATOM     25  O   UNL     1       1.850   9.420  22.667  0.00  0.00    +0.000 OA
BRANCH  24  26
ATOM     26  O   UNL     1      -0.113  10.468  23.218  0.00  0.00    +0.000 OA
BRANCH  26  27
ATOM     27  C   UNL     1      -0.811  11.551  22.588  0.00  0.00    +0.000 C 
ATOM     28  C   UNL     1      -2.147  11.707  23.294  0.00  0.00    +0.000 C 
ENDBRANCH  26  27
ENDBRANCH  24  26
ENDBRANCH  23  24
ENDBRANCH   8  23
TORSDOF 10
ENDMDL
MODEL 3
REMARK VINA RESULT:      -6.7      2.398      4.368
REMARK  Name = 
REMARK  12 active torsions:
REMARK  status: ('A' for Active; 'I' for Inactive)
REMARK    1  A    between atoms: C_1  and  C_2
REMARK    2  A    between atoms: C_2  and  O_3
REMARK    3  A    between atoms: O_3  and  C_4
REMARK    4  A    between atoms: C_4  and  C_6
REMARK    5  A    between atoms: C_6  and  O_7
REMARK    6  A    between atoms: O_7  and  C_8
REMARK    7  A    between atoms: C_11  and  C_12
REMARK    8  A    between atoms: N_19  and  C_20
REMARK    9  A    between atoms: C_20  and  C_21
REMARK   10  A    between atoms: C_21  and  O_23
REMARK   11  A    between atoms: O_23  and  C_24
REMARK   12  A    between atoms: C_24  and  C_25
REMARK                            x       y       z     vdW  Elec       q    Type
REMARK                         _______ _______ _______ _____ _____    ______ ____
ROOT
ATOM      1  C   UNL     1       1.837   8.672  18.324  0.00  0.00    +0.000 C 
ATOM      2  C   UNL     1       1.418   9.092  19.527  0.00  0.00    +0.000 C 
ATOM      3  C   UNL     1       1.451   8.315  20.815  0.00  0.00    +0.000 C 
ATOM      4  O   UNL     1       1.832   7.177  21.006  0.00  0.00    +0.000 OA
ATOM      5  N   UNL     1       0.946   9.166  21.751  0.00  0.00    +0.000 N 
ATOM      6  C   UNL     1       0.621  10.376  21.211  0.00  0.00    +0.000 C 
ATOM      7  O   UNL     1       0.176  11.326  21.836  0.00  0.00    +0.000 OA
ATOM      8  N   UNL     1       0.875  10.324  19.847  0.00  0.00    +0.000 N 
ATOM      9  H   UNL     1       0.845   8.936  22.723  0.00  0.00    +0.000 HD
ENDROOT
BRANCH   1  13
ATOM     10  C   UNL     1       3.390   4.772  17.521  0.00  0.00    +0.000 A 
ATOM     11  C   UNL     1       2.021   4.961  17.713  0.00  0.00    +0.000 A 
ATOM     12  C   UNL     1       1.518   6.239  17.975  0.00  0.00    +0.000 A 
ATOM     13  C   UNL     1       2.382   7.335  18.065  0.00  0.00    +0.000 A 
ATOM     14  C   UNL     1       3.759   7.135  17.915  0.00  0.00    +0.000 A 
ATOM     15  C   UNL     1       4.259   5.856  17.648  0.00  0.00    +0.000 A 
BRANCH  10  16
ATOM     16  O   UNL     1       3.968   3.571  17.214  0.00  0.00    +0.000 OA
BRANCH  16  17
ATOM     17  C   UNL     1       3.624   2.504  18.090  0.00  0.00    +0.000 C 
BRANCH  17  18
ATOM     18  C   UNL     1       4.217   2.708  19.473  0.00  0.00    +0.000 C 
ATOM     19  O   UNL     1       5.346   3.104  19.724  0.00  0.00    +0.000 OA
BRANCH  18  20
ATOM     20  O   UNL     1       3.314   2.267  20.404  0.00  0.00    +0.000 OA
BRANCH  20  22
ATOM     21  C   UNL     1       1.255   3.358  20.926  0.00  0.00    +0.000 C 
ATOM     22  C   UNL     1       1.940   2.360  20.007  0.00  0.00    +0.000 C 
ENDBRANCH  20  22
ENDBRANCH  18  20
ENDBRANCH  17  18
ENDBRANCH  16  17
ENDBRANCH  10  16
ENDBRANCH   1  13
BRANCH   8  23
ATOM     23  C   UNL     1       0.574  11.436  18.967  0.00  0.00    +0.000 C 
BRANCH  23  24
ATOM     24  C   UNL     1      -0.842  11.516  18.418  0.00  0.00    +0.000 C 
ATOM     25  O   UNL     1      -1.646  12.364  18.791  0.00  0.00    +0.000 OA
BRANCH  24  26
ATOM     26  O   UNL     1      -1.136  10.481  17.586  0.00  0.00    +0.000 OA
BRANCH  26  27
ATOM     27  C   UNL     1      -2.480   9.989  17.676  0.00  0.00    +0.000 C 
ATOM     28  C   UNL     1      -3.032   9.902  16.263  0.00  0.00    +0.000 C 
ENDBRANCH  26  27
ENDBRANCH  24  26
ENDBRANCH  23  24
ENDBRANCH   8  23
TORSDOF 10
ENDMDL
MODEL 4
REMARK VINA RESULT:      -6.6      2.534      4.431
REMARK  Name = 
REMARK  12 active torsions:
REMARK  status: ('A' for Active; 'I' for Inactive)
REMARK    1  A    between atoms: C_1  and  C_2
REMARK    2  A    between atoms: C_2  and  O_3
REMARK    3  A    between atoms: O_3  and  C_4
REMARK    4  A    between atoms: C_4  and  C_6
REMARK    5  A    between atoms: C_6  and  O_7
REMARK    6  A    between atoms: O_7  and  C_8
REMARK    7  A    between atoms: C_11  and  C_12
REMARK    8  A    between atoms: N_19  and  C_20
REMARK    9  A    between atoms: C_20  and  C_21
REMARK   10  A    between atoms: C_21  and  O_23
REMARK   11  A    between atoms: O_23  and  C_24
REMARK   12  A    between atoms: C_24  and  C_25
REMARK                            x       y       z     vdW  Elec       q    Type
REMARK                         _______ _______ _______ _____ _____    ______ ____
ROOT
ATOM      1  C   UNL     1       2.072   8.310  18.236  0.00  0.00    +0.000 C 
ATOM      2  C   UNL     1       1.543   8.759  19.384  0.00  0.00    +0.000 C 
ATOM      3  C   UNL     1       1.453   8.013  20.688  0.00  0.00    +0.000 C 
ATOM      4  O   UNL     1       1.812   6.880  20.941  0.00  0.00    +0.000 OA
ATOM      5  N   UNL     1       0.864   8.886  21.552  0.00  0.00    +0.000 N 
ATOM      6  C   UNL     1       0.593  10.082  20.955  0.00  0.00    +0.000 C 
ATOM      7  O   UNL     1       0.093  11.047  21.513  0.00  0.00    +0.000 OA
ATOM      8  N   UNL     1       0.974   9.998  19.622  0.00  0.00    +0.000 N 
ATOM      9  H   UNL     1       0.671   8.679  22.515  0.00  0.00    +0.000 HD
ENDROOT
BRANCH   1  13
ATOM     10  C   UNL     1       3.745   4.404  17.786  0.00  0.00    +0.000 A 
ATOM     11  C   UNL     1       4.569   5.499  18.042  0.00  0.00    +0.000 A 
ATOM     12  C   UNL     1       4.017   6.775  18.190  0.00  0.00    +0.000 A 
ATOM     13  C   UNL     1       2.637   6.969  18.062  0.00  0.00    +0.000 A 
ATOM     14  C   UNL     1       1.818   5.875  17.762  0.00  0.00    +0.000 A 
ATOM     15  C   UNL     1       2.373   4.598  17.620  0.00  0.00    +0.000 A 
BRANCH  10  16
ATOM     16  O   UNL     1       4.186   3.114  17.673  0.00  0.00    +0.000 OA
BRANCH  16  17
ATOM     17  C   UNL     1       3.541   2.187  18.539  0.00  0.00    +0.000 C 
BRANCH  17  18
ATOM     18  C   UNL     1       4.094   2.268  19.950  0.00  0.00    +0.000 C 
ATOM     19  O   UNL     1       5.222   1.957  20.304  0.00  0.00    +0.000 OA
BRANCH  18  20
ATOM     20  O   UNL     1       3.083   2.645  20.794  0.00  0.00    +0.000 OA
BRANCH  20  22
ATOM     21  C   UNL     1       0.884   3.560  20.618  0.00  0.00    +0.000 C 
ATOM     22  C   UNL     1       1.761   2.354  20.324  0.00  0.00    +0.000 C 
ENDBRANCH  20  22
ENDBRANCH  18  20
ENDBRANCH  17  18
ENDBRANCH  16  17
ENDBRANCH  10  16
ENDBRANCH   1  13
BRANCH   8  23
ATOM     23  C   UNL     1       0.759  11.089  18.691  0.00  0.00    +0.000 C 
BRANCH  23  24
ATOM     24  C   UNL     1       1.871  12.120  18.573  0.00  0.00    +0.000 C 
ATOM     25  O   UNL     1       2.834  11.967  17.830  0.00  0.00    +0.000 OA
BRANCH  24  26
ATOM     26  O   UNL     1       1.731  13.140  19.462  0.00  0.00    +0.000 OA
BRANCH  26  27
ATOM     27  C   UNL     1       0.919  14.233  19.013  0.00  0.00    +0.000 C 
ATOM     28  C   UNL     1       1.846  15.397  18.709  0.00  0.00    +0.000 C 
ENDBRANCH  26  27
ENDBRANCH  24  26
ENDBRANCH  23  24
ENDBRANCH   8  23
TORSDOF 10
ENDMDL
MODEL 5
REMARK VINA RESULT:      -6.6      2.859      8.055
REMARK  Name = 
REMARK  12 active torsions:
REMARK  status: ('A' for Active; 'I' for Inactive)
REMARK    1  A    between atoms: C_1  and  C_2
REMARK    2  A    between atoms: C_2  and  O_3
REMARK    3  A    between atoms: O_3  and  C_4
REMARK    4  A    between atoms: C_4  and  C_6
REMARK    5  A    between atoms: C_6  and  O_7
REMARK    6  A    between atoms: O_7  and  C_8
REMARK    7  A    between atoms: C_11  and  C_12
REMARK    8  A    between atoms: N_19  and  C_20
REMARK    9  A    between atoms: C_20  and  C_21
REMARK   10  A    between atoms: C_21  and  O_23
REMARK   11  A    between atoms: O_23  and  C_24
REMARK   12  A    between atoms: C_24  and  C_25
REMARK                            x       y       z     vdW  Elec       q    Type
REMARK                         _______ _______ _______ _____ _____    ______ ____
ROOT
ATOM      1  C   UNL     1       3.356   6.599  18.482  0.00  0.00    +0.000 C 
ATOM      2  C   UNL     1       3.271   5.356  18.979  0.00  0.00    +0.000 C 
ATOM      3  C   UNL     1       2.195   4.819  19.885  0.00  0.00    +0.000 C 
ATOM      4  O   UNL     1       1.233   5.399  20.348  0.00  0.00    +0.000 OA
ATOM      5  N   UNL     1       2.531   3.515  20.093  0.00  0.00    +0.000 N 
ATOM      6  C   UNL     1       3.666   3.172  19.419  0.00  0.00    +0.000 C 
ATOM      7  O   UNL     1       4.168   2.059  19.412  0.00  0.00    +0.000 OA
ATOM      8  N   UNL     1       4.141   4.302  18.765  0.00  0.00    +0.000 N 
ATOM      9  H   UNL     1       1.996   2.881  20.658  0.00  0.00    +0.000 HD
ENDROOT
BRANCH   1  13
ATOM     10  C   UNL     1       0.524   9.691  19.305  0.00  0.00    +0.000 A 
ATOM     11  C   UNL     1       0.956   9.460  17.999  0.00  0.00    +0.000 A 
ATOM     12  C   UNL     1       1.882   8.447  17.735  0.00  0.00    +0.000 A 
ATOM     13  C   UNL     1       2.398   7.669  18.778  0.00  0.00    +0.000 A 
ATOM     14  C   UNL     1       1.994   7.932  20.091  0.00  0.00    +0.000 A 
ATOM     15  C   UNL     1       1.064   8.944  20.352  0.00  0.00    +0.000 A 
BRANCH  10  16
ATOM     16  O   UNL     1      -0.413  10.626  19.655  0.00  0.00    +0.000 OA
BRANCH  16  17
ATOM     17  C   UNL     1      -1.579  10.633  18.840  0.00  0.00    +0.000 C 
BRANCH  17  18
ATOM     18  C   UNL     1      -1.644  11.879  17.975  0.00  0.00    +0.000 C 
ATOM     19  O   UNL     1      -1.210  12.984  18.265  0.00  0.00    +0.000 OA
BRANCH  18  20
ATOM     20  O   UNL     1      -2.372  11.592  16.851  0.00  0.00    +0.000 OA
BRANCH  20  22
ATOM     21  C   UNL     1      -2.987  10.086  15.102  0.00  0.00    +0.000 C 
ATOM     22  C   UNL     1      -2.456  10.200  16.521  0.00  0.00    +0.000 C 
ENDBRANCH  20  22
ENDBRANCH  18  20
ENDBRANCH  17  18
ENDBRANCH  16  17
ENDBRANCH  10  16
ENDBRANCH   1  13
BRANCH   8  23
ATOM     23  C   UNL     1       5.376   4.287  18.006  0.00  0.00    +0.000 C 
BRANCH  23  24
ATOM     24  C   UNL     1       6.540   5.087  18.570  0.00  0.00    +0.000 C 
ATOM     25  O   UNL     1       6.730   5.212  19.775  0.00  0.00    +0.000 OA
BRANCH  24  26
ATOM     26  O   UNL     1       7.243   5.734  17.602  0.00  0.00    +0.000 OA
BRANCH  26  27
ATOM     27  C   UNL     1       6.774   7.052  17.286  0.00  0.00    +0.000 C 
ATOM     28  C   UNL     1       7.872   8.032  17.663  0.00  0.00    +0.000 C 
ENDBRANCH  26  27
ENDBRANCH  24  26
ENDBRANCH  23  24
ENDBRANCH   8  23
TORSDOF 10
ENDMDL
MODEL 6
REMARK VINA RESULT:      -6.6      2.639      8.207
REMARK  Name = 
REMARK  12 active torsions:
REMARK  status: ('A' for Active; 'I' for Inactive)
REMARK    1  A    between atoms: C_1  and  C_2
REMARK    2  A    between atoms: C_2  and  O_3
REMARK    3  A    between atoms: O_3  and  C_4
REMARK    4  A    between atoms: C_4  and  C_6
REMARK    5  A    between atoms: C_6  and  O_7
REMARK    6  A    between atoms: O_7  and  C_8
REMARK    7  A    between atoms: C_11  and  C_12
REMARK    8  A    between atoms: N_19  and  C_20
REMARK    9  A    between atoms: C_20  and  C_21
REMARK   10  A    between atoms: C_21  and  O_23
REMARK   11  A    between atoms: O_23  and  C_24
REMARK   12  A    between atoms: C_24  and  C_25
REMARK                            x       y       z     vdW  Elec       q    Type
REMARK                         _______ _______ _______ _____ _____    ______ ____
ROOT
ATOM      1  C   UNL     1       3.860   7.317  17.782  0.00  0.00    +0.000 C 
ATOM      2  C   UNL     1       3.871   6.000  17.529  0.00  0.00    +0.000 C 
ATOM      3  C   UNL     1       2.741   5.030  17.750  0.00  0.00    +0.000 C 
ATOM      4  O   UNL     1       1.636   5.243  18.208  0.00  0.00    +0.000 OA
ATOM      5  N   UNL     1       3.222   3.829  17.324  0.00  0.00    +0.000 N 
ATOM      6  C   UNL     1       4.498   3.933  16.854  0.00  0.00    +0.000 C 
ATOM      7  O   UNL     1       5.150   3.012  16.388  0.00  0.00    +0.000 OA
ATOM      8  N   UNL     1       4.911   5.250  17.009  0.00  0.00    +0.000 N 
ATOM      9  H   UNL     1       2.692   2.975  17.338  0.00  0.00    +0.000 HD
ENDROOT
BRANCH   1  13
ATOM     10  C   UNL     1       0.494   9.383  19.415  0.00  0.00    +0.000 A 
ATOM     11  C   UNL     1       0.903   9.625  18.104  0.00  0.00    +0.000 A 
ATOM     12  C   UNL     1       2.005   8.947  17.574  0.00  0.00    +0.000 A 
ATOM     13  C   UNL     1       2.718   8.033  18.358  0.00  0.00    +0.000 A 
ATOM     14  C   UNL     1       2.331   7.824  19.686  0.00  0.00    +0.000 A 
ATOM     15  C   UNL     1       1.225   8.502  20.212  0.00  0.00    +0.000 A 
BRANCH  10  16
ATOM     16  O   UNL     1      -0.596   9.962  20.003  0.00  0.00    +0.000 OA
BRANCH  16  17
ATOM     17  C   UNL     1      -0.619  11.383  19.947  0.00  0.00    +0.000 C 
BRANCH  17  18
ATOM     18  C   UNL     1      -1.905  11.893  19.319  0.00  0.00    +0.000 C 
ATOM     19  O   UNL     1      -2.935  12.178  19.912  0.00  0.00    +0.000 OA
BRANCH  18  20
ATOM     20  O   UNL     1      -1.761  11.878  17.957  0.00  0.00    +0.000 OA
BRANCH  20  22
ATOM     21  C   UNL     1      -2.404   9.979  16.659  0.00  0.00    +0.000 C 
ATOM     22  C   UNL     1      -2.861  11.308  17.237  0.00  0.00    +0.000 C 
ENDBRANCH  20  22
ENDBRANCH  18  20
ENDBRANCH  17  18
ENDBRANCH  16  17
ENDBRANCH  10  16
ENDBRANCH   1  13
BRANCH   8  23
ATOM     23  C   UNL     1       6.251   5.680  16.662  0.00  0.00    +0.000 C 
BRANCH  23  24
ATOM     24  C   UNL     1       7.312   5.571  17.746  0.00  0.00    +0.000 C 
ATOM     25  O   UNL     1       7.777   4.495  18.105  0.00  0.00    +0.000 OA
BRANCH  24  26
ATOM     26  O   UNL     1       7.574   6.766  18.339  0.00  0.00    +0.000 OA
BRANCH  26  27
ATOM     27  C   UNL     1       7.591   7.894  17.453  0.00  0.00    +0.000 C 
ATOM     28  C   UNL     1       8.337   9.016  18.156  0.00  0.00    +0.000 C 
ENDBRANCH  26  27
ENDBRANCH  24  26
ENDBRANCH  23  24
ENDBRANCH   8  23
TORSDOF 10
ENDMDL
MODEL 7
REMARK VINA RESULT:      -6.5      2.443      3.705
REMARK  Name = 
REMARK  12 active torsions:
REMARK  status: ('A' for Active; 'I' for Inactive)
REMARK    1  A    between atoms: C_1  and  C_2
REMARK    2  A    between atoms: C_2  and  O_3
REMARK    3  A    between atoms: O_3  and  C_4
REMARK    4  A    between atoms: C_4  and  C_6
REMARK    5  A    between atoms: C_6  and  O_7
REMARK    6  A    between atoms: O_7  and  C_8
REMARK    7  A    between atoms: C_11  and  C_12
REMARK    8  A    between atoms: N_19  and  C_20
REMARK    9  A    between atoms: C_20  and  C_21
REMARK   10  A    between atoms: C_21  and  O_23
REMARK   11  A    between atoms: O_23  and  C_24
REMARK   12  A    between atoms: C_24  and  C_25
REMARK                            x       y       z     vdW  Elec       q    Type
REMARK                         _______ _______ _______ _____ _____    ______ ____
ROOT
ATOM      1  C   UNL     1       1.598   8.667  18.010  0.00  0.00    +0.000 C 
ATOM      2  C   UNL     1       1.083   9.089  19.174  0.00  0.00    +0.000 C 
ATOM      3  C   UNL     1       1.356   8.517  20.540  0.00  0.00    +0.000 C 
ATOM      4  O   UNL     1       2.059   7.574  20.841  0.00  0.00    +0.000 OA
ATOM      5  N   UNL     1       0.629   9.290  21.395  0.00  0.00    +0.000 N 
ATOM      6  C   UNL     1      -0.045  10.276  20.736  0.00  0.00    +0.000 C 
ATOM      7  O   UNL     1      -0.746  11.122  21.268  0.00  0.00    +0.000 OA
ATOM      8  N   UNL     1       0.202  10.136  19.376  0.00  0.00    +0.000 N 
ATOM      9  H   UNL     1       0.609   9.160  22.390  0.00  0.00    +0.000 HD
ENDROOT
BRANCH   1  13
ATOM     10  C   UNL     1       4.230   5.328  17.587  0.00  0.00    +0.000 A 
ATOM     11  C   UNL     1       2.872   5.129  17.832  0.00  0.00    +0.000 A 
ATOM     12  C   UNL     1       2.015   6.225  17.969  0.00  0.00    +0.000 A 
ATOM     13  C   UNL     1       2.513   7.529  17.881  0.00  0.00    +0.000 A 
ATOM     14  C   UNL     1       3.884   7.725  17.678  0.00  0.00    +0.000 A 
ATOM     15  C   UNL     1       4.738   6.626  17.537  0.00  0.00    +0.000 A 
BRANCH  10  16
ATOM     16  O   UNL     1       5.136   4.321  17.392  0.00  0.00    +0.000 OA
BRANCH  16  17
ATOM     17  C   UNL     1       5.409   4.022  16.028  0.00  0.00    +0.000 C 
BRANCH  17  18
ATOM     18  C   UNL     1       6.843   4.362  15.662  0.00  0.00    +0.000 C 
ATOM     19  O   UNL     1       7.778   4.483  16.439  0.00  0.00    +0.000 OA
BRANCH  18  20
ATOM     20  O   UNL     1       6.899   4.623  14.318  0.00  0.00    +0.000 OA
BRANCH  20  22
ATOM     21  C   UNL     1       6.679   3.536  12.203  0.00  0.00    +0.000 C 
ATOM     22  C   UNL     1       5.985   3.866  13.514  0.00  0.00    +0.000 C 
ENDBRANCH  20  22
ENDBRANCH  18  20
ENDBRANCH  17  18
ENDBRANCH  16  17
ENDBRANCH  10  16
ENDBRANCH   1  13
BRANCH   8  23
ATOM     23  C   UNL     1      -0.423  10.996  18.390  0.00  0.00    +0.000 C 
BRANCH  23  24
ATOM     24  C   UNL     1      -1.722  10.503  17.772  0.00  0.00    +0.000 C 
ATOM     25  O   UNL     1      -1.754   9.612  16.929  0.00  0.00    +0.000 OA
BRANCH  24  26
ATOM     26  O   UNL     1      -2.796  11.240  18.162  0.00  0.00    +0.000 OA
BRANCH  26  27
ATOM     27  C   UNL     1      -3.858  11.326  17.202  0.00  0.00    +0.000 C 
ATOM     28  C   UNL     1      -5.169  11.185  17.956  0.00  0.00    +0.000 C 
ENDBRANCH  26  27
ENDBRANCH  24  26
ENDBRANCH  23  24
ENDBRANCH   8  23
TORSDOF 10
ENDMDL
MODEL 8
REMARK VINA RESULT:      -6.5      2.603      8.314
REMARK  Name = 
REMARK  12 active torsions:
REMARK  status: ('A' for Active; 'I' for Inactive)
REMARK    1  A    between atoms: C_1  and  C_2
REMARK    2  A    between atoms: C_2  and  O_3
REMARK    3  A    between atoms: O_3  and  C_4
REMARK    4  A    between atoms: C_4  and  C_6
REMARK    5  A    between atoms: C_6  and  O_7
REMARK    6  A    between atoms: O_7  and  C_8
REMARK    7  A    between atoms: C_11  and  C_12
REMARK    8  A    between atoms: N_19  and  C_20
REMARK    9  A    between atoms: C_20  and  C_21
REMARK   10  A    between atoms: C_21  and  O_23
REMARK   11  A    between atoms: O_23  and  C_24
REMARK   12  A    between atoms: C_24  and  C_25
REMARK                            x       y       z     vdW  Elec       q    Type
REMARK                         _______ _______ _______ _____ _____    ______ ____
ROOT
ATOM      1  C   UNL     1       3.739   6.835  18.138  0.00  0.00    +0.000 C 
ATOM      2  C   UNL     1       3.586   5.538  17.836  0.00  0.00    +0.000 C 
ATOM      3  C   UNL     1       2.305   4.749  17.869  0.00  0.00    +0.000 C 
ATOM      4  O   UNL     1       1.193   5.119  18.190  0.00  0.00    +0.000 OA
ATOM      5  N   UNL     1       2.654   3.496  17.461  0.00  0.00    +0.000 N 
ATOM      6  C   UNL     1       3.982   3.413  17.164  0.00  0.00    +0.000 C 
ATOM      7  O   UNL     1       4.547   2.413  16.749  0.00  0.00    +0.000 OA
ATOM      8  N   UNL     1       4.563   4.648  17.424  0.00  0.00    +0.000 N 
ATOM      9  H   UNL     1       2.006   2.734  17.373  0.00  0.00    +0.000 HD
ENDROOT
BRANCH   1  13
ATOM     10  C   UNL     1       0.601   9.395  19.502  0.00  0.00    +0.000 A 
ATOM     11  C   UNL     1       1.182   8.469  20.367  0.00  0.00    +0.000 A 
ATOM     12  C   UNL     1       2.208   7.634  19.917  0.00  0.00    +0.000 A 
ATOM     13  C   UNL     1       2.649   7.706  18.591  0.00  0.00    +0.000 A 
ATOM     14  C   UNL     1       2.035   8.607  17.714  0.00  0.00    +0.000 A 
ATOM     15  C   UNL     1       1.011   9.445  18.169  0.00  0.00    +0.000 A 
BRANCH  10  16
ATOM     16  O   UNL     1      -0.374  10.285  19.863  0.00  0.00    +0.000 OA
BRANCH  16  17
ATOM     17  C   UNL     1      -0.282  11.557  19.234  0.00  0.00    +0.000 C 
BRANCH  17  18
ATOM     18  C   UNL     1      -1.614  12.285  19.257  0.00  0.00    +0.000 C 
ATOM     19  O   UNL     1      -1.863  13.319  19.860  0.00  0.00    +0.000 OA
BRANCH  18  20
ATOM     20  O   UNL     1      -2.534  11.534  18.575  0.00  0.00    +0.000 OA
BRANCH  20  22
ATOM     21  C   UNL     1      -2.609   9.889  16.845  0.00  0.00    +0.000 C 
ATOM     22  C   UNL     1      -2.237  11.322  17.189  0.00  0.00    +0.000 C 
ENDBRANCH  20  22
ENDBRANCH  18  20
ENDBRANCH  17  18
ENDBRANCH  16  17
ENDBRANCH  10  16
ENDBRANCH   1  13
BRANCH   8  23
ATOM     23  C   UNL     1       5.987   4.875  17.270  0.00  0.00    +0.000 C 
BRANCH  23  24
ATOM     24  C   UNL     1       6.418   5.796  16.140  0.00  0.00    +0.000 C 
ATOM     25  O   UNL     1       5.877   5.785  15.039  0.00  0.00    +0.000 OA
BRANCH  24  26
ATOM     26  O   UNL     1       7.527   6.518  16.452  0.00  0.00    +0.000 OA
BRANCH  26  27
ATOM     27  C   UNL     1       7.570   7.018  17.795  0.00  0.00    +0.000 C 
ATOM     28  C   UNL     1       7.934   8.491  17.724  0.00  0.00    +0.000 C 
ENDBRANCH  26  27
ENDBRANCH  24  26
ENDBRANCH  23  24
ENDBRANCH   8  23
TORSDOF 10
ENDMDL
MODEL 9
REMARK VINA RESULT:      -6.5      2.268      3.671
REMARK  Name = 
REMARK  12 active torsions:
REMARK  status: ('A' for Active; 'I' for Inactive)
REMARK    1  A    between atoms: C_1  and  C_2
REMARK    2  A    between atoms: C_2  and  O_3
REMARK    3  A    between atoms: O_3  and  C_4
REMARK    4  A    between atoms: C_4  and  C_6
REMARK    5  A    between atoms: C_6  and  O_7
REMARK    6  A    between atoms: O_7  and  C_8
REMARK    7  A    between atoms: C_11  and  C_12
REMARK    8  A    between atoms: N_19  and  C_20
REMARK    9  A    between atoms: C_20  and  C_21
REMARK   10  A    between atoms: C_21  and  O_23
REMARK   11  A    between atoms: O_23  and  C_24
REMARK   12  A    between atoms: C_24  and  C_25
REMARK                            x       y       z     vdW  Elec       q    Type
REMARK                         _______ _______ _______ _____ _____    ______ ____
ROOT
ATOM      1  C   UNL     1       1.431   8.985  18.116  0.00  0.00    +0.000 C 
ATOM      2  C   UNL     1       0.973   9.436  19.293  0.00  0.00    +0.000 C 
ATOM      3  C   UNL     1       1.236   8.840  20.650  0.00  0.00    +0.000 C 
ATOM      4  O   UNL     1       1.879   7.849  20.933  0.00  0.00    +0.000 OA
ATOM      5  N   UNL     1       0.583   9.657  21.524  0.00  0.00    +0.000 N 
ATOM      6  C   UNL     1      -0.036  10.691  20.884  0.00  0.00    +0.000 C 
ATOM      7  O   UNL     1      -0.665  11.580  21.434  0.00  0.00    +0.000 OA
ATOM      8  N   UNL     1       0.170  10.540  19.518  0.00  0.00    +0.000 N 
ATOM      9  H   UNL     1       0.576   9.524  22.519  0.00  0.00    +0.000 HD
ENDROOT
BRANCH   1  13
ATOM     10  C   UNL     1       3.893   5.516  17.712  0.00  0.00    +0.000 A 
ATOM     11  C   UNL     1       4.424   6.787  17.494  0.00  0.00    +0.000 A 
ATOM     12  C   UNL     1       3.614   7.919  17.628  0.00  0.00    +0.000 A 
ATOM     13  C   UNL     1       2.262   7.787  17.963  0.00  0.00    +0.000 A 
ATOM     14  C   UNL     1       1.723   6.508  18.138  0.00  0.00    +0.000 A 
ATOM     15  C   UNL     1       2.537   5.377  18.008  0.00  0.00    +0.000 A 
BRANCH  10  16
ATOM     16  O   UNL     1       4.616   4.356  17.651  0.00  0.00    +0.000 OA
BRANCH  16  17
ATOM     17  C   UNL     1       5.510   4.269  16.547  0.00  0.00    +0.000 C 
BRANCH  17  18
ATOM     18  C   UNL     1       6.951   4.463  16.984  0.00  0.00    +0.000 C 
ATOM     19  O   UNL     1       7.933   4.468  16.255  0.00  0.00    +0.000 OA
BRANCH  18  20
ATOM     20  O   UNL     1       6.988   4.522  18.351  0.00  0.00    +0.000 OA
BRANCH  20  22
ATOM     21  C   UNL     1       7.856   6.733  18.606  0.00  0.00    +0.000 C 
ATOM     22  C   UNL     1       8.090   5.260  18.897  0.00  0.00    +0.000 C 
ENDBRANCH  20  22
ENDBRANCH  18  20
ENDBRANCH  17  18
ENDBRANCH  16  17
ENDBRANCH  10  16
ENDBRANCH   1  13
BRANCH   8  23
ATOM     23  C   UNL     1      -0.416  11.446  18.549  0.00  0.00    +0.000 C 
BRANCH  23  24
ATOM     24  C   UNL     1      -1.800  11.093  18.027  0.00  0.00    +0.000 C 
ATOM     25  O   UNL     1      -2.827  11.514  18.548  0.00  0.00    +0.000 OA
BRANCH  24  26
ATOM     26  O   UNL     1      -1.759  10.177  17.023  0.00  0.00    +0.000 OA
BRANCH  26  27
ATOM     27  C   UNL     1      -3.027   9.867  16.429  0.00  0.00    +0.000 C 
ATOM     28  C   UNL     1      -3.126  10.645  15.128  0.00  0.00    +0.000 C 
ENDBRANCH  26  27
ENDBRANCH  24  26
ENDBRANCH  23  24
ENDBRANCH   8  23
TORSDOF 10
ENDMDL
