MODEL 1
REMARK VINA RESULT:      -6.9      0.000      0.000
REMARK  Name = 
REMARK  9 active torsions:
REMARK  status: ('A' for Active; 'I' for Inactive)
REMARK    1  A    between atoms: C_2  and  O_3
REMARK    2  A    between atoms: C_2  and  C_4
REMARK    3  A    between atoms: C_4  and  C_5
REMARK    4  A    between atoms: C_5  and  C_6
REMARK    5  A    between atoms: C_6  and  O_7
REMARK    6  A    between atoms: C_6  and  C_8
REMARK    7  A    between atoms: C_11  and  O_12
REMARK    8  A    between atoms: O_12  and  C_13
REMARK    9  A    between atoms: C_13  and  C_14
REMARK                            x       y       z     vdW  Elec       q    Type
REMARK                         _______ _______ _______ _____ _____    ______ ____
ROOT
ATOM      1  C   UNL     1       5.259   5.779  16.727  0.00  0.00    +0.000 A 
ATOM      2  C   UNL     1       4.199   6.358  17.441  0.00  0.00    +0.000 A 
ATOM      3  C   UNL     1       3.043   5.632  17.728  0.00  0.00    +0.000 A 
ATOM      4  C   UNL     1       2.908   4.320  17.275  0.00  0.00    +0.000 A 
ATOM      5  C   UNL     1       3.968   3.721  16.592  0.00  0.00    +0.000 A 
ATOM      6  C   UNL     1       5.134   4.445  16.315  0.00  0.00    +0.000 A 
ENDROOT
BRANCH   1   7
ATOM      7  C   UNL     1       6.504   6.604  16.476  0.00  0.00    +0.000 C 
BRANCH   7   8
ATOM      8  O   UNL     1       7.426   5.945  15.605  0.00  0.00    +0.000 OA
ATOM      9  H   UNL     1       6.978   5.162  15.240  0.00  0.00    +0.000 HD
ENDBRANCH   7   8
BRANCH   7  10
ATOM     10  C   UNL     1       7.238   6.965  17.772  0.00  0.00    +0.000 C 
BRANCH  10  11
ATOM     11  C   UNL     1       7.959   5.772  18.395  0.00  0.00    +0.000 C 
BRANCH  11  13
ATOM     12  O   UNL     1       6.161   5.017  19.818  0.00  0.00    +0.000 OA
ATOM     13  C   UNL     1       7.329   5.363  19.702  0.00  0.00    +0.000 C 
BRANCH  13  14
ATOM     14  O   UNL     1       8.166   5.471  20.757  0.00  0.00    +0.000 OA
ATOM     15  H   UNL     1       8.321   4.624  21.220  0.00  0.00    +0.000 HD
ENDBRANCH  13  14
ENDBRANCH  11  13
ENDBRANCH  10  11
ENDBRANCH   7  10
ENDBRANCH   1   7
BRANCH   4  16
ATOM     16  O   UNL     1       1.793   3.543  17.446  0.00  0.00    +0.000 OA
BRANCH  16  17
ATOM     17  C   UNL     1       2.033   2.288  18.091  0.00  0.00    +0.000 C 
BRANCH  17  18
ATOM     18  C   UNL     1       2.131   2.523  19.552  0.00  0.00    +0.000 A 
ATOM     19  C   UNL     1       3.171   2.541  20.460  0.00  0.00    +0.000 A 
ATOM     20  C   UNL     1       2.583   2.736  21.735  0.00  0.00    +0.000 A 
ATOM     21  C   UNL     1       1.229   2.830  21.523  0.00  0.00    +0.000 A 
ATOM     22  O   UNL     1       0.945   2.703  20.206  0.00  0.00    +0.000 OA
ENDBRANCH  17  18
ENDBRANCH  16  17
ENDBRANCH   4  16
TORSDOF 9
ENDMDL
MODEL 2
REMARK VINA RESULT:      -6.8      2.897      4.619
REMARK  Name = 
REMARK  9 active torsions:
REMARK  status: ('A' for Active; 'I' for Inactive)
REMARK    1  A    between atoms: C_2  and  O_3
REMARK    2  A    between atoms: C_2  and  C_4
REMARK    3  A    between atoms: C_4  and  C_5
REMARK    4  A    between atoms: C_5  and  C_6
REMARK    5  A    between atoms: C_6  and  O_7
REMARK    6  A    between atoms: C_6  and  C_8
REMARK    7  A    between atoms: C_11  and  O_12
REMARK    8  A    between atoms: O_12  and  C_13
REMARK    9  A    between atoms: C_13  and  C_14
REMARK                            x       y       z     vdW  Elec       q    Type
REMARK                         _______ _______ _______ _____ _____    ______ ____
ROOT
ATOM      1  C   UNL     1       6.108   4.737  16.028  0.00  0.00    +0.000 A 
ATOM      2  C   UNL     1       4.740   4.468  16.184  0.00  0.00    +0.000 A 
ATOM      3  C   UNL     1       4.075   4.781  17.370  0.00  0.00    +0.000 A 
ATOM      4  C   UNL     1       4.775   5.340  18.439  0.00  0.00    +0.000 A 
ATOM      5  C   UNL     1       6.128   5.643  18.285  0.00  0.00    +0.000 A 
ATOM      6  C   UNL     1       6.794   5.341  17.091  0.00  0.00    +0.000 A 
ENDROOT
BRANCH   1   7
ATOM      7  C   UNL     1       6.768   4.408  14.705  0.00  0.00    +0.000 C 
BRANCH   7   8
ATOM      8  O   UNL     1       7.555   5.491  14.206  0.00  0.00    +0.000 OA
ATOM      9  H   UNL     1       8.441   5.420  14.602  0.00  0.00    +0.000 HD
ENDBRANCH   7   8
BRANCH   7  10
ATOM     10  C   UNL     1       5.754   4.010  13.628  0.00  0.00    +0.000 C 
BRANCH  10  11
ATOM     11  C   UNL     1       6.414   3.433  12.378  0.00  0.00    +0.000 C 
BRANCH  11  13
ATOM     12  O   UNL     1       4.356   2.907  11.233  0.00  0.00    +0.000 OA
ATOM     13  C   UNL     1       5.467   2.553  11.604  0.00  0.00    +0.000 C 
BRANCH  13  14
ATOM     14  O   UNL     1       5.938   1.302  11.407  0.00  0.00    +0.000 OA
ATOM     15  H   UNL     1       6.787   1.277  10.924  0.00  0.00    +0.000 HD
ENDBRANCH  13  14
ENDBRANCH  11  13
ENDBRANCH  10  11
ENDBRANCH   7  10
ENDBRANCH   1   7
BRANCH   4  16
ATOM     16  O   UNL     1       4.234   5.626  19.665  0.00  0.00    +0.000 OA
BRANCH  16  17
ATOM     17  C   UNL     1       2.817   5.832  19.660  0.00  0.00    +0.000 C 
BRANCH  17  18
ATOM     18  C   UNL     1       2.169   4.642  20.265  0.00  0.00    +0.000 A 
ATOM     19  C   UNL     1       2.326   3.955  21.451  0.00  0.00    +0.000 A 
ATOM     20  C   UNL     1       1.455   2.839  21.382  0.00  0.00    +0.000 A 
ATOM     21  C   UNL     1       0.822   2.920  20.166  0.00  0.00    +0.000 A 
ATOM     22  O   UNL     1       1.246   4.007  19.482  0.00  0.00    +0.000 OA
ENDBRANCH  17  18
ENDBRANCH  16  17
ENDBRANCH   4  16
TORSDOF 9
ENDMDL
MODEL 3
REMARK VINA RESULT:      -6.7      1.163      1.443
REMARK  Name = 
REMARK  9 active torsions:
REMARK  status: ('A' for Active; 'I' for Inactive)
REMARK    1  A    between atoms: C_2  and  O_3
REMARK    2  A    between atoms: C_2  and  C_4
REMARK    3  A    between atoms: C_4  and  C_5
REMARK    4  A    between atoms: C_5  and  C_6
REMARK    5  A    between atoms: C_6  and  O_7
REMARK    6  A    between atoms: C_6  and  C_8
REMARK    7  A    between atoms: C_11  and  O_12
REMARK    8  A    between atoms: O_12  and  C_13
REMARK    9  A    between atoms: C_13  and  C_14
REMARK                            x       y       z     vdW  Elec       q    Type
REMARK                         _______ _______ _______ _____ _____    ______ ____
ROOT
ATOM      1  C   UNL     1       4.469   5.449  17.061  0.00  0.00    +0.000 A 
ATOM      2  C   UNL     1       3.463   6.102  17.788  0.00  0.00    +0.000 A 
ATOM      3  C   UNL     1       2.263   5.459  18.094  0.00  0.00    +0.000 A 
ATOM      4  C   UNL     1       2.031   4.159  17.648  0.00  0.00    +0.000 A 
ATOM      5  C   UNL     1       3.037   3.486  16.953  0.00  0.00    +0.000 A 
ATOM      6  C   UNL     1       4.246   4.125  16.656  0.00  0.00    +0.000 A 
ENDROOT
BRANCH   1   7
ATOM      7  C   UNL     1       5.765   6.185  16.789  0.00  0.00    +0.000 C 
BRANCH   7   8
ATOM      8  O   UNL     1       5.750   6.866  15.534  0.00  0.00    +0.000 OA
ATOM      9  H   UNL     1       5.943   7.804  15.704  0.00  0.00    +0.000 HD
ENDBRANCH   7   8
BRANCH   7  10
ATOM     10  C   UNL     1       6.983   5.255  16.821  0.00  0.00    +0.000 C 
BRANCH  10  11
ATOM     11  C   UNL     1       7.307   4.753  18.226  0.00  0.00    +0.000 C 
BRANCH  11  13
ATOM     12  O   UNL     1       8.226   6.938  18.677  0.00  0.00    +0.000 OA
ATOM     13  C   UNL     1       7.840   5.857  19.101  0.00  0.00    +0.000 C 
BRANCH  13  14
ATOM     14  O   UNL     1       7.912   5.519  20.407  0.00  0.00    +0.000 OA
ATOM     15  H   UNL     1       8.475   6.119  20.935  0.00  0.00    +0.000 HD
ENDBRANCH  13  14
ENDBRANCH  11  13
ENDBRANCH  10  11
ENDBRANCH   7  10
ENDBRANCH   1   7
BRANCH   4  16
ATOM     16  O   UNL     1       0.867   3.461  17.838  0.00  0.00    +0.000 OA
BRANCH  16  17
ATOM     17  C   UNL     1       1.021   2.222  18.537  0.00  0.00    +0.000 C 
BRANCH  17  18
ATOM     18  C   UNL     1       1.568   2.509  19.885  0.00  0.00    +0.000 A 
ATOM     19  C   UNL     1       1.091   3.164  21.002  0.00  0.00    +0.000 A 
ATOM     20  C   UNL     1       2.151   3.172  21.943  0.00  0.00    +0.000 A 
ATOM     21  C   UNL     1       3.201   2.519  21.343  0.00  0.00    +0.000 A 
ATOM     22  O   UNL     1       2.859   2.113  20.099  0.00  0.00    +0.000 OA
ENDBRANCH  17  18
ENDBRANCH  16  17
ENDBRANCH   4  16
TORSDOF 9
ENDMDL
MODEL 4
REMARK VINA RESULT:      -6.6      2.544      4.285
REMARK  Name = 
REMARK  9 active torsions:
REMARK  status: ('A' for Active; 'I' for Inactive)
REMARK    1  A    between atoms: C_2  and  O_3
REMARK    2  A    between atoms: C_2  and  C_4
REMARK    3  A    between atoms: C_4  and  C_5
REMARK    4  A    between atoms: C_5  and  C_6
REMARK    5  A    between atoms: C_6  and  O_7
REMARK    6  A    between atoms: C_6  and  C_8
REMARK    7  A    between atoms: C_11  and  O_12
REMARK    8  A    between atoms: O_12  and  C_13
REMARK    9  A    between atoms: C_13  and  C_14
REMARK                            x       y       z     vdW  Elec       q    Type
REMARK                         _______ _______ _______ _____ _____    ______ ____
ROOT
ATOM      1  C   UNL     1       5.457   4.667  16.347  0.00  0.00    +0.000 A 
ATOM      2  C   UNL     1       4.470   3.794  16.828  0.00  0.00    +0.000 A 
ATOM      3  C   UNL     1       3.354   4.277  17.513  0.00  0.00    +0.000 A 
ATOM      4  C   UNL     1       3.220   5.643  17.761  0.00  0.00    +0.000 A 
ATOM      5  C   UNL     1       4.178   6.525  17.260  0.00  0.00    +0.000 A 
ATOM      6  C   UNL     1       5.292   6.043  16.561  0.00  0.00    +0.000 A 
ENDROOT
BRANCH   1   7
ATOM      7  C   UNL     1       6.628   4.090  15.579  0.00  0.00    +0.000 C 
BRANCH   7   8
ATOM      8  O   UNL     1       7.886   4.519  16.103  0.00  0.00    +0.000 OA
ATOM      9  H   UNL     1       8.159   3.875  16.781  0.00  0.00    +0.000 HD
ENDBRANCH   7   8
BRANCH   7  10
ATOM     10  C   UNL     1       6.580   4.441  14.088  0.00  0.00    +0.000 C 
BRANCH  10  11
ATOM     11  C   UNL     1       5.277   4.008  13.421  0.00  0.00    +0.000 C 
BRANCH  11  13
ATOM     12  O   UNL     1       4.654   2.830  11.409  0.00  0.00    +0.000 OA
ATOM     13  C   UNL     1       5.531   3.186  12.185  0.00  0.00    +0.000 C 
BRANCH  13  14
ATOM     14  O   UNL     1       6.825   2.822  12.039  0.00  0.00    +0.000 OA
ATOM     15  H   UNL     1       7.456   3.542  12.234  0.00  0.00    +0.000 HD
ENDBRANCH  13  14
ENDBRANCH  11  13
ENDBRANCH  10  11
ENDBRANCH   7  10
ENDBRANCH   1   7
BRANCH   4  16
ATOM     16  O   UNL     1       2.200   6.212  18.476  0.00  0.00    +0.000 OA
BRANCH  16  17
ATOM     17  C   UNL     1       2.378   6.184  19.897  0.00  0.00    +0.000 C 
BRANCH  17  18
ATOM     18  C   UNL     1       1.970   4.847  20.393  0.00  0.00    +0.000 A 
ATOM     19  C   UNL     1       0.889   4.020  20.163  0.00  0.00    +0.000 A 
ATOM     20  C   UNL     1       1.049   2.908  21.028  0.00  0.00    +0.000 A 
ATOM     21  C   UNL     1       2.213   3.126  21.723  0.00  0.00    +0.000 A 
ATOM     22  O   UNL     1       2.779   4.295  21.346  0.00  0.00    +0.000 OA
ENDBRANCH  17  18
ENDBRANCH  16  17
ENDBRANCH   4  16
TORSDOF 9
ENDMDL
MODEL 5
REMARK VINA RESULT:      -6.6      2.977      4.737
REMARK  Name = 
REMARK  9 active torsions:
REMARK  status: ('A' for Active; 'I' for Inactive)
REMARK    1  A    between atoms: C_2  and  O_3
REMARK    2  A    between atoms: C_2  and  C_4
REMARK    3  A    between atoms: C_4  and  C_5
REMARK    4  A    between atoms: C_5  and  C_6
REMARK    5  A    between atoms: C_6  and  O_7
REMARK    6  A    between atoms: C_6  and  C_8
REMARK    7  A    between atoms: C_11  and  O_12
REMARK    8  A    between atoms: O_12  and  C_13
REMARK    9  A    between atoms: C_13  and  C_14
REMARK                            x       y       z     vdW  Elec       q    Type
REMARK                         _______ _______ _______ _____ _____    ______ ____
ROOT
ATOM      1  C   UNL     1       6.301   4.583  15.938  0.00  0.00    +0.000 A 
ATOM      2  C   UNL     1       4.925   4.370  16.112  0.00  0.00    +0.000 A 
ATOM      3  C   UNL     1       4.306   4.627  17.336  0.00  0.00    +0.000 A 
ATOM      4  C   UNL     1       5.058   5.071  18.423  0.00  0.00    +0.000 A 
ATOM      5  C   UNL     1       6.421   5.318  18.254  0.00  0.00    +0.000 A 
ATOM      6  C   UNL     1       7.042   5.073  17.023  0.00  0.00    +0.000 A 
ENDROOT
BRANCH   1   7
ATOM      7  C   UNL     1       6.912   4.320  14.578  0.00  0.00    +0.000 C 
BRANCH   7   8
ATOM      8  O   UNL     1       7.717   5.410  14.124  0.00  0.00    +0.000 OA
ATOM      9  H   UNL     1       8.609   5.064  13.945  0.00  0.00    +0.000 HD
ENDBRANCH   7   8
BRANCH   7  10
ATOM     10  C   UNL     1       5.855   4.022  13.509  0.00  0.00    +0.000 C 
BRANCH  10  11
ATOM     11  C   UNL     1       6.453   3.433  12.234  0.00  0.00    +0.000 C 
BRANCH  11  13
ATOM     12  O   UNL     1       5.838   1.312  11.262  0.00  0.00    +0.000 OA
ATOM     13  C   UNL     1       5.517   2.448  11.584  0.00  0.00    +0.000 C 
BRANCH  13  14
ATOM     14  O   UNL     1       4.291   2.958  11.331  0.00  0.00    +0.000 OA
ATOM     15  H   UNL     1       4.314   3.870  10.980  0.00  0.00    +0.000 HD
ENDBRANCH  13  14
ENDBRANCH  11  13
ENDBRANCH  10  11
ENDBRANCH   7  10
ENDBRANCH   1   7
BRANCH   4  16
ATOM     16  O   UNL     1       4.562   5.292  19.681  0.00  0.00    +0.000 OA
BRANCH  16  17
ATOM     17  C   UNL     1       3.192   5.702  19.719  0.00  0.00    +0.000 C 
BRANCH  17  18
ATOM     18  C   UNL     1       2.375   4.566  20.211  0.00  0.00    +0.000 A 
ATOM     19  C   UNL     1       1.163   4.018  19.844  0.00  0.00    +0.000 A 
ATOM     20  C   UNL     1       0.891   2.991  20.783  0.00  0.00    +0.000 A 
ATOM     21  C   UNL     1       1.952   2.977  21.656  0.00  0.00    +0.000 A 
ATOM     22  O   UNL     1       2.856   3.925  21.318  0.00  0.00    +0.000 OA
ENDBRANCH  17  18
ENDBRANCH  16  17
ENDBRANCH   4  16
TORSDOF 9
ENDMDL
MODEL 6
REMARK VINA RESULT:      -6.6      2.458      4.128
REMARK  Name = 
REMARK  9 active torsions:
REMARK  status: ('A' for Active; 'I' for Inactive)
REMARK    1  A    between atoms: C_2  and  O_3
REMARK    2  A    between atoms: C_2  and  C_4
REMARK    3  A    between atoms: C_4  and  C_5
REMARK    4  A    between atoms: C_5  and  C_6
REMARK    5  A    between atoms: C_6  and  O_7
REMARK    6  A    between atoms: C_6  and  C_8
REMARK    7  A    between atoms: C_11  and  O_12
REMARK    8  A    between atoms: O_12  and  C_13
REMARK    9  A    between atoms: C_13  and  C_14
REMARK                            x       y       z     vdW  Elec       q    Type
REMARK                         _______ _______ _______ _____ _____    ______ ____
ROOT
ATOM      1  C   UNL     1       5.505   4.681  16.558  0.00  0.00    +0.000 A 
ATOM      2  C   UNL     1       5.535   5.992  17.058  0.00  0.00    +0.000 A 
ATOM      3  C   UNL     1       4.445   6.523  17.748  0.00  0.00    +0.000 A 
ATOM      4  C   UNL     1       3.288   5.765  17.922  0.00  0.00    +0.000 A 
ATOM      5  C   UNL     1       3.257   4.450  17.459  0.00  0.00    +0.000 A 
ATOM      6  C   UNL     1       4.355   3.910  16.777  0.00  0.00    +0.000 A 
ENDROOT
BRANCH   1   7
ATOM      7  C   UNL     1       6.731   4.145  15.848  0.00  0.00    +0.000 C 
BRANCH   7   8
ATOM      8  O   UNL     1       7.946   4.556  16.476  0.00  0.00    +0.000 OA
ATOM      9  H   UNL     1       7.820   5.467  16.796  0.00  0.00    +0.000 HD
ENDBRANCH   7   8
BRANCH   7  10
ATOM     10  C   UNL     1       6.783   4.562  14.374  0.00  0.00    +0.000 C 
BRANCH  10  11
ATOM     11  C   UNL     1       5.661   3.943  13.545  0.00  0.00    +0.000 C 
BRANCH  11  13
ATOM     12  O   UNL     1       5.738   2.361  11.724  0.00  0.00    +0.000 OA
ATOM     13  C   UNL     1       6.176   3.377  12.247  0.00  0.00    +0.000 C 
BRANCH  13  14
ATOM     14  O   UNL     1       7.220   4.068  11.737  0.00  0.00    +0.000 OA
ATOM     15  H   UNL     1       7.801   3.529  11.165  0.00  0.00    +0.000 HD
ENDBRANCH  13  14
ENDBRANCH  11  13
ENDBRANCH  10  11
ENDBRANCH   7  10
ENDBRANCH   1   7
BRANCH   4  16
ATOM     16  O   UNL     1       2.142   6.212  18.526  0.00  0.00    +0.000 OA
BRANCH  16  17
ATOM     17  C   UNL     1       2.184   6.219  19.957  0.00  0.00    +0.000 C 
BRANCH  17  18
ATOM     18  C   UNL     1       1.875   4.852  20.442  0.00  0.00    +0.000 A 
ATOM     19  C   UNL     1       0.860   3.949  20.202  0.00  0.00    +0.000 A 
ATOM     20  C   UNL     1       1.099   2.845  21.058  0.00  0.00    +0.000 A 
ATOM     21  C   UNL     1       2.244   3.143  21.758  0.00  0.00    +0.000 A 
ATOM     22  O   UNL     1       2.722   4.354  21.392  0.00  0.00    +0.000 OA
ENDBRANCH  17  18
ENDBRANCH  16  17
ENDBRANCH   4  16
TORSDOF 9
ENDMDL
MODEL 7
REMARK VINA RESULT:      -6.6      3.097      4.772
REMARK  Name = 
REMARK  9 active torsions:
REMARK  status: ('A' for Active; 'I' for Inactive)
REMARK    1  A    between atoms: C_2  and  O_3
REMARK    2  A    between atoms: C_2  and  C_4
REMARK    3  A    between atoms: C_4  and  C_5
REMARK    4  A    between atoms: C_5  and  C_6
REMARK    5  A    between atoms: C_6  and  O_7
REMARK    6  A    between atoms: C_6  and  C_8
REMARK    7  A    between atoms: C_11  and  O_12
REMARK    8  A    between atoms: O_12  and  C_13
REMARK    9  A    between atoms: C_13  and  C_14
REMARK                            x       y       z     vdW  Elec       q    Type
REMARK                         _______ _______ _______ _____ _____    ______ ____
ROOT
ATOM      1  C   UNL     1       6.576   4.380  15.500  0.00  0.00    +0.000 A 
ATOM      2  C   UNL     1       5.192   4.202  15.642  0.00  0.00    +0.000 A 
ATOM      3  C   UNL     1       4.590   4.216  16.901  0.00  0.00    +0.000 A 
ATOM      4  C   UNL     1       5.367   4.375  18.048  0.00  0.00    +0.000 A 
ATOM      5  C   UNL     1       6.740   4.586  17.918  0.00  0.00    +0.000 A 
ATOM      6  C   UNL     1       7.344   4.585  16.655  0.00  0.00    +0.000 A 
ENDROOT
BRANCH   1   7
ATOM      7  C   UNL     1       7.169   4.391  14.106  0.00  0.00    +0.000 C 
BRANCH   7   8
ATOM      8  O   UNL     1       7.808   5.630  13.797  0.00  0.00    +0.000 OA
ATOM      9  H   UNL     1       7.711   6.214  14.570  0.00  0.00    +0.000 HD
ENDBRANCH   7   8
BRANCH   7  10
ATOM     10  C   UNL     1       6.124   4.102  13.023  0.00  0.00    +0.000 C 
BRANCH  10  11
ATOM     11  C   UNL     1       6.628   3.131  11.958  0.00  0.00    +0.000 C 
BRANCH  11  13
ATOM     12  O   UNL     1       4.395   2.583  11.228  0.00  0.00    +0.000 OA
ATOM     13  C   UNL     1       5.534   2.213  11.480  0.00  0.00    +0.000 C 
BRANCH  13  14
ATOM     14  O   UNL     1       5.912   0.918  11.410  0.00  0.00    +0.000 OA
ATOM     15  H   UNL     1       6.442   0.709  10.616  0.00  0.00    +0.000 HD
ENDBRANCH  13  14
ENDBRANCH  11  13
ENDBRANCH  10  11
ENDBRANCH   7  10
ENDBRANCH   1   7
BRANCH   4  16
ATOM     16  O   UNL     1       4.887   4.340  19.330  0.00  0.00    +0.000 OA
BRANCH  16  17
ATOM     17  C   UNL     1       4.393   3.063  19.749  0.00  0.00    +0.000 C 
BRANCH  17  18
ATOM     18  C   UNL     1       2.929   3.174  19.961  0.00  0.00    +0.000 A 
ATOM     19  C   UNL     1       1.847   2.371  19.662  0.00  0.00    +0.000 A 
ATOM     20  C   UNL     1       0.693   3.098  20.050  0.00  0.00    +0.000 A 
ATOM     21  C   UNL     1       1.145   4.290  20.562  0.00  0.00    +0.000 A 
ATOM     22  O   UNL     1       2.495   4.346  20.514  0.00  0.00    +0.000 OA
ENDBRANCH  17  18
ENDBRANCH  16  17
ENDBRANCH   4  16
TORSDOF 9
ENDMDL
MODEL 8
REMARK VINA RESULT:      -6.6      2.450      6.678
REMARK  Name = 
REMARK  9 active torsions:
REMARK  status: ('A' for Active; 'I' for Inactive)
REMARK    1  A    between atoms: C_2  and  O_3
REMARK    2  A    between atoms: C_2  and  C_4
REMARK    3  A    between atoms: C_4  and  C_5
REMARK    4  A    between atoms: C_5  and  C_6
REMARK    5  A    between atoms: C_6  and  O_7
REMARK    6  A    between atoms: C_6  and  C_8
REMARK    7  A    between atoms: C_11  and  O_12
REMARK    8  A    between atoms: O_12  and  C_13
REMARK    9  A    between atoms: C_13  and  C_14
REMARK                            x       y       z     vdW  Elec       q    Type
REMARK                         _______ _______ _______ _____ _____    ______ ____
ROOT
ATOM      1  C   UNL     1       3.388   5.139  18.954  0.00  0.00    +0.000 A 
ATOM      2  C   UNL     1       4.683   5.316  19.463  0.00  0.00    +0.000 A 
ATOM      3  C   UNL     1       5.807   5.073  18.673  0.00  0.00    +0.000 A 
ATOM      4  C   UNL     1       5.658   4.614  17.365  0.00  0.00    +0.000 A 
ATOM      5  C   UNL     1       4.376   4.466  16.835  0.00  0.00    +0.000 A 
ATOM      6  C   UNL     1       3.247   4.721  17.623  0.00  0.00    +0.000 A 
ENDROOT
BRANCH   1   7
ATOM      7  C   UNL     1       2.205   5.453  19.846  0.00  0.00    +0.000 C 
BRANCH   7   8
ATOM      8  O   UNL     1       2.429   6.605  20.661  0.00  0.00    +0.000 OA
ATOM      9  H   UNL     1       2.072   6.415  21.546  0.00  0.00    +0.000 HD
ENDBRANCH   7   8
BRANCH   7  10
ATOM     10  C   UNL     1       1.835   4.279  20.760  0.00  0.00    +0.000 C 
BRANCH  10  11
ATOM     11  C   UNL     1       0.690   3.436  20.204  0.00  0.00    +0.000 C 
BRANCH  11  13
ATOM     12  O   UNL     1       2.327   1.855  19.404  0.00  0.00    +0.000 OA
ATOM     13  C   UNL     1       1.196   2.316  19.333  0.00  0.00    +0.000 C 
BRANCH  13  14
ATOM     14  O   UNL     1       0.296   1.901  18.415  0.00  0.00    +0.000 OA
ATOM     15  H   UNL     1       0.459   2.258  17.520  0.00  0.00    +0.000 HD
ENDBRANCH  13  14
ENDBRANCH  11  13
ENDBRANCH  10  11
ENDBRANCH   7  10
ENDBRANCH   1   7
BRANCH   4  16
ATOM     16  O   UNL     1       6.692   4.285  16.528  0.00  0.00    +0.000 OA
BRANCH  16  17
ATOM     17  C   UNL     1       7.047   5.304  15.588  0.00  0.00    +0.000 C 
BRANCH  17  18
ATOM     18  C   UNL     1       6.874   4.761  14.219  0.00  0.00    +0.000 A 
ATOM     19  C   UNL     1       6.118   3.744  13.672  0.00  0.00    +0.000 A 
ATOM     20  C   UNL     1       6.479   3.672  12.303  0.00  0.00    +0.000 A 
ATOM     21  C   UNL     1       7.424   4.649  12.103  0.00  0.00    +0.000 A 
ATOM     22  O   UNL     1       7.670   5.314  13.255  0.00  0.00    +0.000 OA
ENDBRANCH  17  18
ENDBRANCH  16  17
ENDBRANCH   4  16
TORSDOF 9
ENDMDL
MODEL 9
REMARK VINA RESULT:      -6.5      3.064      4.782
REMARK  Name = 
REMARK  9 active torsions:
REMARK  status: ('A' for Active; 'I' for Inactive)
REMARK    1  A    between atoms: C_2  and  O_3
REMARK    2  A    between atoms: C_2  and  C_4
REMARK    3  A    between atoms: C_4  and  C_5
REMARK    4  A    between atoms: C_5  and  C_6
REMARK    5  A    between atoms: C_6  and  O_7
REMARK    6  A    between atoms: C_6  and  C_8
REMARK    7  A    between atoms: C_11  and  O_12
REMARK    8  A    between atoms: O_12  and  C_13
REMARK    9  A    between atoms: C_13  and  C_14
REMARK                            x       y       z     vdW  Elec       q    Type
REMARK                         _______ _______ _______ _____ _____    ______ ____
ROOT
ATOM      1  C   UNL     1       6.624   4.339  15.645  0.00  0.00    +0.000 A 
ATOM      2  C   UNL     1       7.471   4.673  16.713  0.00  0.00    +0.000 A 
ATOM      3  C   UNL     1       7.023   4.608  18.033  0.00  0.00    +0.000 A 
ATOM      4  C   UNL     1       5.708   4.241  18.311  0.00  0.00    +0.000 A 
ATOM      5  C   UNL     1       4.865   3.874  17.260  0.00  0.00    +0.000 A 
ATOM      6  C   UNL     1       5.316   3.926  15.936  0.00  0.00    +0.000 A 
ENDROOT
BRANCH   1   7
ATOM      7  C   UNL     1       7.175   4.393  14.235  0.00  0.00    +0.000 C 
BRANCH   7   8
ATOM      8  O   UNL     1       7.834   5.629  13.956  0.00  0.00    +0.000 OA
ATOM      9  H   UNL     1       7.149   6.314  13.857  0.00  0.00    +0.000 HD
ENDBRANCH   7   8
BRANCH   7  10
ATOM     10  C   UNL     1       6.090   4.174  13.175  0.00  0.00    +0.000 C 
BRANCH  10  11
ATOM     11  C   UNL     1       6.567   3.310  12.010  0.00  0.00    +0.000 C 
BRANCH  11  13
ATOM     12  O   UNL     1       4.341   2.723  11.288  0.00  0.00    +0.000 OA
ATOM     13  C   UNL     1       5.487   2.373  11.534  0.00  0.00    +0.000 C 
BRANCH  13  14
ATOM     14  O   UNL     1       5.889   1.085  11.459  0.00  0.00    +0.000 OA
ATOM     15  H   UNL     1       6.141   0.808  10.556  0.00  0.00    +0.000 HD
ENDBRANCH  13  14
ENDBRANCH  11  13
ENDBRANCH  10  11
ENDBRANCH   7  10
ENDBRANCH   1   7
BRANCH   4  16
ATOM     16  O   UNL     1       5.151   4.207  19.562  0.00  0.00    +0.000 OA
BRANCH  16  17
ATOM     17  C   UNL     1       4.442   3.002  19.868  0.00  0.00    +0.000 C 
BRANCH  17  18
ATOM     18  C   UNL     1       3.032   3.351  20.169  0.00  0.00    +0.000 A 
ATOM     19  C   UNL     1       1.851   2.639  20.223  0.00  0.00    +0.000 A 
ATOM     20  C   UNL     1       0.827   3.585  20.479  0.00  0.00    +0.000 A 
ATOM     21  C   UNL     1       1.448   4.808  20.569  0.00  0.00    +0.000 A 
ATOM     22  O   UNL     1       2.782   4.677  20.384  0.00  0.00    +0.000 OA
ENDBRANCH  17  18
ENDBRANCH  16  17
ENDBRANCH   4  16
TORSDOF 9
ENDMDL
