MODEL 1
REMARK VINA RESULT:      -7.3      0.000      0.000
REMARK  Name = 
REMARK  4 active torsions:
REMARK  status: ('A' for Active; 'I' for Inactive)
REMARK    1  A    between atoms: C_1  and  C_2
REMARK    2  A    between atoms: N_11  and  C_12
REMARK    3  A    between atoms: N_14  and  C_15
REMARK    4  A    between atoms: C_22  and  C_23
REMARK                            x       y       z     vdW  Elec       q    Type
REMARK                         _______ _______ _______ _____ _____    ______ ____
ROOT
ATOM      1  C   UNL     1       2.093   2.934  21.588  0.00  0.00    +0.000 C 
ATOM      2  C   UNL     1       2.291   4.056  20.639  0.00  0.00    +0.000 A 
ATOM      3  C   UNL     1       1.645   5.275  20.528  0.00  0.00    +0.000 A 
ATOM      4  C   UNL     1       2.350   6.064  19.573  0.00  0.00    +0.000 A 
ATOM      5  C   UNL     1       2.281   7.390  19.093  0.00  0.00    +0.000 A 
ATOM      6  N   UNL     1       1.351   8.320  19.599  0.00  0.00    +0.000 N 
ATOM      7  C   UNL     1       1.025   9.404  18.650  0.00  0.00    +0.000 C 
ATOM      8  C   UNL     1      -0.113  10.281  19.226  0.00  0.00    +0.000 C 
ATOM      9  N   UNL     1       0.183  10.802  20.588  0.00  0.00    +0.000 N 
ATOM     10  C   UNL     1       0.388  12.163  20.802  0.00  0.00    +0.000 C 
ATOM     11  N   UNL     1       1.546  12.596  21.196  0.00  0.00    +0.000 NA
ATOM     12  N   UNL     1      -0.773  12.851  20.493  0.00  0.00    +0.000 N 
ATOM     13  C   UNL     1       0.732   9.785  21.527  0.00  0.00    +0.000 C 
ATOM     14  C   UNL     1      -0.432   8.928  22.042  0.00  0.00    +0.000 C 
ATOM     15  C   UNL     1       1.826   8.887  20.885  0.00  0.00    +0.000 C 
ATOM     16  N   UNL     1       3.171   7.750  18.131  0.00  0.00    +0.000 NA
ATOM     17  C   UNL     1       4.084   6.845  17.714  0.00  0.00    +0.000 A 
ATOM     18  N   UNL     1       4.243   5.573  18.114  0.00  0.00    +0.000 NA
ATOM     19  C   UNL     1       3.339   5.248  19.049  0.00  0.00    +0.000 A 
ATOM     20  N   UNL     1       3.271   4.031  19.672  0.00  0.00    +0.000 N 
ATOM     21  H   UNL     1      -1.529  12.191  20.330  0.00  0.00    +0.000 HD
ATOM     22  H   UNL     1       3.902   3.267  19.479  0.00  0.00    +0.000 HD
ENDROOT
BRANCH  12  23
ATOM     23  C   UNL     1      -1.328  13.956  21.192  0.00  0.00    +0.000 A 
ATOM     24  C   UNL     1      -1.592  15.131  20.467  0.00  0.00    +0.000 A 
ATOM     25  C   UNL     1      -2.194  16.239  21.073  0.00  0.00    +0.000 A 
ATOM     26  C   UNL     1      -2.559  16.182  22.414  0.00  0.00    +0.000 A 
ATOM     27  C   UNL     1      -2.328  15.014  23.137  0.00  0.00    +0.000 A 
ATOM     28 BR   UNL     1      -2.838  14.930  24.957  0.00  0.00    +0.000 Br
ATOM     29  C   UNL     1      -1.733  13.901  22.531  0.00  0.00    +0.000 A 
ENDBRANCH  12  23
BRANCH  11  30
ATOM     30  C   UNL     1       1.783  13.914  21.266  0.00  0.00    +0.000 C 
ATOM     31  N   UNL     1       2.016  15.047  21.303  0.00  0.00    +0.000 NA
ENDBRANCH  11  30
TORSDOF 2
ENDMDL
MODEL 2
REMARK VINA RESULT:      -7.2      1.319      1.599
REMARK  Name = 
REMARK  4 active torsions:
REMARK  status: ('A' for Active; 'I' for Inactive)
REMARK    1  A    between atoms: C_1  and  C_2
REMARK    2  A    between atoms: N_11  and  C_12
REMARK    3  A    between atoms: N_14  and  C_15
REMARK    4  A    between atoms: C_22  and  C_23
REMARK                            x       y       z     vdW  Elec       q    Type
REMARK                         _______ _______ _______ _____ _____    ______ ____
ROOT
ATOM      1  C   UNL     1       1.805   2.614  21.575  0.00  0.00    +0.000 C 
ATOM      2  C   UNL     1       2.176   3.687  20.621  0.00  0.00    +0.000 A 
ATOM      3  C   UNL     1       1.615   4.931  20.393  0.00  0.00    +0.000 A 
ATOM      4  C   UNL     1       2.471   5.647  19.505  0.00  0.00    +0.000 A 
ATOM      5  C   UNL     1       2.532   6.955  18.977  0.00  0.00    +0.000 A 
ATOM      6  N   UNL     1       1.600   7.949  19.336  0.00  0.00    +0.000 N 
ATOM      7  C   UNL     1       1.449   9.010  18.319  0.00  0.00    +0.000 C 
ATOM      8  C   UNL     1       0.299   9.965  18.724  0.00  0.00    +0.000 C 
ATOM      9  N   UNL     1       0.458  10.523  20.094  0.00  0.00    +0.000 N 
ATOM     10  C   UNL     1       0.710  11.879  20.286  0.00  0.00    +0.000 C 
ATOM     11  N   UNL     1       1.833  12.269  20.804  0.00  0.00    +0.000 NA
ATOM     12  N   UNL     1      -0.367  12.612  19.816  0.00  0.00    +0.000 N 
ATOM     13  C   UNL     1       0.834   9.516  21.125  0.00  0.00    +0.000 C 
ATOM     14  C   UNL     1      -0.428   8.740  21.522  0.00  0.00    +0.000 C 
ATOM     15  C   UNL     1       1.947   8.541  20.651  0.00  0.00    +0.000 C 
ATOM     16  N   UNL     1       3.549   7.232  18.120  0.00  0.00    +0.000 NA
ATOM     17  C   UNL     1       4.455   6.267  17.847  0.00  0.00    +0.000 A 
ATOM     18  N   UNL     1       4.496   5.005  18.305  0.00  0.00    +0.000 NA
ATOM     19  C   UNL     1       3.470   4.762  19.133  0.00  0.00    +0.000 A 
ATOM     20  N   UNL     1       3.262   3.576  19.782  0.00  0.00    +0.000 N 
ATOM     21  H   UNL     1      -1.133  11.984  19.585  0.00  0.00    +0.000 HD
ATOM     22  H   UNL     1       3.869   2.774  19.692  0.00  0.00    +0.000 HD
ENDROOT
BRANCH  12  23
ATOM     23  C   UNL     1      -0.942  13.769  20.407  0.00  0.00    +0.000 A 
ATOM     24  C   UNL     1      -1.385  13.680  21.738  0.00  0.00    +0.000 A 
ATOM     25  C   UNL     1      -1.905  14.793  22.407  0.00  0.00    +0.000 A 
ATOM     26  C   UNL     1      -1.974  16.021  21.758  0.00  0.00    +0.000 A 
ATOM     27  C   UNL     1      -1.512  16.130  20.448  0.00  0.00    +0.000 A 
ATOM     28 BR   UNL     1      -1.591  17.803  19.569  0.00  0.00    +0.000 Br
ATOM     29  C   UNL     1      -0.984  15.020  19.779  0.00  0.00    +0.000 A 
ENDBRANCH  12  23
BRANCH  11  30
ATOM     30  C   UNL     1       2.131  13.575  20.860  0.00  0.00    +0.000 C 
ATOM     31  N   UNL     1       2.425  14.693  20.905  0.00  0.00    +0.000 NA
ENDBRANCH  11  30
TORSDOF 2
ENDMDL
MODEL 3
REMARK VINA RESULT:      -7.0      1.062      1.398
REMARK  Name = 
REMARK  4 active torsions:
REMARK  status: ('A' for Active; 'I' for Inactive)
REMARK    1  A    between atoms: C_1  and  C_2
REMARK    2  A    between atoms: N_11  and  C_12
REMARK    3  A    between atoms: N_14  and  C_15
REMARK    4  A    between atoms: C_22  and  C_23
REMARK                            x       y       z     vdW  Elec       q    Type
REMARK                         _______ _______ _______ _____ _____    ______ ____
ROOT
ATOM      1  C   UNL     1       2.333   3.280  21.648  0.00  0.00    +0.000 C 
ATOM      2  C   UNL     1       2.365   4.423  20.703  0.00  0.00    +0.000 A 
ATOM      3  C   UNL     1       1.651   5.608  20.689  0.00  0.00    +0.000 A 
ATOM      4  C   UNL     1       2.201   6.445  19.675  0.00  0.00    +0.000 A 
ATOM      5  C   UNL     1       2.013   7.772  19.231  0.00  0.00    +0.000 A 
ATOM      6  N   UNL     1       1.101   8.646  19.856  0.00  0.00    +0.000 N 
ATOM      7  C   UNL     1       0.614   9.723  18.971  0.00  0.00    +0.000 C 
ATOM      8  C   UNL     1      -0.493  10.533  19.688  0.00  0.00    +0.000 C 
ATOM      9  N   UNL     1      -0.070  11.051  21.017  0.00  0.00    +0.000 N 
ATOM     10  C   UNL     1       0.090  12.418  21.231  0.00  0.00    +0.000 C 
ATOM     11  N   UNL     1       1.262  12.905  21.500  0.00  0.00    +0.000 NA
ATOM     12  N   UNL     1      -1.132  13.049  21.068  0.00  0.00    +0.000 N 
ATOM     13  C   UNL     1       0.632  10.051  21.868  0.00  0.00    +0.000 C 
ATOM     14  C   UNL     1      -0.421   9.129  22.496  0.00  0.00    +0.000 C 
ATOM     15  C   UNL     1       1.690   9.220  21.090  0.00  0.00    +0.000 C 
ATOM     16  N   UNL     1       2.768   8.190  18.181  0.00  0.00    +0.000 NA
ATOM     17  C   UNL     1       3.671   7.339  17.647  0.00  0.00    +0.000 A 
ATOM     18  N   UNL     1       3.939   6.071  18.003  0.00  0.00    +0.000 NA
ATOM     19  C   UNL     1       3.165   5.688  19.028  0.00  0.00    +0.000 A 
ATOM     20  N   UNL     1       3.228   4.461  19.632  0.00  0.00    +0.000 N 
ATOM     21  H   UNL     1      -1.867  12.353  20.980  0.00  0.00    +0.000 HD
ATOM     22  H   UNL     1       3.871   3.734  19.354  0.00  0.00    +0.000 HD
ENDROOT
BRANCH  12  23
ATOM     23  C   UNL     1      -1.658  14.115  21.847  0.00  0.00    +0.000 A 
ATOM     24  C   UNL     1      -1.735  13.938  23.240  0.00  0.00    +0.000 A 
ATOM     25  C   UNL     1      -2.185  14.964  24.078  0.00  0.00    +0.000 A 
ATOM     26  C   UNL     1      -2.550  16.192  23.535  0.00  0.00    +0.000 A 
ATOM     27  C   UNL     1      -2.452  16.389  22.160  0.00  0.00    +0.000 A 
ATOM     28 BR   UNL     1      -2.932  18.063  21.423  0.00  0.00    +0.000 Br
ATOM     29  C   UNL     1      -1.994  15.367  21.319  0.00  0.00    +0.000 A 
ENDBRANCH  12  23
BRANCH  11  30
ATOM     30  C   UNL     1       1.439  14.232  21.567  0.00  0.00    +0.000 C 
ATOM     31  N   UNL     1       1.563  15.380  21.647  0.00  0.00    +0.000 NA
ENDBRANCH  11  30
TORSDOF 2
ENDMDL
MODEL 4
REMARK VINA RESULT:      -6.5      1.173      1.498
REMARK  Name = 
REMARK  4 active torsions:
REMARK  status: ('A' for Active; 'I' for Inactive)
REMARK    1  A    between atoms: C_1  and  C_2
REMARK    2  A    between atoms: N_11  and  C_12
REMARK    3  A    between atoms: N_14  and  C_15
REMARK    4  A    between atoms: C_22  and  C_23
REMARK                            x       y       z     vdW  Elec       q    Type
REMARK                         _______ _______ _______ _____ _____    ______ ____
ROOT
ATOM      1  C   UNL     1       2.777   2.784  20.252  0.00  0.00    +0.000 C 
ATOM      2  C   UNL     1       2.829   4.045  19.474  0.00  0.00    +0.000 A 
ATOM      3  C   UNL     1       2.050   5.186  19.543  0.00  0.00    +0.000 A 
ATOM      4  C   UNL     1       2.641   6.178  18.707  0.00  0.00    +0.000 A 
ATOM      5  C   UNL     1       2.416   7.543  18.424  0.00  0.00    +0.000 A 
ATOM      6  N   UNL     1       1.399   8.280  19.063  0.00  0.00    +0.000 N 
ATOM      7  C   UNL     1       0.934   9.444  18.281  0.00  0.00    +0.000 C 
ATOM      8  C   UNL     1      -0.282  10.096  18.984  0.00  0.00    +0.000 C 
ATOM      9  N   UNL     1      -0.017  10.448  20.405  0.00  0.00    +0.000 N 
ATOM     10  C   UNL     1       0.041  11.779  20.811  0.00  0.00    +0.000 C 
ATOM     11  N   UNL     1       1.151  12.279  21.257  0.00  0.00    +0.000 NA
ATOM     12  N   UNL     1      -1.196  12.368  20.610  0.00  0.00    +0.000 N 
ATOM     13  C   UNL     1       0.662   9.376  21.184  0.00  0.00    +0.000 C 
ATOM     14  C   UNL     1      -0.389   8.329  21.576  0.00  0.00    +0.000 C 
ATOM     15  C   UNL     1       1.835   8.707  20.415  0.00  0.00    +0.000 C 
ATOM     16  N   UNL     1       3.240   8.134  17.519  0.00  0.00    +0.000 NA
ATOM     17  C   UNL     1       4.238   7.407  16.972  0.00  0.00    +0.000 A 
ATOM     18  N   UNL     1       4.547   6.117  17.184  0.00  0.00    +0.000 NA
ATOM     19  C   UNL     1       3.705   5.562  18.067  0.00  0.00    +0.000 A 
ATOM     20  N   UNL     1       3.785   4.269  18.509  0.00  0.00    +0.000 N 
ATOM     21  H   UNL     1      -1.877  11.657  20.358  0.00  0.00    +0.000 HD
ATOM     22  H   UNL     1       4.493   3.617  18.204  0.00  0.00    +0.000 HD
ENDROOT
BRANCH  12  23
ATOM     23  C   UNL     1      -1.856  13.292  21.464  0.00  0.00    +0.000 A 
ATOM     24  C   UNL     1      -2.036  12.933  22.811  0.00  0.00    +0.000 A 
ATOM     25  C   UNL     1      -2.621  13.814  23.726  0.00  0.00    +0.000 A 
ATOM     26  C   UNL     1      -3.022  15.080  23.310  0.00  0.00    +0.000 A 
ATOM     27  C   UNL     1      -2.824  15.458  21.984  0.00  0.00    +0.000 A 
ATOM     28 BR   UNL     1      -3.354  17.185  21.421  0.00  0.00    +0.000 Br
ATOM     29  C   UNL     1      -2.231  14.582  21.068  0.00  0.00    +0.000 A 
ENDBRANCH  12  23
BRANCH  11  30
ATOM     30  C   UNL     1       1.242  13.592  21.515  0.00  0.00    +0.000 C 
ATOM     31  N   UNL     1       1.320  14.731  21.701  0.00  0.00    +0.000 NA
ENDBRANCH  11  30
TORSDOF 2
ENDMDL
MODEL 5
REMARK VINA RESULT:      -6.3      1.996      3.529
REMARK  Name = 
REMARK  4 active torsions:
REMARK  status: ('A' for Active; 'I' for Inactive)
REMARK    1  A    between atoms: C_1  and  C_2
REMARK    2  A    between atoms: N_11  and  C_12
REMARK    3  A    between atoms: N_14  and  C_15
REMARK    4  A    between atoms: C_22  and  C_23
REMARK                            x       y       z     vdW  Elec       q    Type
REMARK                         _______ _______ _______ _____ _____    ______ ____
ROOT
ATOM      1  C   UNL     1       5.222   5.743  16.022  0.00  0.00    +0.000 C 
ATOM      2  C   UNL     1       4.343   5.881  17.209  0.00  0.00    +0.000 A 
ATOM      3  C   UNL     1       3.850   7.005  17.847  0.00  0.00    +0.000 A 
ATOM      4  C   UNL     1       2.896   6.582  18.817  0.00  0.00    +0.000 A 
ATOM      5  C   UNL     1       1.987   7.207  19.698  0.00  0.00    +0.000 A 
ATOM      6  N   UNL     1       1.833   8.607  19.741  0.00  0.00    +0.000 N 
ATOM      7  C   UNL     1       1.322   9.105  21.035  0.00  0.00    +0.000 C 
ATOM      8  C   UNL     1       1.335  10.653  21.043  0.00  0.00    +0.000 C 
ATOM      9  N   UNL     1       0.610  11.250  19.890  0.00  0.00    +0.000 N 
ATOM     10  C   UNL     1      -0.574  11.959  20.082  0.00  0.00    +0.000 C 
ATOM     11  N   UNL     1      -1.690  11.512  19.594  0.00  0.00    +0.000 NA
ATOM     12  N   UNL     1      -0.311  13.081  20.850  0.00  0.00    +0.000 N 
ATOM     13  C   UNL     1       0.928  10.625  18.577  0.00  0.00    +0.000 C 
ATOM     14  C   UNL     1       2.275  11.178  18.094  0.00  0.00    +0.000 C 
ATOM     15  C   UNL     1       0.966   9.072  18.631  0.00  0.00    +0.000 C 
ATOM     16  N   UNL     1       1.239   6.400  20.495  0.00  0.00    +0.000 NA
ATOM     17  C   UNL     1       1.376   5.061  20.382  0.00  0.00    +0.000 A 
ATOM     18  N   UNL     1       2.193   4.369  19.571  0.00  0.00    +0.000 NA
ATOM     19  C   UNL     1       2.928   5.196  18.813  0.00  0.00    +0.000 A 
ATOM     20  N   UNL     1       3.828   4.787  17.867  0.00  0.00    +0.000 N 
ATOM     21  H   UNL     1       0.693  13.193  20.960  0.00  0.00    +0.000 HD
ATOM     22  H   UNL     1       4.017   3.817  17.657  0.00  0.00    +0.000 HD
ENDROOT
BRANCH  12  23
ATOM     23  C   UNL     1      -0.860  14.381  20.686  0.00  0.00    +0.000 A 
ATOM     24  C   UNL     1      -1.611  14.919  21.745  0.00  0.00    +0.000 A 
ATOM     25  C   UNL     1      -2.130  16.217  21.682  0.00  0.00    +0.000 A 
ATOM     26  C   UNL     1      -1.892  17.004  20.561  0.00  0.00    +0.000 A 
ATOM     27  C   UNL     1      -1.126  16.492  19.515  0.00  0.00    +0.000 A 
ATOM     28 BR   UNL     1      -0.788  17.569  17.997  0.00  0.00    +0.000 Br
ATOM     29  C   UNL     1      -0.598  15.198  19.579  0.00  0.00    +0.000 A 
ENDBRANCH  12  23
BRANCH  11  30
ATOM     30  C   UNL     1      -2.846  12.118  19.896  0.00  0.00    +0.000 C 
ATOM     31  N   UNL     1      -3.858  12.631  20.125  0.00  0.00    +0.000 NA
ENDBRANCH  11  30
TORSDOF 2
ENDMDL
MODEL 6
REMARK VINA RESULT:      -6.2      2.011      3.796
REMARK  Name = 
REMARK  4 active torsions:
REMARK  status: ('A' for Active; 'I' for Inactive)
REMARK    1  A    between atoms: C_1  and  C_2
REMARK    2  A    between atoms: N_11  and  C_12
REMARK    3  A    between atoms: N_14  and  C_15
REMARK    4  A    between atoms: C_22  and  C_23
REMARK                            x       y       z     vdW  Elec       q    Type
REMARK                         _______ _______ _______ _____ _____    ______ ____
ROOT
ATOM      1  C   UNL     1       6.314   4.033  15.746  0.00  0.00    +0.000 C 
ATOM      2  C   UNL     1       5.197   4.118  16.718  0.00  0.00    +0.000 A 
ATOM      3  C   UNL     1       4.643   5.204  17.371  0.00  0.00    +0.000 A 
ATOM      4  C   UNL     1       3.467   4.764  18.046  0.00  0.00    +0.000 A 
ATOM      5  C   UNL     1       2.422   5.368  18.778  0.00  0.00    +0.000 A 
ATOM      6  N   UNL     1       2.352   6.763  18.966  0.00  0.00    +0.000 N 
ATOM      7  C   UNL     1       1.590   7.158  20.169  0.00  0.00    +0.000 C 
ATOM      8  C   UNL     1       1.699   8.688  20.379  0.00  0.00    +0.000 C 
ATOM      9  N   UNL     1       1.297   9.473  19.181  0.00  0.00    +0.000 N 
ATOM     10  C   UNL     1       0.148  10.260  19.197  0.00  0.00    +0.000 C 
ATOM     11  N   UNL     1      -0.852   9.974  18.423  0.00  0.00    +0.000 NA
ATOM     12  N   UNL     1       0.298  11.262  20.142  0.00  0.00    +0.000 N 
ATOM     13  C   UNL     1       1.867   8.971  17.901  0.00  0.00    +0.000 C 
ATOM     14  C   UNL     1       3.321   9.450  17.801  0.00  0.00    +0.000 C 
ATOM     15  C   UNL     1       1.793   7.424  17.762  0.00  0.00    +0.000 C 
ATOM     16  N   UNL     1       1.461   4.549  19.281  0.00  0.00    +0.000 NA
ATOM     17  C   UNL     1       1.535   3.224  19.029  0.00  0.00    +0.000 A 
ATOM     18  N   UNL     1       2.472   2.555  18.336  0.00  0.00    +0.000 NA
ATOM     19  C   UNL     1       3.411   3.390  17.870  0.00  0.00    +0.000 A 
ATOM     20  N   UNL     1       4.476   3.009  17.100  0.00  0.00    +0.000 N 
ATOM     21  H   UNL     1       1.255  11.269  20.484  0.00  0.00    +0.000 HD
ATOM     22  H   UNL     1       4.647   2.055  16.815  0.00  0.00    +0.000 HD
ENDROOT
BRANCH  12  23
ATOM     23  C   UNL     1      -0.115  12.617  20.030  0.00  0.00    +0.000 A 
ATOM     24  C   UNL     1       0.344  13.357  18.926  0.00  0.00    +0.000 A 
ATOM     25  C   UNL     1      -0.068  14.677  18.715  0.00  0.00    +0.000 A 
ATOM     26  C   UNL     1      -0.961  15.274  19.598  0.00  0.00    +0.000 A 
ATOM     27  C   UNL     1      -1.445  14.542  20.680  0.00  0.00    +0.000 A 
ATOM     28 BR   UNL     1      -2.672  15.348  21.873  0.00  0.00    +0.000 Br
ATOM     29  C   UNL     1      -1.041  13.218  20.890  0.00  0.00    +0.000 A 
ENDBRANCH  12  23
BRANCH  11  30
ATOM     30  C   UNL     1      -2.007  10.645  18.539  0.00  0.00    +0.000 C 
ATOM     31  N   UNL     1      -2.984  11.255  18.650  0.00  0.00    +0.000 NA
ENDBRANCH  11  30
TORSDOF 2
ENDMDL
MODEL 7
REMARK VINA RESULT:      -6.2      2.309      4.029
REMARK  Name = 
REMARK  4 active torsions:
REMARK  status: ('A' for Active; 'I' for Inactive)
REMARK    1  A    between atoms: C_1  and  C_2
REMARK    2  A    between atoms: N_11  and  C_12
REMARK    3  A    between atoms: N_14  and  C_15
REMARK    4  A    between atoms: C_22  and  C_23
REMARK                            x       y       z     vdW  Elec       q    Type
REMARK                         _______ _______ _______ _____ _____    ______ ____
ROOT
ATOM      1  C   UNL     1       6.849   5.142  15.600  0.00  0.00    +0.000 C 
ATOM      2  C   UNL     1       5.668   5.011  16.488  0.00  0.00    +0.000 A 
ATOM      3  C   UNL     1       4.963   5.962  17.204  0.00  0.00    +0.000 A 
ATOM      4  C   UNL     1       3.797   5.338  17.739  0.00  0.00    +0.000 A 
ATOM      5  C   UNL     1       2.649   5.754  18.447  0.00  0.00    +0.000 A 
ATOM      6  N   UNL     1       2.422   7.107  18.771  0.00  0.00    +0.000 N 
ATOM      7  C   UNL     1       1.546   7.293  19.946  0.00  0.00    +0.000 C 
ATOM      8  C   UNL     1       1.480   8.794  20.319  0.00  0.00    +0.000 C 
ATOM      9  N   UNL     1       1.078   9.663  19.180  0.00  0.00    +0.000 N 
ATOM     10  C   UNL     1      -0.146  10.328  19.189  0.00  0.00    +0.000 C 
ATOM     11  N   UNL     1      -1.058  10.032  18.316  0.00  0.00    +0.000 NA
ATOM     12  N   UNL     1      -0.164  11.230  20.240  0.00  0.00    +0.000 N 
ATOM     13  C   UNL     1       1.780   9.361  17.902  0.00  0.00    +0.000 C 
ATOM     14  C   UNL     1       3.179   9.986  17.963  0.00  0.00    +0.000 C 
ATOM     15  C   UNL     1       1.877   7.839  17.601  0.00  0.00    +0.000 C 
ATOM     16  N   UNL     1       1.749   4.796  18.790  0.00  0.00    +0.000 NA
ATOM     17  C   UNL     1       1.977   3.520  18.411  0.00  0.00    +0.000 A 
ATOM     18  N   UNL     1       3.022   3.025  17.726  0.00  0.00    +0.000 NA
ATOM     19  C   UNL     1       3.897   3.993  17.421  0.00  0.00    +0.000 A 
ATOM     20  N   UNL     1       5.044   3.803  16.699  0.00  0.00    +0.000 N 
ATOM     21  H   UNL     1       0.763  11.293  20.652  0.00  0.00    +0.000 HD
ATOM     22  H   UNL     1       5.331   2.907  16.331  0.00  0.00    +0.000 HD
ENDROOT
BRANCH  12  23
ATOM     23  C   UNL     1      -0.707  12.543  20.235  0.00  0.00    +0.000 A 
ATOM     24  C   UNL     1      -1.754  12.827  21.130  0.00  0.00    +0.000 A 
ATOM     25  C   UNL     1      -2.298  14.112  21.227  0.00  0.00    +0.000 A 
ATOM     26  C   UNL     1      -1.792  15.140  20.439  0.00  0.00    +0.000 A 
ATOM     27  C   UNL     1      -0.736  14.878  19.568  0.00  0.00    +0.000 A 
ATOM     28 BR   UNL     1      -0.036  16.280  18.508  0.00  0.00    +0.000 Br
ATOM     29  C   UNL     1      -0.183  13.596  19.475  0.00  0.00    +0.000 A 
ENDBRANCH  12  23
BRANCH  11  30
ATOM     30  C   UNL     1      -2.281  10.572  18.412  0.00  0.00    +0.000 C 
ATOM     31  N   UNL     1      -3.345  11.026  18.461  0.00  0.00    +0.000 NA
ENDBRANCH  11  30
TORSDOF 2
ENDMDL
MODEL 8
REMARK VINA RESULT:      -6.1      5.611      7.818
REMARK  Name = 
REMARK  4 active torsions:
REMARK  status: ('A' for Active; 'I' for Inactive)
REMARK    1  A    between atoms: C_1  and  C_2
REMARK    2  A    between atoms: N_11  and  C_12
REMARK    3  A    between atoms: N_14  and  C_15
REMARK    4  A    between atoms: C_22  and  C_23
REMARK                            x       y       z     vdW  Elec       q    Type
REMARK                         _______ _______ _______ _____ _____    ______ ____
ROOT
ATOM      1  C   UNL     1      -3.042   9.631  15.525  0.00  0.00    +0.000 C 
ATOM      2  C   UNL     1      -2.892  10.380  16.797  0.00  0.00    +0.000 A 
ATOM      3  C   UNL     1      -1.761  10.809  17.468  0.00  0.00    +0.000 A 
ATOM      4  C   UNL     1      -2.176  11.652  18.541  0.00  0.00    +0.000 A 
ATOM      5  C   UNL     1      -1.543  12.466  19.504  0.00  0.00    +0.000 A 
ATOM      6  N   UNL     1      -0.143  12.624  19.545  0.00  0.00    +0.000 N 
ATOM      7  C   UNL     1       0.371  12.998  20.878  0.00  0.00    +0.000 C 
ATOM      8  C   UNL     1       1.919  12.994  20.864  0.00  0.00    +0.000 C 
ATOM      9  N   UNL     1       2.496  13.842  19.786  0.00  0.00    +0.000 N 
ATOM     10  C   UNL     1       3.201  15.003  20.093  0.00  0.00    +0.000 C 
ATOM     11  N   UNL     1       2.742  16.162  19.733  0.00  0.00    +0.000 NA
ATOM     12  N   UNL     1       4.335  14.668  20.814  0.00  0.00    +0.000 N 
ATOM     13  C   UNL     1       1.853  13.661  18.456  0.00  0.00    +0.000 C 
ATOM     14  C   UNL     1       2.407  12.377  17.825  0.00  0.00    +0.000 C 
ATOM     15  C   UNL     1       0.301  13.607  18.527  0.00  0.00    +0.000 C 
ATOM     16  N   UNL     1      -2.342  13.120  20.388  0.00  0.00    +0.000 NA
ATOM     17  C   UNL     1      -3.682  12.987  20.279  0.00  0.00    +0.000 A 
ATOM     18  N   UNL     1      -4.381  12.256  19.395  0.00  0.00    +0.000 NA
ATOM     19  C   UNL     1      -3.561  11.612  18.552  0.00  0.00    +0.000 A 
ATOM     20  N   UNL     1      -3.979  10.815  17.521  0.00  0.00    +0.000 N 
ATOM     21  H   UNL     1       4.454  13.658  20.815  0.00  0.00    +0.000 HD
ATOM     22  H   UNL     1      -4.951  10.643  17.306  0.00  0.00    +0.000 HD
ENDROOT
BRANCH  12  23
ATOM     23  C   UNL     1       5.630  15.240  20.691  0.00  0.00    +0.000 A 
ATOM     24  C   UNL     1       6.259  15.706  21.859  0.00  0.00    +0.000 A 
ATOM     25  C   UNL     1       7.558  16.225  21.827  0.00  0.00    +0.000 A 
ATOM     26  C   UNL     1       8.257  16.269  20.625  0.00  0.00    +0.000 A 
ATOM     27  C   UNL     1       7.655  15.785  19.465  0.00  0.00    +0.000 A 
ATOM     28 BR   UNL     1       8.610  15.830  17.833  0.00  0.00    +0.000 Br
ATOM     29  C   UNL     1       6.359  15.257  19.496  0.00  0.00    +0.000 A 
ENDBRANCH  12  23
BRANCH  11  30
ATOM     30  C   UNL     1       3.346  17.283  20.149  0.00  0.00    +0.000 C 
ATOM     31  N   UNL     1       3.893  18.248  20.480  0.00  0.00    +0.000 NA
ENDBRANCH  11  30
TORSDOF 2
ENDMDL
MODEL 9
REMARK VINA RESULT:      -6.0      3.535      9.503
REMARK  Name = 
REMARK  4 active torsions:
REMARK  status: ('A' for Active; 'I' for Inactive)
REMARK    1  A    between atoms: C_1  and  C_2
REMARK    2  A    between atoms: N_11  and  C_12
REMARK    3  A    between atoms: N_14  and  C_15
REMARK    4  A    between atoms: C_22  and  C_23
REMARK                            x       y       z     vdW  Elec       q    Type
REMARK                         _______ _______ _______ _____ _____    ______ ____
ROOT
ATOM      1  C   UNL     1      -0.251  17.743  20.277  0.00  0.00    +0.000 C 
ATOM      2  C   UNL     1      -0.968  16.446  20.215  0.00  0.00    +0.000 A 
ATOM      3  C   UNL     1      -0.594  15.229  19.674  0.00  0.00    +0.000 A 
ATOM      4  C   UNL     1      -1.566  14.258  20.054  0.00  0.00    +0.000 A 
ATOM      5  C   UNL     1      -1.719  12.860  19.928  0.00  0.00    +0.000 A 
ATOM      6  N   UNL     1      -0.736  12.054  19.318  0.00  0.00    +0.000 N 
ATOM      7  C   UNL     1      -1.269  10.792  18.765  0.00  0.00    +0.000 C 
ATOM      8  C   UNL     1      -0.157  10.052  17.983  0.00  0.00    +0.000 C 
ATOM      9  N   UNL     1       1.076   9.833  18.786  0.00  0.00    +0.000 N 
ATOM     10  C   UNL     1       1.462   8.549  19.164  0.00  0.00    +0.000 C 
ATOM     11  N   UNL     1       1.483   8.215  20.418  0.00  0.00    +0.000 NA
ATOM     12  N   UNL     1       1.739   7.806  18.029  0.00  0.00    +0.000 N 
ATOM     13  C   UNL     1       1.531  11.029  19.547  0.00  0.00    +0.000 C 
ATOM     14  C   UNL     1       2.257  11.969  18.577  0.00  0.00    +0.000 C 
ATOM     15  C   UNL     1       0.371  11.776  20.264  0.00  0.00    +0.000 C 
ATOM     16  N   UNL     1      -2.849  12.309  20.444  0.00  0.00    +0.000 NA
ATOM     17  C   UNL     1      -3.738  13.109  21.071  0.00  0.00    +0.000 A 
ATOM     18  N   UNL     1      -3.681  14.438  21.258  0.00  0.00    +0.000 NA
ATOM     19  C   UNL     1      -2.564  14.949  20.723  0.00  0.00    +0.000 A 
ATOM     20  N   UNL     1      -2.210  16.270  20.781  0.00  0.00    +0.000 N 
ATOM     21  H   UNL     1       1.739   8.413  17.214  0.00  0.00    +0.000 HD
ATOM     22  H   UNL     1      -2.766  16.979  21.238  0.00  0.00    +0.000 HD
ENDROOT
BRANCH  12  23
ATOM     23  C   UNL     1       2.796   6.872  17.852  0.00  0.00    +0.000 A 
ATOM     24  C   UNL     1       2.460   5.512  17.730  0.00  0.00    +0.000 A 
ATOM     25  C   UNL     1       3.438   4.541  17.492  0.00  0.00    +0.000 A 
ATOM     26  C   UNL     1       4.770   4.918  17.355  0.00  0.00    +0.000 A 
ATOM     27  C   UNL     1       5.112   6.266  17.446  0.00  0.00    +0.000 A 
ATOM     28 BR   UNL     1       6.921   6.782  17.244  0.00  0.00    +0.000 Br
ATOM     29  C   UNL     1       4.134   7.241  17.676  0.00  0.00    +0.000 A 
ENDBRANCH  12  23
BRANCH  11  30
ATOM     30  C   UNL     1       1.718   6.944  20.771  0.00  0.00    +0.000 C 
ATOM     31  N   UNL     1       1.888   5.845  21.092  0.00  0.00    +0.000 NA
ENDBRANCH  11  30
TORSDOF 2
ENDMDL
