MODEL 1
REMARK VINA RESULT:      -7.0      0.000      0.000
REMARK  Name = 
REMARK  12 active torsions:
REMARK  status: ('A' for Active; 'I' for Inactive)
REMARK    1  A    between atoms: C_1  and  O_2
REMARK    2  A    between atoms: O_2  and  C_3
REMARK    3  A    between atoms: C_3  and  C_5
REMARK    4  A    between atoms: C_5  and  N_6
REMARK    5  A    between atoms: N_6  and  C_7
REMARK    6  A    between atoms: N_6  and  S_17
REMARK    7  A    between atoms: C_10  and  O_11
REMARK    8  A    between atoms: O_11  and  C_12
REMARK    9  A    between atoms: C_14  and  O_15
REMARK   10  A    between atoms: O_15  and  C_16
REMARK   11  A    between atoms: S_17  and  C_20
REMARK   12  A    between atoms: C_25  and  N_26
REMARK                            x       y       z     vdW  Elec       q    Type
REMARK                         _______ _______ _______ _____ _____    ______ ____
ROOT
ATOM      1  N   UNL     1       4.514   5.416  17.527  0.00  0.00    +0.000 N 
ENDROOT
BRANCH   1   2
ATOM      2  C   UNL     1       5.333   5.144  16.361  0.00  0.00    +0.000 A 
ATOM      3  C   UNL     1       4.717   4.465  15.291  0.00  0.00    +0.000 A 
ATOM      4  C   UNL     1       5.413   4.152  14.122  0.00  0.00    +0.000 A 
ATOM      5  C   UNL     1       6.748   4.509  13.983  0.00  0.00    +0.000 A 
ATOM      6  C   UNL     1       7.370   5.175  15.035  0.00  0.00    +0.000 A 
ATOM      7  C   UNL     1       6.686   5.505  16.229  0.00  0.00    +0.000 A 
BRANCH   5   8
ATOM      8  O   UNL     1       7.319   4.153  12.796  0.00  0.00    +0.000 OA
ATOM      9  C   UNL     1       6.545   3.342  11.919  0.00  0.00    +0.000 C 
ENDBRANCH   5   8
BRANCH   7  10
ATOM     10  O   UNL     1       7.554   6.092  17.104  0.00  0.00    +0.000 OA
ATOM     11  C   UNL     1       7.481   7.460  17.449  0.00  0.00    +0.000 C 
ENDBRANCH   7  10
ENDBRANCH   1   2
BRANCH   1  12
ATOM     12  S   UNL     1       4.890   4.581  18.969  0.00  0.00    +0.000 S 
ATOM     13  O   UNL     1       5.716   3.439  18.651  0.00  0.00    +0.000 OA
ATOM     14  O   UNL     1       5.376   5.545  19.940  0.00  0.00    +0.000 OA
BRANCH  12  15
ATOM     15  C   UNL     1       3.369   3.958  19.671  0.00  0.00    +0.000 A 
ATOM     16  C   UNL     1       3.031   4.415  20.958  0.00  0.00    +0.000 A 
ATOM     17  C   UNL     1       2.011   3.803  21.692  0.00  0.00    +0.000 A 
ATOM     18  C   UNL     1       1.321   2.716  21.161  0.00  0.00    +0.000 A 
ATOM     19  C   UNL     1       1.640   2.248  19.887  0.00  0.00    +0.000 A 
ATOM     20  C   UNL     1       2.670   2.868  19.155  0.00  0.00    +0.000 A 
BRANCH  20  21
ATOM     21  N   UNL     1       2.912   2.351  17.826  0.00  0.00    +0.000 N 
ATOM     22  O   UNL     1       2.296   2.904  16.904  0.00  0.00    +0.000 OA
ATOM     23  O   UNL     1       3.617   1.340  17.727  0.00  0.00    +0.000 OA
ENDBRANCH  20  21
ENDBRANCH  12  15
ENDBRANCH   1  12
BRANCH   1  24
ATOM     24  C   UNL     1       4.009   6.814  17.683  0.00  0.00    +0.000 C 
BRANCH  24  25
ATOM     25  C   UNL     1       2.557   6.902  18.099  0.00  0.00    +0.000 C 
ATOM     26  O   UNL     1       1.718   6.047  17.842  0.00  0.00    +0.000 OA
BRANCH  25  28
ATOM     27  C   UNL     1       2.073   9.200  17.854  0.00  0.00    +0.000 C 
ATOM     28  O   UNL     1       2.296   8.086  18.720  0.00  0.00    +0.000 OA
ENDBRANCH  25  28
ENDBRANCH  24  25
ENDBRANCH   1  24
TORSDOF 9
ENDMDL
MODEL 2
REMARK VINA RESULT:      -6.6      1.927      6.436
REMARK  Name = 
REMARK  12 active torsions:
REMARK  status: ('A' for Active; 'I' for Inactive)
REMARK    1  A    between atoms: C_1  and  O_2
REMARK    2  A    between atoms: O_2  and  C_3
REMARK    3  A    between atoms: C_3  and  C_5
REMARK    4  A    between atoms: C_5  and  N_6
REMARK    5  A    between atoms: N_6  and  C_7
REMARK    6  A    between atoms: N_6  and  S_17
REMARK    7  A    between atoms: C_10  and  O_11
REMARK    8  A    between atoms: O_11  and  C_12
REMARK    9  A    between atoms: C_14  and  O_15
REMARK   10  A    between atoms: O_15  and  C_16
REMARK   11  A    between atoms: S_17  and  C_20
REMARK   12  A    between atoms: C_25  and  N_26
REMARK                            x       y       z     vdW  Elec       q    Type
REMARK                         _______ _______ _______ _____ _____    ______ ____
ROOT
ATOM      1  N   UNL     1       3.211   4.640  19.089  0.00  0.00    +0.000 N 
ENDROOT
BRANCH   1   2
ATOM      2  C   UNL     1       2.592   5.911  19.413  0.00  0.00    +0.000 A 
ATOM      3  C   UNL     1       1.909   5.997  20.643  0.00  0.00    +0.000 A 
ATOM      4  C   UNL     1       1.278   7.172  21.052  0.00  0.00    +0.000 A 
ATOM      5  C   UNL     1       1.308   8.303  20.247  0.00  0.00    +0.000 A 
ATOM      6  C   UNL     1       1.975   8.231  19.027  0.00  0.00    +0.000 A 
ATOM      7  C   UNL     1       2.624   7.052  18.590  0.00  0.00    +0.000 A 
BRANCH   5   8
ATOM      8  O   UNL     1       0.659   9.391  20.756  0.00  0.00    +0.000 OA
ATOM      9  C   UNL     1      -0.174   9.179  21.890  0.00  0.00    +0.000 C 
ENDBRANCH   5   8
BRANCH   7  10
ATOM     10  O   UNL     1       3.134   7.250  17.339  0.00  0.00    +0.000 OA
ATOM     11  C   UNL     1       4.427   7.771  17.116  0.00  0.00    +0.000 C 
ENDBRANCH   7  10
ENDBRANCH   1   2
BRANCH   1  12
ATOM     12  S   UNL     1       4.917   4.557  19.134  0.00  0.00    +0.000 S 
ATOM     13  O   UNL     1       5.425   5.699  19.858  0.00  0.00    +0.000 OA
ATOM     14  O   UNL     1       5.295   3.226  19.575  0.00  0.00    +0.000 OA
BRANCH  12  15
ATOM     15  C   UNL     1       5.530   4.672  17.461  0.00  0.00    +0.000 A 
ATOM     16  C   UNL     1       4.698   4.167  16.444  0.00  0.00    +0.000 A 
ATOM     17  C   UNL     1       5.185   3.977  15.147  0.00  0.00    +0.000 A 
ATOM     18  C   UNL     1       6.511   4.273  14.845  0.00  0.00    +0.000 A 
ATOM     19  C   UNL     1       7.352   4.775  15.838  0.00  0.00    +0.000 A 
ATOM     20  C   UNL     1       6.857   4.962  17.142  0.00  0.00    +0.000 A 
BRANCH  20  21
ATOM     21  N   UNL     1       7.778   5.525  18.104  0.00  0.00    +0.000 N 
ATOM     22  O   UNL     1       7.931   6.755  18.059  0.00  0.00    +0.000 OA
ATOM     23  O   UNL     1       8.418   4.738  18.810  0.00  0.00    +0.000 OA
ENDBRANCH  20  21
ENDBRANCH  12  15
ENDBRANCH   1  12
BRANCH   1  24
ATOM     24  C   UNL     1       2.475   3.408  19.506  0.00  0.00    +0.000 C 
BRANCH  24  25
ATOM     25  C   UNL     1       1.666   2.769  18.400  0.00  0.00    +0.000 C 
ATOM     26  O   UNL     1       0.455   2.904  18.271  0.00  0.00    +0.000 OA
BRANCH  25  28
ATOM     27  C   UNL     1       3.437   1.209  18.320  0.00  0.00    +0.000 C 
ATOM     28  O   UNL     1       2.446   1.967  17.623  0.00  0.00    +0.000 OA
ENDBRANCH  25  28
ENDBRANCH  24  25
ENDBRANCH   1  24
TORSDOF 9
ENDMDL
MODEL 3
REMARK VINA RESULT:      -6.4      2.187      6.287
REMARK  Name = 
REMARK  12 active torsions:
REMARK  status: ('A' for Active; 'I' for Inactive)
REMARK    1  A    between atoms: C_1  and  O_2
REMARK    2  A    between atoms: O_2  and  C_3
REMARK    3  A    between atoms: C_3  and  C_5
REMARK    4  A    between atoms: C_5  and  N_6
REMARK    5  A    between atoms: N_6  and  C_7
REMARK    6  A    between atoms: N_6  and  S_17
REMARK    7  A    between atoms: C_10  and  O_11
REMARK    8  A    between atoms: O_11  and  C_12
REMARK    9  A    between atoms: C_14  and  O_15
REMARK   10  A    between atoms: O_15  and  C_16
REMARK   11  A    between atoms: S_17  and  C_20
REMARK   12  A    between atoms: C_25  and  N_26
REMARK                            x       y       z     vdW  Elec       q    Type
REMARK                         _______ _______ _______ _____ _____    ______ ____
ROOT
ATOM      1  N   UNL     1       3.886   4.772  17.509  0.00  0.00    +0.000 N 
ENDROOT
BRANCH   1   2
ATOM      2  C   UNL     1       3.226   5.664  18.443  0.00  0.00    +0.000 A 
ATOM      3  C   UNL     1       2.996   6.986  18.013  0.00  0.00    +0.000 A 
ATOM      4  C   UNL     1       2.370   7.926  18.833  0.00  0.00    +0.000 A 
ATOM      5  C   UNL     1       1.951   7.576  20.110  0.00  0.00    +0.000 A 
ATOM      6  C   UNL     1       2.176   6.274  20.549  0.00  0.00    +0.000 A 
ATOM      7  C   UNL     1       2.807   5.303  19.737  0.00  0.00    +0.000 A 
BRANCH   5   8
ATOM      8  O   UNL     1       1.348   8.578  20.814  0.00  0.00    +0.000 OA
ATOM      9  C   UNL     1       0.895   9.709  20.078  0.00  0.00    +0.000 C 
ENDBRANCH   5   8
BRANCH   7  10
ATOM     10  O   UNL     1       2.953   4.143  20.443  0.00  0.00    +0.000 OA
ATOM     11  C   UNL     1       2.144   3.820  21.554  0.00  0.00    +0.000 C 
ENDBRANCH   7  10
ENDBRANCH   1   2
BRANCH   1  12
ATOM     12  S   UNL     1       5.425   4.171  17.942  0.00  0.00    +0.000 S 
ATOM     13  O   UNL     1       5.391   3.736  19.319  0.00  0.00    +0.000 OA
ATOM     14  O   UNL     1       5.849   3.228  16.922  0.00  0.00    +0.000 OA
BRANCH  12  15
ATOM     15  C   UNL     1       6.602   5.511  17.837  0.00  0.00    +0.000 A 
ATOM     16  C   UNL     1       7.364   5.777  18.989  0.00  0.00    +0.000 A 
ATOM     17  C   UNL     1       8.119   6.950  19.095  0.00  0.00    +0.000 A 
ATOM     18  C   UNL     1       8.114   7.882  18.061  0.00  0.00    +0.000 A 
ATOM     19  C   UNL     1       7.366   7.637  16.910  0.00  0.00    +0.000 A 
ATOM     20  C   UNL     1       6.607   6.456  16.810  0.00  0.00    +0.000 A 
BRANCH  20  21
ATOM     21  N   UNL     1       5.892   6.255  15.570  0.00  0.00    +0.000 N 
ATOM     22  O   UNL     1       6.371   5.416  14.793  0.00  0.00    +0.000 OA
ATOM     23  O   UNL     1       4.938   7.005  15.334  0.00  0.00    +0.000 OA
ENDBRANCH  20  21
ENDBRANCH  12  15
ENDBRANCH   1  12
BRANCH   1  24
ATOM     24  C   UNL     1       3.009   3.848  16.727  0.00  0.00    +0.000 C 
BRANCH  24  25
ATOM     25  C   UNL     1       2.415   2.723  17.544  0.00  0.00    +0.000 C 
ATOM     26  O   UNL     1       3.013   1.691  17.826  0.00  0.00    +0.000 OA
BRANCH  25  28
ATOM     27  C   UNL     1       0.546   2.141  18.865  0.00  0.00    +0.000 C 
ATOM     28  O   UNL     1       1.113   2.976  17.853  0.00  0.00    +0.000 OA
ENDBRANCH  25  28
ENDBRANCH  24  25
ENDBRANCH   1  24
TORSDOF 9
ENDMDL
MODEL 4
REMARK VINA RESULT:      -6.3      1.900      6.398
REMARK  Name = 
REMARK  12 active torsions:
REMARK  status: ('A' for Active; 'I' for Inactive)
REMARK    1  A    between atoms: C_1  and  O_2
REMARK    2  A    between atoms: O_2  and  C_3
REMARK    3  A    between atoms: C_3  and  C_5
REMARK    4  A    between atoms: C_5  and  N_6
REMARK    5  A    between atoms: N_6  and  C_7
REMARK    6  A    between atoms: N_6  and  S_17
REMARK    7  A    between atoms: C_10  and  O_11
REMARK    8  A    between atoms: O_11  and  C_12
REMARK    9  A    between atoms: C_14  and  O_15
REMARK   10  A    between atoms: O_15  and  C_16
REMARK   11  A    between atoms: S_17  and  C_20
REMARK   12  A    between atoms: C_25  and  N_26
REMARK                            x       y       z     vdW  Elec       q    Type
REMARK                         _______ _______ _______ _____ _____    ______ ____
ROOT
ATOM      1  N   UNL     1       3.307   4.462  19.179  0.00  0.00    +0.000 N 
ENDROOT
BRANCH   1   2
ATOM      2  C   UNL     1       2.674   5.734  19.471  0.00  0.00    +0.000 A 
ATOM      3  C   UNL     1       1.979   5.839  20.692  0.00  0.00    +0.000 A 
ATOM      4  C   UNL     1       1.334   7.017  21.072  0.00  0.00    +0.000 A 
ATOM      5  C   UNL     1       1.363   8.131  20.243  0.00  0.00    +0.000 A 
ATOM      6  C   UNL     1       2.042   8.040  19.031  0.00  0.00    +0.000 A 
ATOM      7  C   UNL     1       2.705   6.858  18.625  0.00  0.00    +0.000 A 
BRANCH   5   8
ATOM      8  O   UNL     1       0.700   9.224  20.724  0.00  0.00    +0.000 OA
ATOM      9  C   UNL     1       0.270   9.180  22.079  0.00  0.00    +0.000 C 
ENDBRANCH   5   8
BRANCH   7  10
ATOM     10  O   UNL     1       3.226   7.034  17.375  0.00  0.00    +0.000 OA
ATOM     11  C   UNL     1       4.440   7.716  17.144  0.00  0.00    +0.000 C 
ENDBRANCH   7  10
ENDBRANCH   1   2
BRANCH   1  12
ATOM     12  S   UNL     1       5.014   4.419  19.139  0.00  0.00    +0.000 S 
ATOM     13  O   UNL     1       5.531   5.571  19.841  0.00  0.00    +0.000 OA
ATOM     14  O   UNL     1       5.445   3.096  19.555  0.00  0.00    +0.000 OA
BRANCH  12  15
ATOM     15  C   UNL     1       5.540   4.552  17.437  0.00  0.00    +0.000 A 
ATOM     16  C   UNL     1       4.659   4.052  16.460  0.00  0.00    +0.000 A 
ATOM     17  C   UNL     1       5.079   3.877  15.138  0.00  0.00    +0.000 A 
ATOM     18  C   UNL     1       6.387   4.182  14.771  0.00  0.00    +0.000 A 
ATOM     19  C   UNL     1       7.276   4.679  15.724  0.00  0.00    +0.000 A 
ATOM     20  C   UNL     1       6.847   4.851  17.054  0.00  0.00    +0.000 A 
BRANCH  20  21
ATOM     21  N   UNL     1       7.815   5.409  17.972  0.00  0.00    +0.000 N 
ATOM     22  O   UNL     1       8.429   4.596  18.679  0.00  0.00    +0.000 OA
ATOM     23  O   UNL     1       7.873   6.641  18.060  0.00  0.00    +0.000 OA
ENDBRANCH  20  21
ENDBRANCH  12  15
ENDBRANCH   1  12
BRANCH   1  24
ATOM     24  C   UNL     1       2.624   3.237  19.696  0.00  0.00    +0.000 C 
BRANCH  24  25
ATOM     25  C   UNL     1       2.400   2.168  18.649  0.00  0.00    +0.000 C 
ATOM     26  O   UNL     1       3.263   1.380  18.279  0.00  0.00    +0.000 OA
BRANCH  25  28
ATOM     27  C   UNL     1       0.171   2.883  18.954  0.00  0.00    +0.000 C 
ATOM     28  O   UNL     1       1.147   2.252  18.123  0.00  0.00    +0.000 OA
ENDBRANCH  25  28
ENDBRANCH  24  25
ENDBRANCH   1  24
TORSDOF 9
ENDMDL
MODEL 5
REMARK VINA RESULT:      -6.3      1.509      2.220
REMARK  Name = 
REMARK  12 active torsions:
REMARK  status: ('A' for Active; 'I' for Inactive)
REMARK    1  A    between atoms: C_1  and  O_2
REMARK    2  A    between atoms: O_2  and  C_3
REMARK    3  A    between atoms: C_3  and  C_5
REMARK    4  A    between atoms: C_5  and  N_6
REMARK    5  A    between atoms: N_6  and  C_7
REMARK    6  A    between atoms: N_6  and  S_17
REMARK    7  A    between atoms: C_10  and  O_11
REMARK    8  A    between atoms: O_11  and  C_12
REMARK    9  A    between atoms: C_14  and  O_15
REMARK   10  A    between atoms: O_15  and  C_16
REMARK   11  A    between atoms: S_17  and  C_20
REMARK   12  A    between atoms: C_25  and  N_26
REMARK                            x       y       z     vdW  Elec       q    Type
REMARK                         _______ _______ _______ _____ _____    ______ ____
ROOT
ATOM      1  N   UNL     1       3.477   5.162  17.753  0.00  0.00    +0.000 N 
ENDROOT
BRANCH   1   2
ATOM      2  C   UNL     1       4.711   5.219  16.993  0.00  0.00    +0.000 A 
ATOM      3  C   UNL     1       4.625   4.965  15.610  0.00  0.00    +0.000 A 
ATOM      4  C   UNL     1       5.752   4.992  14.786  0.00  0.00    +0.000 A 
ATOM      5  C   UNL     1       7.003   5.277  15.318  0.00  0.00    +0.000 A 
ATOM      6  C   UNL     1       7.103   5.525  16.684  0.00  0.00    +0.000 A 
ATOM      7  C   UNL     1       5.976   5.505  17.539  0.00  0.00    +0.000 A 
BRANCH   5   8
ATOM      8  O   UNL     1       8.026   5.279  14.414  0.00  0.00    +0.000 OA
ATOM      9  C   UNL     1       7.687   5.073  13.047  0.00  0.00    +0.000 C 
ENDBRANCH   5   8
BRANCH   7  10
ATOM     10  O   UNL     1       6.378   5.718  18.827  0.00  0.00    +0.000 OA
ATOM     11  C   UNL     1       7.735   5.856  19.190  0.00  0.00    +0.000 C 
ENDBRANCH   7  10
ENDBRANCH   1   2
BRANCH   1  12
ATOM     12  S   UNL     1       2.527   3.750  17.614  0.00  0.00    +0.000 S 
ATOM     13  O   UNL     1       1.260   4.092  17.009  0.00  0.00    +0.000 OA
ATOM     14  O   UNL     1       3.338   2.715  16.997  0.00  0.00    +0.000 OA
BRANCH  12  15
ATOM     15  C   UNL     1       2.185   3.138  19.256  0.00  0.00    +0.000 A 
ATOM     16  C   UNL     1       0.960   3.520  19.833  0.00  0.00    +0.000 A 
ATOM     17  C   UNL     1       0.711   3.310  21.193  0.00  0.00    +0.000 A 
ATOM     18  C   UNL     1       1.684   2.731  22.003  0.00  0.00    +0.000 A 
ATOM     19  C   UNL     1       2.905   2.344  21.451  0.00  0.00    +0.000 A 
ATOM     20  C   UNL     1       3.150   2.560  20.082  0.00  0.00    +0.000 A 
BRANCH  20  21
ATOM     21  N   UNL     1       4.422   2.094  19.577  0.00  0.00    +0.000 N 
ATOM     22  O   UNL     1       5.355   2.912  19.609  0.00  0.00    +0.000 OA
ATOM     23  O   UNL     1       4.454   0.974  19.057  0.00  0.00    +0.000 OA
ENDBRANCH  20  21
ENDBRANCH  12  15
ENDBRANCH   1  12
BRANCH   1  24
ATOM     24  C   UNL     1       3.478   5.833  19.089  0.00  0.00    +0.000 C 
BRANCH  24  25
ATOM     25  C   UNL     1       2.462   6.946  19.221  0.00  0.00    +0.000 C 
ATOM     26  O   UNL     1       1.966   7.298  20.285  0.00  0.00    +0.000 OA
BRANCH  25  28
ATOM     27  C   UNL     1       2.288   8.852  17.840  0.00  0.00    +0.000 C 
ATOM     28  O   UNL     1       2.119   7.443  18.001  0.00  0.00    +0.000 OA
ENDBRANCH  25  28
ENDBRANCH  24  25
ENDBRANCH   1  24
TORSDOF 9
ENDMDL
MODEL 6
REMARK VINA RESULT:      -6.3      2.052      6.288
REMARK  Name = 
REMARK  12 active torsions:
REMARK  status: ('A' for Active; 'I' for Inactive)
REMARK    1  A    between atoms: C_1  and  O_2
REMARK    2  A    between atoms: O_2  and  C_3
REMARK    3  A    between atoms: C_3  and  C_5
REMARK    4  A    between atoms: C_5  and  N_6
REMARK    5  A    between atoms: N_6  and  C_7
REMARK    6  A    between atoms: N_6  and  S_17
REMARK    7  A    between atoms: C_10  and  O_11
REMARK    8  A    between atoms: O_11  and  C_12
REMARK    9  A    between atoms: C_14  and  O_15
REMARK   10  A    between atoms: O_15  and  C_16
REMARK   11  A    between atoms: S_17  and  C_20
REMARK   12  A    between atoms: C_25  and  N_26
REMARK                            x       y       z     vdW  Elec       q    Type
REMARK                         _______ _______ _______ _____ _____    ______ ____
ROOT
ATOM      1  N   UNL     1       2.935   5.441  18.783  0.00  0.00    +0.000 N 
ENDROOT
BRANCH   1   2
ATOM      2  C   UNL     1       2.609   6.852  18.709  0.00  0.00    +0.000 A 
ATOM      3  C   UNL     1       3.013   7.543  17.550  0.00  0.00    +0.000 A 
ATOM      4  C   UNL     1       2.751   8.903  17.376  0.00  0.00    +0.000 A 
ATOM      5  C   UNL     1       2.075   9.618  18.356  0.00  0.00    +0.000 A 
ATOM      6  C   UNL     1       1.675   8.949  19.510  0.00  0.00    +0.000 A 
ATOM      7  C   UNL     1       1.927   7.571  19.708  0.00  0.00    +0.000 A 
BRANCH   5   8
ATOM      8  O   UNL     1       1.874  10.938  18.071  0.00  0.00    +0.000 OA
ATOM      9  C   UNL     1       1.328  11.751  19.104  0.00  0.00    +0.000 C 
ENDBRANCH   5   8
BRANCH   7  10
ATOM     10  O   UNL     1       1.484   7.200  20.945  0.00  0.00    +0.000 OA
ATOM     11  C   UNL     1       0.744   8.064  21.781  0.00  0.00    +0.000 C 
ENDBRANCH   7  10
ENDBRANCH   1   2
BRANCH   1  12
ATOM     12  S   UNL     1       4.574   5.019  19.019  0.00  0.00    +0.000 S 
ATOM     13  O   UNL     1       5.220   6.053  19.795  0.00  0.00    +0.000 OA
ATOM     14  O   UNL     1       4.626   3.650  19.501  0.00  0.00    +0.000 OA
BRANCH  12  15
ATOM     15  C   UNL     1       5.377   4.970  17.425  0.00  0.00    +0.000 A 
ATOM     16  C   UNL     1       4.614   4.488  16.345  0.00  0.00    +0.000 A 
ATOM     17  C   UNL     1       5.218   4.171  15.124  0.00  0.00    +0.000 A 
ATOM     18  C   UNL     1       6.594   4.315  14.964  0.00  0.00    +0.000 A 
ATOM     19  C   UNL     1       7.368   4.792  16.022  0.00  0.00    +0.000 A 
ATOM     20  C   UNL     1       6.754   5.107  17.249  0.00  0.00    +0.000 A 
BRANCH  20  21
ATOM     21  N   UNL     1       7.618   5.633  18.281  0.00  0.00    +0.000 N 
ATOM     22  O   UNL     1       7.870   6.846  18.217  0.00  0.00    +0.000 OA
ATOM     23  O   UNL     1       8.122   4.826  19.070  0.00  0.00    +0.000 OA
ENDBRANCH  20  21
ENDBRANCH  12  15
ENDBRANCH   1  12
BRANCH   1  24
ATOM     24  C   UNL     1       1.922   4.548  19.425  0.00  0.00    +0.000 C 
BRANCH  24  25
ATOM     25  C   UNL     1       1.352   3.497  18.499  0.00  0.00    +0.000 C 
ATOM     26  O   UNL     1       1.188   3.660  17.296  0.00  0.00    +0.000 OA
BRANCH  25  28
ATOM     27  C   UNL     1       1.474   2.296  20.528  0.00  0.00    +0.000 C 
ATOM     28  O   UNL     1       0.977   2.386  19.191  0.00  0.00    +0.000 OA
ENDBRANCH  25  28
ENDBRANCH  24  25
ENDBRANCH   1  24
TORSDOF 9
ENDMDL
MODEL 7
REMARK VINA RESULT:      -6.2      1.565      2.308
REMARK  Name = 
REMARK  12 active torsions:
REMARK  status: ('A' for Active; 'I' for Inactive)
REMARK    1  A    between atoms: C_1  and  O_2
REMARK    2  A    between atoms: O_2  and  C_3
REMARK    3  A    between atoms: C_3  and  C_5
REMARK    4  A    between atoms: C_5  and  N_6
REMARK    5  A    between atoms: N_6  and  C_7
REMARK    6  A    between atoms: N_6  and  S_17
REMARK    7  A    between atoms: C_10  and  O_11
REMARK    8  A    between atoms: O_11  and  C_12
REMARK    9  A    between atoms: C_14  and  O_15
REMARK   10  A    between atoms: O_15  and  C_16
REMARK   11  A    between atoms: S_17  and  C_20
REMARK   12  A    between atoms: C_25  and  N_26
REMARK                            x       y       z     vdW  Elec       q    Type
REMARK                         _______ _______ _______ _____ _____    ______ ____
ROOT
ATOM      1  N   UNL     1       3.747   4.847  17.536  0.00  0.00    +0.000 N 
ENDROOT
BRANCH   1   2
ATOM      2  C   UNL     1       4.946   5.087  16.757  0.00  0.00    +0.000 A 
ATOM      3  C   UNL     1       4.914   4.712  15.399  0.00  0.00    +0.000 A 
ATOM      4  C   UNL     1       6.015   4.898  14.560  0.00  0.00    +0.000 A 
ATOM      5  C   UNL     1       7.183   5.467  15.050  0.00  0.00    +0.000 A 
ATOM      6  C   UNL     1       7.230   5.838  16.390  0.00  0.00    +0.000 A 
ATOM      7  C   UNL     1       6.128   5.661  17.261  0.00  0.00    +0.000 A 
BRANCH   5   8
ATOM      8  O   UNL     1       8.186   5.601  14.134  0.00  0.00    +0.000 OA
ATOM      9  C   UNL     1       7.912   5.181  12.802  0.00  0.00    +0.000 C 
ENDBRANCH   5   8
BRANCH   7  10
ATOM     10  O   UNL     1       6.476   6.052  18.522  0.00  0.00    +0.000 OA
ATOM     11  C   UNL     1       7.755   5.809  19.070  0.00  0.00    +0.000 C 
ENDBRANCH   7  10
ENDBRANCH   1   2
BRANCH   1  12
ATOM     12  S   UNL     1       3.100   3.266  17.524  0.00  0.00    +0.000 S 
ATOM     13  O   UNL     1       1.978   3.222  16.614  0.00  0.00    +0.000 OA
ATOM     14  O   UNL     1       4.193   2.329  17.331  0.00  0.00    +0.000 OA
BRANCH  12  15
ATOM     15  C   UNL     1       2.475   2.901  19.157  0.00  0.00    +0.000 A 
ATOM     16  C   UNL     1       1.105   3.135  19.379  0.00  0.00    +0.000 A 
ATOM     17  C   UNL     1       0.576   3.127  20.673  0.00  0.00    +0.000 A 
ATOM     18  C   UNL     1       1.405   2.901  21.768  0.00  0.00    +0.000 A 
ATOM     19  C   UNL     1       2.766   2.666  21.570  0.00  0.00    +0.000 A 
ATOM     20  C   UNL     1       3.292   2.678  20.265  0.00  0.00    +0.000 A 
BRANCH  20  21
ATOM     21  N   UNL     1       4.703   2.385  20.140  0.00  0.00    +0.000 N 
ATOM     22  O   UNL     1       5.443   3.354  19.913  0.00  0.00    +0.000 OA
ATOM     23  O   UNL     1       5.043   1.198  20.157  0.00  0.00    +0.000 OA
ENDBRANCH  20  21
ENDBRANCH  12  15
ENDBRANCH   1  12
BRANCH   1  24
ATOM     24  C   UNL     1       3.610   5.610  18.814  0.00  0.00    +0.000 C 
BRANCH  24  25
ATOM     25  C   UNL     1       2.688   6.806  18.723  0.00  0.00    +0.000 C 
ATOM     26  O   UNL     1       2.255   7.257  17.669  0.00  0.00    +0.000 OA
BRANCH  25  28
ATOM     27  C   UNL     1       1.495   6.694  20.757  0.00  0.00    +0.000 C 
ATOM     28  O   UNL     1       2.473   7.354  19.951  0.00  0.00    +0.000 OA
ENDBRANCH  25  28
ENDBRANCH  24  25
ENDBRANCH   1  24
TORSDOF 9
ENDMDL
MODEL 8
REMARK VINA RESULT:      -6.2      2.399      6.378
REMARK  Name = 
REMARK  12 active torsions:
REMARK  status: ('A' for Active; 'I' for Inactive)
REMARK    1  A    between atoms: C_1  and  O_2
REMARK    2  A    between atoms: O_2  and  C_3
REMARK    3  A    between atoms: C_3  and  C_5
REMARK    4  A    between atoms: C_5  and  N_6
REMARK    5  A    between atoms: N_6  and  C_7
REMARK    6  A    between atoms: N_6  and  S_17
REMARK    7  A    between atoms: C_10  and  O_11
REMARK    8  A    between atoms: O_11  and  C_12
REMARK    9  A    between atoms: C_14  and  O_15
REMARK   10  A    between atoms: O_15  and  C_16
REMARK   11  A    between atoms: S_17  and  C_20
REMARK   12  A    between atoms: C_25  and  N_26
REMARK                            x       y       z     vdW  Elec       q    Type
REMARK                         _______ _______ _______ _____ _____    ______ ____
ROOT
ATOM      1  N   UNL     1       4.110   5.340  17.017  0.00  0.00    +0.000 N 
ENDROOT
BRANCH   1   2
ATOM      2  C   UNL     1       3.393   6.283  17.855  0.00  0.00    +0.000 A 
ATOM      3  C   UNL     1       3.047   7.520  17.275  0.00  0.00    +0.000 A 
ATOM      4  C   UNL     1       2.358   8.500  17.993  0.00  0.00    +0.000 A 
ATOM      5  C   UNL     1       1.989   8.274  19.312  0.00  0.00    +0.000 A 
ATOM      6  C   UNL     1       2.328   7.058  19.898  0.00  0.00    +0.000 A 
ATOM      7  C   UNL     1       3.025   6.049  19.192  0.00  0.00    +0.000 A 
BRANCH   5   8
ATOM      8  O   UNL     1       1.317   9.303  19.906  0.00  0.00    +0.000 OA
ATOM      9  C   UNL     1       1.079   9.204  21.305  0.00  0.00    +0.000 C 
ENDBRANCH   5   8
BRANCH   7  10
ATOM     10  O   UNL     1       3.277   4.999  20.029  0.00  0.00    +0.000 OA
ATOM     11  C   UNL     1       2.334   4.528  20.968  0.00  0.00    +0.000 C 
ENDBRANCH   7  10
ENDBRANCH   1   2
BRANCH   1  12
ATOM     12  S   UNL     1       5.471   5.918  16.162  0.00  0.00    +0.000 S 
ATOM     13  O   UNL     1       6.246   4.792  15.694  0.00  0.00    +0.000 OA
ATOM     14  O   UNL     1       5.017   6.903  15.197  0.00  0.00    +0.000 OA
BRANCH  12  15
ATOM     15  C   UNL     1       6.500   6.836  17.298  0.00  0.00    +0.000 A 
ATOM     16  C   UNL     1       6.629   8.217  17.061  0.00  0.00    +0.000 A 
ATOM     17  C   UNL     1       7.600   8.971  17.726  0.00  0.00    +0.000 A 
ATOM     18  C   UNL     1       8.468   8.359  18.627  0.00  0.00    +0.000 A 
ATOM     19  C   UNL     1       8.357   6.991  18.876  0.00  0.00    +0.000 A 
ATOM     20  C   UNL     1       7.378   6.238  18.201  0.00  0.00    +0.000 A 
BRANCH  20  21
ATOM     21  N   UNL     1       7.299   4.835  18.545  0.00  0.00    +0.000 N 
ATOM     22  O   UNL     1       8.030   4.072  17.896  0.00  0.00    +0.000 OA
ATOM     23  O   UNL     1       6.441   4.497  19.367  0.00  0.00    +0.000 OA
ENDBRANCH  20  21
ENDBRANCH  12  15
ENDBRANCH   1  12
BRANCH   1  24
ATOM     24  C   UNL     1       4.181   3.928  17.503  0.00  0.00    +0.000 C 
BRANCH  24  25
ATOM     25  C   UNL     1       2.898   3.148  17.323  0.00  0.00    +0.000 C 
ATOM     26  O   UNL     1       1.838   3.647  16.965  0.00  0.00    +0.000 OA
BRANCH  25  28
ATOM     27  C   UNL     1       3.648   1.633  18.971  0.00  0.00    +0.000 C 
ATOM     28  O   UNL     1       3.061   1.845  17.686  0.00  0.00    +0.000 OA
ENDBRANCH  25  28
ENDBRANCH  24  25
ENDBRANCH   1  24
TORSDOF 9
ENDMDL
MODEL 9
REMARK VINA RESULT:      -6.1      1.441      2.101
REMARK  Name = 
REMARK  12 active torsions:
REMARK  status: ('A' for Active; 'I' for Inactive)
REMARK    1  A    between atoms: C_1  and  O_2
REMARK    2  A    between atoms: O_2  and  C_3
REMARK    3  A    between atoms: C_3  and  C_5
REMARK    4  A    between atoms: C_5  and  N_6
REMARK    5  A    between atoms: N_6  and  C_7
REMARK    6  A    between atoms: N_6  and  S_17
REMARK    7  A    between atoms: C_10  and  O_11
REMARK    8  A    between atoms: O_11  and  C_12
REMARK    9  A    between atoms: C_14  and  O_15
REMARK   10  A    between atoms: O_15  and  C_16
REMARK   11  A    between atoms: S_17  and  C_20
REMARK   12  A    between atoms: C_25  and  N_26
REMARK                            x       y       z     vdW  Elec       q    Type
REMARK                         _______ _______ _______ _____ _____    ______ ____
ROOT
ATOM      1  N   UNL     1       4.501   5.657  17.545  0.00  0.00    +0.000 N 
ENDROOT
BRANCH   1   2
ATOM      2  C   UNL     1       5.316   5.295  16.402  0.00  0.00    +0.000 A 
ATOM      3  C   UNL     1       4.674   4.620  15.345  0.00  0.00    +0.000 A 
ATOM      4  C   UNL     1       5.365   4.225  14.197  0.00  0.00    +0.000 A 
ATOM      5  C   UNL     1       6.721   4.493  14.068  0.00  0.00    +0.000 A 
ATOM      6  C   UNL     1       7.370   5.155  15.107  0.00  0.00    +0.000 A 
ATOM      7  C   UNL     1       6.691   5.566  16.279  0.00  0.00    +0.000 A 
BRANCH   5   8
ATOM      8  O   UNL     1       7.285   4.062  12.902  0.00  0.00    +0.000 OA
ATOM      9  C   UNL     1       6.469   3.285  12.033  0.00  0.00    +0.000 C 
ENDBRANCH   5   8
BRANCH   7  10
ATOM     10  O   UNL     1       7.583   6.128  17.147  0.00  0.00    +0.000 OA
ATOM     11  C   UNL     1       7.604   7.511  17.430  0.00  0.00    +0.000 C 
ENDBRANCH   7  10
ENDBRANCH   1   2
BRANCH   1  12
ATOM     12  S   UNL     1       4.650   4.704  18.956  0.00  0.00    +0.000 S 
ATOM     13  O   UNL     1       5.848   3.903  18.858  0.00  0.00    +0.000 OA
ATOM     14  O   UNL     1       4.481   5.570  20.109  0.00  0.00    +0.000 OA
BRANCH  12  15
ATOM     15  C   UNL     1       3.262   3.582  19.025  0.00  0.00    +0.000 A 
ATOM     16  C   UNL     1       3.170   2.623  17.999  0.00  0.00    +0.000 A 
ATOM     17  C   UNL     1       2.003   1.875  17.819  0.00  0.00    +0.000 A 
ATOM     18  C   UNL     1       0.904   2.080  18.648  0.00  0.00    +0.000 A 
ATOM     19  C   UNL     1       0.974   3.025  19.671  0.00  0.00    +0.000 A 
ATOM     20  C   UNL     1       2.151   3.776  19.846  0.00  0.00    +0.000 A 
BRANCH  20  21
ATOM     21  N   UNL     1       2.161   4.706  20.953  0.00  0.00    +0.000 N 
ATOM     22  O   UNL     1       2.549   4.255  22.042  0.00  0.00    +0.000 OA
ATOM     23  O   UNL     1       1.682   5.828  20.760  0.00  0.00    +0.000 OA
ENDBRANCH  20  21
ENDBRANCH  12  15
ENDBRANCH   1  12
BRANCH   1  24
ATOM     24  C   UNL     1       4.243   7.115  17.754  0.00  0.00    +0.000 C 
BRANCH  24  25
ATOM     25  C   UNL     1       2.781   7.497  17.687  0.00  0.00    +0.000 C 
ATOM     26  O   UNL     1       1.859   6.706  17.840  0.00  0.00    +0.000 OA
BRANCH  25  28
ATOM     27  C   UNL     1       1.534   9.480  17.981  0.00  0.00    +0.000 C 
ATOM     28  O   UNL     1       2.633   8.811  17.360  0.00  0.00    +0.000 OA
ENDBRANCH  25  28
ENDBRANCH  24  25
ENDBRANCH   1  24
TORSDOF 9
ENDMDL
