MODEL 1
REMARK VINA RESULT:      -7.8      0.000      0.000
REMARK  Name = 
REMARK  5 active torsions:
REMARK  status: ('A' for Active; 'I' for Inactive)
REMARK    1  A    between atoms: C_1  and  C_2
REMARK    2  A    between atoms: C_2  and  C_3
REMARK    3  A    between atoms: C_6  and  C_7
REMARK    4  A    between atoms: C_14  and  S_15
REMARK    5  A    between atoms: S_15  and  C_16
REMARK                            x       y       z     vdW  Elec       q    Type
REMARK                         _______ _______ _______ _____ _____    ______ ____
ROOT
ATOM      1  C   UNL     1       2.652   7.230  18.612  0.00  0.00    +0.000 C 
ATOM      2  N   UNL     1       2.182   8.409  18.265  0.00  0.00    +0.000 N 
ATOM      3  O   UNL     1       2.283   8.959  17.125  0.00  0.00    +0.000 OA
ATOM      4  C   UNL     1       1.455   8.978  19.339  0.00  0.00    +0.000 A 
ATOM      5  C   UNL     1       0.816  10.169  19.434  0.00  0.00    +0.000 A 
ATOM      6  N   UNL     1       0.906  11.143  18.458  0.00  0.00    +0.000 N 
ATOM      7  N   UNL     1       0.178  10.480  20.576  0.00  0.00    +0.000 NA
ATOM      8  C   UNL     1       0.189   9.580  21.597  0.00  0.00    +0.000 A 
ATOM      9  N   UNL     1       0.793   8.379  21.562  0.00  0.00    +0.000 NA
ATOM     10  C   UNL     1       1.407   8.142  20.406  0.00  0.00    +0.000 A 
ATOM     11  C   UNL     1       2.169   6.954  20.017  0.00  0.00    +0.000 C 
ATOM     12  O   UNL     1       2.390   5.941  20.634  0.00  0.00    +0.000 OA
ATOM     13  H   UNL     1       0.922  10.788  17.503  0.00  0.00    +0.000 HD
ATOM     14  H   UNL     1       0.275  11.919  18.619  0.00  0.00    +0.000 HD
ENDROOT
BRANCH   1  18
ATOM     15  C   UNL     1       5.086   4.612  16.269  0.00  0.00    +0.000 A 
ATOM     16  C   UNL     1       3.936   4.136  16.905  0.00  0.00    +0.000 A 
ATOM     17  C   UNL     1       3.126   5.003  17.640  0.00  0.00    +0.000 A 
ATOM     18  C   UNL     1       3.456   6.357  17.758  0.00  0.00    +0.000 A 
ATOM     19  C   UNL     1       4.574   6.851  17.082  0.00  0.00    +0.000 A 
ATOM     20  C   UNL     1       5.384   5.979  16.342  0.00  0.00    +0.000 A 
BRANCH  15  22
ATOM     21  C   UNL     1       6.148   4.058  14.060  0.00  0.00    +0.000 C 
ATOM     22  C   UNL     1       5.977   3.658  15.517  0.00  0.00    +0.000 C 
ENDBRANCH  15  22
ENDBRANCH   1  18
BRANCH   8  23
ATOM     23  S   UNL     1      -0.629   9.998  23.119  0.00  0.00    +0.000 S 
ATOM     24  C   UNL     1      -1.142  11.703  22.781  0.00  0.00    +0.000 C 
ENDBRANCH   8  23
TORSDOF 3
ENDMDL
MODEL 2
REMARK VINA RESULT:      -7.7      0.219      1.044
REMARK  Name = 
REMARK  5 active torsions:
REMARK  status: ('A' for Active; 'I' for Inactive)
REMARK    1  A    between atoms: C_1  and  C_2
REMARK    2  A    between atoms: C_2  and  C_3
REMARK    3  A    between atoms: C_6  and  C_7
REMARK    4  A    between atoms: C_14  and  S_15
REMARK    5  A    between atoms: S_15  and  C_16
REMARK                            x       y       z     vdW  Elec       q    Type
REMARK                         _______ _______ _______ _____ _____    ______ ____
ROOT
ATOM      1  C   UNL     1       2.739   7.071  18.714  0.00  0.00    +0.000 C 
ATOM      2  N   UNL     1       2.294   8.240  18.306  0.00  0.00    +0.000 N 
ATOM      3  O   UNL     1       2.443   8.746  17.152  0.00  0.00    +0.000 OA
ATOM      4  C   UNL     1       1.533   8.855  19.330  0.00  0.00    +0.000 A 
ATOM      5  C   UNL     1       0.902  10.055  19.356  0.00  0.00    +0.000 A 
ATOM      6  N   UNL     1       1.038  10.990  18.349  0.00  0.00    +0.000 N 
ATOM      7  N   UNL     1       0.225  10.413  20.460  0.00  0.00    +0.000 NA
ATOM      8  C   UNL     1       0.189   9.552  21.514  0.00  0.00    +0.000 A 
ATOM      9  N   UNL     1       0.782   8.345  21.547  0.00  0.00    +0.000 NA
ATOM     10  C   UNL     1       1.437   8.060  20.425  0.00  0.00    +0.000 A 
ATOM     11  C   UNL     1       2.201   6.852  20.109  0.00  0.00    +0.000 C 
ATOM     12  O   UNL     1       2.388   5.861  20.772  0.00  0.00    +0.000 OA
ATOM     13  H   UNL     1       1.087  10.600  17.409  0.00  0.00    +0.000 HD
ATOM     14  H   UNL     1       0.409  11.777  18.457  0.00  0.00    +0.000 HD
ENDROOT
BRANCH   1  18
ATOM     15  C   UNL     1       5.099   4.494  16.254  0.00  0.00    +0.000 A 
ATOM     16  C   UNL     1       5.550   5.776  16.581  0.00  0.00    +0.000 A 
ATOM     17  C   UNL     1       4.791   6.600  17.412  0.00  0.00    +0.000 A 
ATOM     18  C   UNL     1       3.566   6.160  17.925  0.00  0.00    +0.000 A 
ATOM     19  C   UNL     1       3.135   4.861  17.647  0.00  0.00    +0.000 A 
ATOM     20  C   UNL     1       3.899   4.034  16.814  0.00  0.00    +0.000 A 
BRANCH  15  22
ATOM     21  C   UNL     1       5.858   4.137  13.885  0.00  0.00    +0.000 C 
ATOM     22  C   UNL     1       5.905   3.631  15.318  0.00  0.00    +0.000 C 
ENDBRANCH  15  22
ENDBRANCH   1  18
BRANCH   8  23
ATOM     23  S   UNL     1      -0.682  10.034  22.987  0.00  0.00    +0.000 S 
ATOM     24  C   UNL     1      -0.996  11.785  22.648  0.00  0.00    +0.000 C 
ENDBRANCH   8  23
TORSDOF 3
ENDMDL
MODEL 3
REMARK VINA RESULT:      -7.0      3.152      7.732
REMARK  Name = 
REMARK  5 active torsions:
REMARK  status: ('A' for Active; 'I' for Inactive)
REMARK    1  A    between atoms: C_1  and  C_2
REMARK    2  A    between atoms: C_2  and  C_3
REMARK    3  A    between atoms: C_6  and  C_7
REMARK    4  A    between atoms: C_14  and  S_15
REMARK    5  A    between atoms: S_15  and  C_16
REMARK                            x       y       z     vdW  Elec       q    Type
REMARK                         _______ _______ _______ _____ _____    ______ ____
ROOT
ATOM      1  C   UNL     1       1.997   7.484  19.787  0.00  0.00    +0.000 C 
ATOM      2  N   UNL     1       2.078   6.207  20.093  0.00  0.00    +0.000 N 
ATOM      3  O   UNL     1       1.481   5.618  21.046  0.00  0.00    +0.000 OA
ATOM      4  C   UNL     1       2.885   5.530  19.147  0.00  0.00    +0.000 A 
ATOM      5  C   UNL     1       3.249   4.227  19.074  0.00  0.00    +0.000 A 
ATOM      6  N   UNL     1       2.973   3.319  20.079  0.00  0.00    +0.000 N 
ATOM      7  N   UNL     1       4.025   3.820  18.055  0.00  0.00    +0.000 NA
ATOM      8  C   UNL     1       4.413   4.734  17.124  0.00  0.00    +0.000 A 
ATOM      9  N   UNL     1       4.078   6.036  17.132  0.00  0.00    +0.000 NA
ATOM     10  C   UNL     1       3.314   6.367  18.170  0.00  0.00    +0.000 A 
ATOM     11  C   UNL     1       2.772   7.685  18.505  0.00  0.00    +0.000 C 
ATOM     12  O   UNL     1       2.877   8.735  17.922  0.00  0.00    +0.000 OA
ATOM     13  H   UNL     1       2.066   3.443  20.527  0.00  0.00    +0.000 HD
ATOM     14  H   UNL     1       3.199   2.366  19.820  0.00  0.00    +0.000 HD
ENDROOT
BRANCH   1  18
ATOM     15  C   UNL     1      -0.292  10.288  22.060  0.00  0.00    +0.000 A 
ATOM     16  C   UNL     1       0.651   9.466  22.684  0.00  0.00    +0.000 A 
ATOM     17  C   UNL     1       1.419   8.577  21.932  0.00  0.00    +0.000 A 
ATOM     18  C   UNL     1       1.254   8.489  20.546  0.00  0.00    +0.000 A 
ATOM     19  C   UNL     1       0.353   9.344  19.908  0.00  0.00    +0.000 A 
ATOM     20  C   UNL     1      -0.416  10.238  20.665  0.00  0.00    +0.000 A 
BRANCH  15  22
ATOM     21  C   UNL     1      -0.915  12.674  22.544  0.00  0.00    +0.000 C 
ATOM     22  C   UNL     1      -1.147  11.211  22.888  0.00  0.00    +0.000 C 
ENDBRANCH  15  22
ENDBRANCH   1  18
BRANCH   8  23
ATOM     23  S   UNL     1       5.464   4.206  15.790  0.00  0.00    +0.000 S 
ATOM     24  C   UNL     1       7.097   4.651  16.437  0.00  0.00    +0.000 C 
ENDBRANCH   8  23
TORSDOF 3
ENDMDL
MODEL 4
REMARK VINA RESULT:      -7.0      1.627      2.945
REMARK  Name = 
REMARK  5 active torsions:
REMARK  status: ('A' for Active; 'I' for Inactive)
REMARK    1  A    between atoms: C_1  and  C_2
REMARK    2  A    between atoms: C_2  and  C_3
REMARK    3  A    between atoms: C_6  and  C_7
REMARK    4  A    between atoms: C_14  and  S_15
REMARK    5  A    between atoms: S_15  and  C_16
REMARK                            x       y       z     vdW  Elec       q    Type
REMARK                         _______ _______ _______ _____ _____    ______ ____
ROOT
ATOM      1  C   UNL     1       2.064   8.011  18.902  0.00  0.00    +0.000 C 
ATOM      2  N   UNL     1       1.524   8.029  20.102  0.00  0.00    +0.000 N 
ATOM      3  O   UNL     1       1.621   7.127  20.990  0.00  0.00    +0.000 OA
ATOM      4  C   UNL     1       0.856   9.259  20.316  0.00  0.00    +0.000 A 
ATOM      5  C   UNL     1       0.157   9.705  21.389  0.00  0.00    +0.000 A 
ATOM      6  N   UNL     1      -0.147   8.898  22.468  0.00  0.00    +0.000 N 
ATOM      7  N   UNL     1      -0.381  10.936  21.353  0.00  0.00    +0.000 NA
ATOM      8  C   UNL     1      -0.198  11.698  20.240  0.00  0.00    +0.000 A 
ATOM      9  N   UNL     1       0.493  11.320  19.149  0.00  0.00    +0.000 NA
ATOM     10  C   UNL     1       0.992  10.091  19.253  0.00  0.00    +0.000 A 
ATOM     11  C   UNL     1       1.782   9.353  18.267  0.00  0.00    +0.000 C 
ATOM     12  O   UNL     1       2.165   9.691  17.174  0.00  0.00    +0.000 OA
ATOM     13  H   UNL     1       0.590   8.244  22.731  0.00  0.00    +0.000 HD
ATOM     14  H   UNL     1      -0.562   9.410  23.237  0.00  0.00    +0.000 HD
ENDROOT
BRANCH   1  18
ATOM     15  C   UNL     1       4.241   4.819  17.075  0.00  0.00    +0.000 A 
ATOM     16  C   UNL     1       4.803   6.094  17.183  0.00  0.00    +0.000 A 
ATOM     17  C   UNL     1       4.102   7.124  17.811  0.00  0.00    +0.000 A 
ATOM     18  C   UNL     1       2.824   6.899  18.335  0.00  0.00    +0.000 A 
ATOM     19  C   UNL     1       2.278   5.615  18.279  0.00  0.00    +0.000 A 
ATOM     20  C   UNL     1       2.985   4.582  17.650  0.00  0.00    +0.000 A 
BRANCH  15  22
ATOM     21  C   UNL     1       5.960   4.280  15.323  0.00  0.00    +0.000 C 
ATOM     22  C   UNL     1       4.989   3.728  16.354  0.00  0.00    +0.000 C 
ENDBRANCH  15  22
ENDBRANCH   1  18
BRANCH   8  23
ATOM     23  S   UNL     1      -0.933  13.316  20.176  0.00  0.00    +0.000 S 
ATOM     24  C   UNL     1      -0.236  13.953  18.630  0.00  0.00    +0.000 C 
ENDBRANCH   8  23
TORSDOF 3
ENDMDL
MODEL 5
REMARK VINA RESULT:      -6.9      3.228      7.726
REMARK  Name = 
REMARK  5 active torsions:
REMARK  status: ('A' for Active; 'I' for Inactive)
REMARK    1  A    between atoms: C_1  and  C_2
REMARK    2  A    between atoms: C_2  and  C_3
REMARK    3  A    between atoms: C_6  and  C_7
REMARK    4  A    between atoms: C_14  and  S_15
REMARK    5  A    between atoms: S_15  and  C_16
REMARK                            x       y       z     vdW  Elec       q    Type
REMARK                         _______ _______ _______ _____ _____    ______ ____
ROOT
ATOM      1  C   UNL     1       2.154   7.343  19.551  0.00  0.00    +0.000 C 
ATOM      2  N   UNL     1       2.210   6.082  19.923  0.00  0.00    +0.000 N 
ATOM      3  O   UNL     1       1.580   5.548  20.887  0.00  0.00    +0.000 OA
ATOM      4  C   UNL     1       3.035   5.349  19.035  0.00  0.00    +0.000 A 
ATOM      5  C   UNL     1       3.384   4.039  19.039  0.00  0.00    +0.000 A 
ATOM      6  N   UNL     1       3.068   3.187  20.079  0.00  0.00    +0.000 N 
ATOM      7  N   UNL     1       4.183   3.573  18.064  0.00  0.00    +0.000 NA
ATOM      8  C   UNL     1       4.609   4.433  17.100  0.00  0.00    +0.000 A 
ATOM      9  N   UNL     1       4.290   5.738  17.032  0.00  0.00    +0.000 NA
ATOM     10  C   UNL     1       3.502   6.130  18.030  0.00  0.00    +0.000 A 
ATOM     11  C   UNL     1       2.967   7.469  18.283  0.00  0.00    +0.000 C 
ATOM     12  O   UNL     1       3.102   8.488  17.651  0.00  0.00    +0.000 OA
ATOM     13  H   UNL     1       2.150   3.343  20.494  0.00  0.00    +0.000 HD
ATOM     14  H   UNL     1       3.289   2.219  19.875  0.00  0.00    +0.000 HD
ENDROOT
BRANCH   1  18
ATOM     15  C   UNL     1       0.097  10.531  21.517  0.00  0.00    +0.000 A 
ATOM     16  C   UNL     1       0.056  10.409  20.125  0.00  0.00    +0.000 A 
ATOM     17  C   UNL     1       0.701   9.346  19.491  0.00  0.00    +0.000 A 
ATOM     18  C   UNL     1       1.403   8.393  20.237  0.00  0.00    +0.000 A 
ATOM     19  C   UNL     1       1.403   8.478  21.630  0.00  0.00    +0.000 A 
ATOM     20  C   UNL     1       0.753   9.545  22.265  0.00  0.00    +0.000 A 
BRANCH  15  22
ATOM     21  C   UNL     1      -1.633  11.279  23.179  0.00  0.00    +0.000 C 
ATOM     22  C   UNL     1      -0.565  11.708  22.186  0.00  0.00    +0.000 C 
ENDBRANCH  15  22
ENDBRANCH   1  18
BRANCH   8  23
ATOM     23  S   UNL     1       5.689   3.827  15.824  0.00  0.00    +0.000 S 
ATOM     24  C   UNL     1       7.152   4.864  16.087  0.00  0.00    +0.000 C 
ENDBRANCH   8  23
TORSDOF 3
ENDMDL
MODEL 6
REMARK VINA RESULT:      -6.8      1.559      2.701
REMARK  Name = 
REMARK  5 active torsions:
REMARK  status: ('A' for Active; 'I' for Inactive)
REMARK    1  A    between atoms: C_1  and  C_2
REMARK    2  A    between atoms: C_2  and  C_3
REMARK    3  A    between atoms: C_6  and  C_7
REMARK    4  A    between atoms: C_14  and  S_15
REMARK    5  A    between atoms: S_15  and  C_16
REMARK                            x       y       z     vdW  Elec       q    Type
REMARK                         _______ _______ _______ _____ _____    ______ ____
ROOT
ATOM      1  C   UNL     1       1.938   8.142  18.921  0.00  0.00    +0.000 C 
ATOM      2  N   UNL     1       1.420   8.087  20.129  0.00  0.00    +0.000 N 
ATOM      3  O   UNL     1       1.526   7.129  20.955  0.00  0.00    +0.000 OA
ATOM      4  C   UNL     1       0.767   9.306  20.434  0.00  0.00    +0.000 A 
ATOM      5  C   UNL     1       0.093   9.688  21.546  0.00  0.00    +0.000 A 
ATOM      6  N   UNL     1      -0.198   8.816  22.577  0.00  0.00    +0.000 N 
ATOM      7  N   UNL     1      -0.435  10.923  21.599  0.00  0.00    +0.000 NA
ATOM      8  C   UNL     1      -0.266  11.752  20.533  0.00  0.00    +0.000 A 
ATOM      9  N   UNL     1       0.401  11.440  19.408  0.00  0.00    +0.000 NA
ATOM     10  C   UNL     1       0.891  10.203  19.424  0.00  0.00    +0.000 A 
ATOM     11  C   UNL     1       1.656   9.523  18.377  0.00  0.00    +0.000 C 
ATOM     12  O   UNL     1       2.021   9.927  17.301  0.00  0.00    +0.000 OA
ATOM     13  H   UNL     1       0.537   8.140  22.783  0.00  0.00    +0.000 HD
ATOM     14  H   UNL     1      -0.595   9.281  23.385  0.00  0.00    +0.000 HD
ENDROOT
BRANCH   1  18
ATOM     15  C   UNL     1       4.152   4.925  17.183  0.00  0.00    +0.000 A 
ATOM     16  C   UNL     1       2.878   4.707  17.716  0.00  0.00    +0.000 A 
ATOM     17  C   UNL     1       2.146   5.767  18.250  0.00  0.00    +0.000 A 
ATOM     18  C   UNL     1       2.677   7.061  18.269  0.00  0.00    +0.000 A 
ATOM     19  C   UNL     1       3.926   7.297  17.691  0.00  0.00    +0.000 A 
ATOM     20  C   UNL     1       4.659   6.231  17.152  0.00  0.00    +0.000 A 
BRANCH  15  22
ATOM     21  C   UNL     1       5.708   4.121  15.381  0.00  0.00    +0.000 C 
ATOM     22  C   UNL     1       4.951   3.764  16.651  0.00  0.00    +0.000 C 
ENDBRANCH  15  22
ENDBRANCH   1  18
BRANCH   8  23
ATOM     23  S   UNL     1      -0.987  13.377  20.587  0.00  0.00    +0.000 S 
ATOM     24  C   UNL     1      -2.741  12.987  20.358  0.00  0.00    +0.000 C 
ENDBRANCH   8  23
TORSDOF 3
ENDMDL
MODEL 7
REMARK VINA RESULT:      -6.8      2.910      7.713
REMARK  Name = 
REMARK  5 active torsions:
REMARK  status: ('A' for Active; 'I' for Inactive)
REMARK    1  A    between atoms: C_1  and  C_2
REMARK    2  A    between atoms: C_2  and  C_3
REMARK    3  A    between atoms: C_6  and  C_7
REMARK    4  A    between atoms: C_14  and  S_15
REMARK    5  A    between atoms: S_15  and  C_16
REMARK                            x       y       z     vdW  Elec       q    Type
REMARK                         _______ _______ _______ _____ _____    ______ ____
ROOT
ATOM      1  C   UNL     1       1.350   8.904  19.459  0.00  0.00    +0.000 C 
ATOM      2  N   UNL     1       1.490   7.825  20.198  0.00  0.00    +0.000 N 
ATOM      3  O   UNL     1       0.893   7.571  21.289  0.00  0.00    +0.000 OA
ATOM      4  C   UNL     1       2.368   6.912  19.564  0.00  0.00    +0.000 A 
ATOM      5  C   UNL     1       2.807   5.693  19.963  0.00  0.00    +0.000 A 
ATOM      6  N   UNL     1       2.545   5.181  21.219  0.00  0.00    +0.000 N 
ATOM      7  N   UNL     1       3.641   5.005  19.165  0.00  0.00    +0.000 NA
ATOM      8  C   UNL     1       4.011   5.556  17.976  0.00  0.00    +0.000 A 
ATOM      9  N   UNL     1       3.604   6.753  17.518  0.00  0.00    +0.000 NA
ATOM     10  C   UNL     1       2.786   7.378  18.361  0.00  0.00    +0.000 A 
ATOM     11  C   UNL     1       2.159   8.691  18.201  0.00  0.00    +0.000 C 
ATOM     12  O   UNL     1       2.227   9.473  17.285  0.00  0.00    +0.000 OA
ATOM     13  H   UNL     1       1.616   5.395  21.581  0.00  0.00    +0.000 HD
ATOM     14  H   UNL     1       2.833   4.215  21.317  0.00  0.00    +0.000 HD
ENDROOT
BRANCH   1  18
ATOM     15  C   UNL     1      -1.126  12.193  20.610  0.00  0.00    +0.000 A 
ATOM     16  C   UNL     1       0.101  11.969  21.241  0.00  0.00    +0.000 A 
ATOM     17  C   UNL     1       0.920  10.915  20.838  0.00  0.00    +0.000 A 
ATOM     18  C   UNL     1       0.525  10.062  19.803  0.00  0.00    +0.000 A 
ATOM     19  C   UNL     1      -0.674  10.310  19.131  0.00  0.00    +0.000 A 
ATOM     20  C   UNL     1      -1.494  11.371  19.536  0.00  0.00    +0.000 A 
BRANCH  15  22
ATOM     21  C   UNL     1      -3.471  13.095  20.671  0.00  0.00    +0.000 C 
ATOM     22  C   UNL     1      -2.023  13.306  21.084  0.00  0.00    +0.000 C 
ENDBRANCH  15  22
ENDBRANCH   1  18
BRANCH   8  23
ATOM     23  S   UNL     1       5.138   4.662  16.930  0.00  0.00    +0.000 S 
ATOM     24  C   UNL     1       5.416   5.869  15.608  0.00  0.00    +0.000 C 
ENDBRANCH   8  23
TORSDOF 3
ENDMDL
MODEL 8
REMARK VINA RESULT:      -6.8      2.969      7.715
REMARK  Name = 
REMARK  5 active torsions:
REMARK  status: ('A' for Active; 'I' for Inactive)
REMARK    1  A    between atoms: C_1  and  C_2
REMARK    2  A    between atoms: C_2  and  C_3
REMARK    3  A    between atoms: C_6  and  C_7
REMARK    4  A    between atoms: C_14  and  S_15
REMARK    5  A    between atoms: S_15  and  C_16
REMARK                            x       y       z     vdW  Elec       q    Type
REMARK                         _______ _______ _______ _____ _____    ______ ____
ROOT
ATOM      1  C   UNL     1       1.331   8.964  19.471  0.00  0.00    +0.000 C 
ATOM      2  N   UNL     1       1.495   7.858  20.166  0.00  0.00    +0.000 N 
ATOM      3  O   UNL     1       0.905   7.547  21.246  0.00  0.00    +0.000 OA
ATOM      4  C   UNL     1       2.391   6.991  19.495  0.00  0.00    +0.000 A 
ATOM      5  C   UNL     1       2.856   5.766  19.843  0.00  0.00    +0.000 A 
ATOM      6  N   UNL     1       2.607   5.198  21.077  0.00  0.00    +0.000 N 
ATOM      7  N   UNL     1       3.704   5.129  19.017  0.00  0.00    +0.000 NA
ATOM      8  C   UNL     1       4.061   5.736  17.852  0.00  0.00    +0.000 A 
ATOM      9  N   UNL     1       3.628   6.941  17.443  0.00  0.00    +0.000 NA
ATOM     10  C   UNL     1       2.797   7.514  18.311  0.00  0.00    +0.000 A 
ATOM     11  C   UNL     1       2.143   8.819  18.205  0.00  0.00    +0.000 C 
ATOM     12  O   UNL     1       2.193   9.639  17.322  0.00  0.00    +0.000 OA
ATOM     13  H   UNL     1       1.674   5.377  21.448  0.00  0.00    +0.000 HD
ATOM     14  H   UNL     1       2.915   4.235  21.135  0.00  0.00    +0.000 HD
ENDROOT
BRANCH   1  18
ATOM     15  C   UNL     1      -1.092  12.342  20.464  0.00  0.00    +0.000 A 
ATOM     16  C   UNL     1      -1.518  11.416  19.507  0.00  0.00    +0.000 A 
ATOM     17  C   UNL     1      -0.739  10.297  19.212  0.00  0.00    +0.000 A 
ATOM     18  C   UNL     1       0.482  10.088  19.862  0.00  0.00    +0.000 A 
ATOM     19  C   UNL     1       0.889  10.979  20.857  0.00  0.00    +0.000 A 
ATOM     20  C   UNL     1       0.104  12.101  21.154  0.00  0.00    +0.000 A 
BRANCH  15  22
ATOM     21  C   UNL     1      -3.411  13.293  20.642  0.00  0.00    +0.000 C 
ATOM     22  C   UNL     1      -1.920  13.570  20.741  0.00  0.00    +0.000 C 
ENDBRANCH  15  22
ENDBRANCH   1  18
BRANCH   8  23
ATOM     23  S   UNL     1       5.205   4.910  16.770  0.00  0.00    +0.000 S 
ATOM     24  C   UNL     1       6.642   4.727  17.857  0.00  0.00    +0.000 C 
ENDBRANCH   8  23
TORSDOF 3
ENDMDL
MODEL 9
REMARK VINA RESULT:      -6.8      2.975      7.784
REMARK  Name = 
REMARK  5 active torsions:
REMARK  status: ('A' for Active; 'I' for Inactive)
REMARK    1  A    between atoms: C_1  and  C_2
REMARK    2  A    between atoms: C_2  and  C_3
REMARK    3  A    between atoms: C_6  and  C_7
REMARK    4  A    between atoms: C_14  and  S_15
REMARK    5  A    between atoms: S_15  and  C_16
REMARK                            x       y       z     vdW  Elec       q    Type
REMARK                         _______ _______ _______ _____ _____    ______ ____
ROOT
ATOM      1  C   UNL     1       1.902   7.948  19.693  0.00  0.00    +0.000 C 
ATOM      2  N   UNL     1       2.200   6.688  19.923  0.00  0.00    +0.000 N 
ATOM      3  O   UNL     1       1.749   5.962  20.862  0.00  0.00    +0.000 OA
ATOM      4  C   UNL     1       3.061   6.199  18.910  0.00  0.00    +0.000 A 
ATOM      5  C   UNL     1       3.625   4.977  18.750  0.00  0.00    +0.000 A 
ATOM      6  N   UNL     1       3.543   3.987  19.710  0.00  0.00    +0.000 N 
ATOM      7  N   UNL     1       4.409   4.753  17.681  0.00  0.00    +0.000 NA
ATOM      8  C   UNL     1       4.603   5.763  16.790  0.00  0.00    +0.000 A 
ATOM      9  N   UNL     1       4.064   6.992  16.884  0.00  0.00    +0.000 NA
ATOM     10  C   UNL     1       3.306   7.142  17.967  0.00  0.00    +0.000 A 
ATOM     11  C   UNL     1       2.576   8.336  18.397  0.00  0.00    +0.000 C 
ATOM     12  O   UNL     1       2.485   9.418  17.871  0.00  0.00    +0.000 OA
ATOM     13  H   UNL     1       2.649   3.939  20.197  0.00  0.00    +0.000 HD
ATOM     14  H   UNL     1       3.906   3.097  19.389  0.00  0.00    +0.000 HD
ENDROOT
BRANCH   1  18
ATOM     15  C   UNL     1      -0.491  10.521  22.126  0.00  0.00    +0.000 A 
ATOM     16  C   UNL     1      -0.591  10.562  20.733  0.00  0.00    +0.000 A 
ATOM     17  C   UNL     1       0.167   9.696  19.945  0.00  0.00    +0.000 A 
ATOM     18  C   UNL     1       1.044   8.780  20.535  0.00  0.00    +0.000 A 
ATOM     19  C   UNL     1       1.110   8.696  21.927  0.00  0.00    +0.000 A 
ATOM     20  C   UNL     1       0.346   9.565  22.717  0.00  0.00    +0.000 A 
BRANCH  15  22
ATOM     21  C   UNL     1      -2.322  12.243  22.149  0.00  0.00    +0.000 C 
ATOM     22  C   UNL     1      -1.281  11.493  22.964  0.00  0.00    +0.000 C 
ENDBRANCH  15  22
ENDBRANCH   1  18
BRANCH   8  23
ATOM     23  S   UNL     1       5.662   5.481  15.390  0.00  0.00    +0.000 S 
ATOM     24  C   UNL     1       6.007   3.711  15.566  0.00  0.00    +0.000 C 
ENDBRANCH   8  23
TORSDOF 3
ENDMDL
