MODEL 1
REMARK VINA RESULT:      -7.3      0.000      0.000
REMARK  Name = 
REMARK  7 active torsions:
REMARK  status: ('A' for Active; 'I' for Inactive)
REMARK    1  A    between atoms: C_1  and  O_2
REMARK    2  A    between atoms: O_2  and  C_3
REMARK    3  A    between atoms: C_3  and  C_5
REMARK    4  A    between atoms: C_6  and  N_7
REMARK    5  A    between atoms: N_17  and  O_18
REMARK    6  A    between atoms: C_20  and  C_21
REMARK    7  A    between atoms: C_22  and  C_23
REMARK                            x       y       z     vdW  Elec       q    Type
REMARK                         _______ _______ _______ _____ _____    ______ ____
ROOT
ATOM      1  N   UNL     1       4.572   5.384  18.290  0.00  0.00    +0.000 N 
ATOM      2  C   UNL     1       3.437   6.205  18.155  0.00  0.00    +0.000 C 
ATOM      3  O   UNL     1       3.387   7.220  17.460  0.00  0.00    +0.000 OA
ATOM      4  N   UNL     1       2.286   5.784  18.781  0.00  0.00    +0.000 N 
ATOM      5  C   UNL     1       2.204   4.627  19.550  0.00  0.00    +0.000 A 
ATOM      6  C   UNL     1       0.973   4.195  20.045  0.00  0.00    +0.000 A 
ATOM      7  C   UNL     1       0.926   3.097  20.905  0.00  0.00    +0.000 A 
ATOM      8  C   UNL     1       2.105   2.452  21.276  0.00  0.00    +0.000 A 
ATOM      9  C   UNL     1       3.326   2.869  20.743  0.00  0.00    +0.000 A 
ATOM     10  C   UNL     1       3.383   3.944  19.847  0.00  0.00    +0.000 A 
ATOM     11  N   UNL     1       4.596   4.348  19.254  0.00  0.00    +0.000 N 
ATOM     12  H   UNL     1       1.462   6.335  18.585  0.00  0.00    +0.000 HD
ENDROOT
BRANCH   1  14
ATOM     13  C   UNL     1       6.426   5.592  16.576  0.00  0.00    +0.000 A 
ATOM     14  C   UNL     1       5.219   5.129  17.075  0.00  0.00    +0.000 A 
ATOM     15  S   UNL     1       4.370   4.153  15.962  0.00  0.00    +0.000 S 
ATOM     16  C   UNL     1       5.557   4.367  14.756  0.00  0.00    +0.000 A 
ATOM     17  C   UNL     1       5.361   3.742  13.412  0.00  0.00    +0.000 C 
ATOM     18  C   UNL     1       6.618   5.132  15.201  0.00  0.00    +0.000 A 
ATOM     19  C   UNL     1       7.833   5.455  14.377  0.00  0.00    +0.000 C 
BRANCH  13  20
ATOM     20  C   UNL     1       7.394   6.394  17.328  0.00  0.00    +0.000 C 
ATOM     21  O   UNL     1       7.916   6.013  18.371  0.00  0.00    +0.000 OA
BRANCH  20  23
ATOM     22  C   UNL     1       7.915   8.629  17.770  0.00  0.00    +0.000 C 
ATOM     23  O   UNL     1       7.603   7.635  16.800  0.00  0.00    +0.000 OA
ENDBRANCH  20  23
ENDBRANCH  13  20
ENDBRANCH   1  14
BRANCH  11  24
ATOM     24  O   UNL     1       5.826   3.967  19.787  0.00  0.00    +0.000 OA
ATOM     25  H   UNL     1       6.070   3.203  19.235  0.00  0.00    +0.000 HD
ENDBRANCH  11  24
TORSDOF 4
ENDMDL
MODEL 2
REMARK VINA RESULT:      -6.5      2.481      6.241
REMARK  Name = 
REMARK  7 active torsions:
REMARK  status: ('A' for Active; 'I' for Inactive)
REMARK    1  A    between atoms: C_1  and  O_2
REMARK    2  A    between atoms: O_2  and  C_3
REMARK    3  A    between atoms: C_3  and  C_5
REMARK    4  A    between atoms: C_6  and  N_7
REMARK    5  A    between atoms: N_17  and  O_18
REMARK    6  A    between atoms: C_20  and  C_21
REMARK    7  A    between atoms: C_22  and  C_23
REMARK                            x       y       z     vdW  Elec       q    Type
REMARK                         _______ _______ _______ _____ _____    ______ ____
ROOT
ATOM      1  N   UNL     1       3.683   4.878  18.358  0.00  0.00    +0.000 N 
ATOM      2  C   UNL     1       2.963   4.192  17.362  0.00  0.00    +0.000 C 
ATOM      3  O   UNL     1       1.782   3.858  17.458  0.00  0.00    +0.000 OA
ATOM      4  N   UNL     1       3.614   3.959  16.172  0.00  0.00    +0.000 N 
ATOM      5  C   UNL     1       4.931   4.334  15.926  0.00  0.00    +0.000 A 
ATOM      6  C   UNL     1       5.481   4.183  14.652  0.00  0.00    +0.000 A 
ATOM      7  C   UNL     1       6.833   4.462  14.451  0.00  0.00    +0.000 A 
ATOM      8  C   UNL     1       7.628   4.870  15.522  0.00  0.00    +0.000 A 
ATOM      9  C   UNL     1       7.057   5.056  16.783  0.00  0.00    +0.000 A 
ATOM     10  C   UNL     1       5.692   4.819  16.989  0.00  0.00    +0.000 A 
ATOM     11  N   UNL     1       5.082   5.051  18.239  0.00  0.00    +0.000 N 
ATOM     12  H   UNL     1       3.045   3.556  15.441  0.00  0.00    +0.000 HD
ENDROOT
BRANCH   1  14
ATOM     13  C   UNL     1       2.126   5.963  20.037  0.00  0.00    +0.000 A 
ATOM     14  C   UNL     1       2.964   5.933  18.934  0.00  0.00    +0.000 A 
ATOM     15  S   UNL     1       3.043   7.429  18.118  0.00  0.00    +0.000 S 
ATOM     16  C   UNL     1       1.915   8.149  19.175  0.00  0.00    +0.000 A 
ATOM     17  C   UNL     1       1.494   9.566  18.948  0.00  0.00    +0.000 C 
ATOM     18  C   UNL     1       1.511   7.283  20.173  0.00  0.00    +0.000 A 
ATOM     19  C   UNL     1       0.557   7.646  21.275  0.00  0.00    +0.000 C 
BRANCH  13  20
ATOM     20  C   UNL     1       1.915   4.846  20.962  0.00  0.00    +0.000 C 
ATOM     21  O   UNL     1       2.649   4.617  21.918  0.00  0.00    +0.000 OA
BRANCH  20  23
ATOM     22  C   UNL     1       1.184   2.653  20.613  0.00  0.00    +0.000 C 
ATOM     23  O   UNL     1       0.868   4.041  20.617  0.00  0.00    +0.000 OA
ENDBRANCH  20  23
ENDBRANCH  13  20
ENDBRANCH   1  14
BRANCH  11  24
ATOM     24  O   UNL     1       5.838   5.163  19.405  0.00  0.00    +0.000 OA
ATOM     25  H   UNL     1       5.193   4.937  20.099  0.00  0.00    +0.000 HD
ENDBRANCH  11  24
TORSDOF 4
ENDMDL
MODEL 3
REMARK VINA RESULT:      -6.0      7.698     10.195
REMARK  Name = 
REMARK  7 active torsions:
REMARK  status: ('A' for Active; 'I' for Inactive)
REMARK    1  A    between atoms: C_1  and  O_2
REMARK    2  A    between atoms: O_2  and  C_3
REMARK    3  A    between atoms: C_3  and  C_5
REMARK    4  A    between atoms: C_6  and  N_7
REMARK    5  A    between atoms: N_17  and  O_18
REMARK    6  A    between atoms: C_20  and  C_21
REMARK    7  A    between atoms: C_22  and  C_23
REMARK                            x       y       z     vdW  Elec       q    Type
REMARK                         _______ _______ _______ _____ _____    ______ ____
ROOT
ATOM      1  N   UNL     1      -0.442  11.208  20.381  0.00  0.00    +0.000 N 
ATOM      2  C   UNL     1      -0.486  11.466  18.998  0.00  0.00    +0.000 C 
ATOM      3  O   UNL     1      -1.091  12.405  18.480  0.00  0.00    +0.000 OA
ATOM      4  N   UNL     1       0.273  10.652  18.189  0.00  0.00    +0.000 N 
ATOM      5  C   UNL     1       1.039   9.590  18.662  0.00  0.00    +0.000 A 
ATOM      6  C   UNL     1       1.885   8.892  17.799  0.00  0.00    +0.000 A 
ATOM      7  C   UNL     1       2.561   7.764  18.265  0.00  0.00    +0.000 A 
ATOM      8  C   UNL     1       2.374   7.332  19.578  0.00  0.00    +0.000 A 
ATOM      9  C   UNL     1       1.556   8.062  20.442  0.00  0.00    +0.000 A 
ATOM     10  C   UNL     1       0.903   9.220  19.999  0.00  0.00    +0.000 A 
ATOM     11  N   UNL     1       0.116  10.003  20.867  0.00  0.00    +0.000 N 
ATOM     12  H   UNL     1       0.304  10.919  17.215  0.00  0.00    +0.000 HD
ENDROOT
BRANCH   1  14
ATOM     13  C   UNL     1      -1.027  12.968  22.107  0.00  0.00    +0.000 A 
ATOM     14  C   UNL     1      -0.231  12.358  21.152  0.00  0.00    +0.000 A 
ATOM     15  S   UNL     1       1.202  13.225  20.828  0.00  0.00    +0.000 S 
ATOM     16  C   UNL     1       0.778  14.474  21.909  0.00  0.00    +0.000 A 
ATOM     17  C   UNL     1       1.683  15.655  22.060  0.00  0.00    +0.000 C 
ATOM     18  C   UNL     1      -0.418  14.221  22.552  0.00  0.00    +0.000 A 
ATOM     19  C   UNL     1      -1.028  15.120  23.590  0.00  0.00    +0.000 C 
BRANCH  13  20
ATOM     20  C   UNL     1      -2.281  12.420  22.630  0.00  0.00    +0.000 C 
ATOM     21  O   UNL     1      -2.326  11.495  23.436  0.00  0.00    +0.000 OA
BRANCH  20  23
ATOM     22  C   UNL     1      -4.504  13.055  22.972  0.00  0.00    +0.000 C 
ATOM     23  O   UNL     1      -3.396  12.984  22.082  0.00  0.00    +0.000 OA
ENDBRANCH  20  23
ENDBRANCH  13  20
ENDBRANCH   1  14
BRANCH  11  24
ATOM     24  O   UNL     1      -0.356   9.493  22.076  0.00  0.00    +0.000 OA
ATOM     25  H   UNL     1       0.021   8.595  22.090  0.00  0.00    +0.000 HD
ENDBRANCH  11  24
TORSDOF 4
ENDMDL
MODEL 4
REMARK VINA RESULT:      -6.0      8.949     10.934
REMARK  Name = 
REMARK  7 active torsions:
REMARK  status: ('A' for Active; 'I' for Inactive)
REMARK    1  A    between atoms: C_1  and  O_2
REMARK    2  A    between atoms: O_2  and  C_3
REMARK    3  A    between atoms: C_3  and  C_5
REMARK    4  A    between atoms: C_6  and  N_7
REMARK    5  A    between atoms: N_17  and  O_18
REMARK    6  A    between atoms: C_20  and  C_21
REMARK    7  A    between atoms: C_22  and  C_23
REMARK                            x       y       z     vdW  Elec       q    Type
REMARK                         _______ _______ _______ _____ _____    ______ ____
ROOT
ATOM      1  N   UNL     1      -1.937  12.154  19.850  0.00  0.00    +0.000 N 
ATOM      2  C   UNL     1      -3.253  12.651  19.823  0.00  0.00    +0.000 C 
ATOM      3  O   UNL     1      -3.731  13.410  20.665  0.00  0.00    +0.000 OA
ATOM      4  N   UNL     1      -4.020  12.323  18.728  0.00  0.00    +0.000 N 
ATOM      5  C   UNL     1      -3.573  11.514  17.686  0.00  0.00    +0.000 A 
ATOM      6  C   UNL     1      -4.359  11.333  16.548  0.00  0.00    +0.000 A 
ATOM      7  C   UNL     1      -3.946  10.434  15.564  0.00  0.00    +0.000 A 
ATOM      8  C   UNL     1      -2.765   9.712  15.732  0.00  0.00    +0.000 A 
ATOM      9  C   UNL     1      -1.967   9.931  16.857  0.00  0.00    +0.000 A 
ATOM     10  C   UNL     1      -2.350  10.861  17.833  0.00  0.00    +0.000 A 
ATOM     11  N   UNL     1      -1.535  11.140  18.948  0.00  0.00    +0.000 N 
ATOM     12  H   UNL     1      -4.923  12.773  18.684  0.00  0.00    +0.000 HD
ENDROOT
BRANCH   1  14
ATOM     13  C   UNL     1      -0.498  13.556  21.393  0.00  0.00    +0.000 A 
ATOM     14  C   UNL     1      -0.983  13.128  20.168  0.00  0.00    +0.000 A 
ATOM     15  S   UNL     1      -0.352  14.017  18.856  0.00  0.00    +0.000 S 
ATOM     16  C   UNL     1       0.544  15.041  19.884  0.00  0.00    +0.000 A 
ATOM     17  C   UNL     1       1.350  16.154  19.294  0.00  0.00    +0.000 C 
ATOM     18  C   UNL     1       0.409  14.689  21.213  0.00  0.00    +0.000 A 
ATOM     19  C   UNL     1       1.112  15.380  22.348  0.00  0.00    +0.000 C 
BRANCH  13  20
ATOM     20  C   UNL     1      -0.813  12.939  22.684  0.00  0.00    +0.000 C 
ATOM     21  O   UNL     1      -1.502  13.486  23.539  0.00  0.00    +0.000 OA
BRANCH  20  23
ATOM     22  C   UNL     1      -1.120  10.661  23.108  0.00  0.00    +0.000 C 
ATOM     23  O   UNL     1      -0.209  11.730  22.874  0.00  0.00    +0.000 OA
ENDBRANCH  20  23
ENDBRANCH  13  20
ENDBRANCH   1  14
BRANCH  11  24
ATOM     24  O   UNL     1      -0.519  10.270  19.339  0.00  0.00    +0.000 OA
ATOM     25  H   UNL     1      -0.564   9.571  18.661  0.00  0.00    +0.000 HD
ENDBRANCH  11  24
TORSDOF 4
ENDMDL
MODEL 5
REMARK VINA RESULT:      -5.9     10.341     12.154
REMARK  Name = 
REMARK  7 active torsions:
REMARK  status: ('A' for Active; 'I' for Inactive)
REMARK    1  A    between atoms: C_1  and  O_2
REMARK    2  A    between atoms: O_2  and  C_3
REMARK    3  A    between atoms: C_3  and  C_5
REMARK    4  A    between atoms: C_6  and  N_7
REMARK    5  A    between atoms: N_17  and  O_18
REMARK    6  A    between atoms: C_20  and  C_21
REMARK    7  A    between atoms: C_22  and  C_23
REMARK                            x       y       z     vdW  Elec       q    Type
REMARK                         _______ _______ _______ _____ _____    ______ ____
ROOT
ATOM      1  N   UNL     1      -3.208  13.481  22.042  0.00  0.00    +0.000 N 
ATOM      2  C   UNL     1      -3.449  14.803  21.623  0.00  0.00    +0.000 C 
ATOM      3  O   UNL     1      -2.669  15.476  20.949  0.00  0.00    +0.000 OA
ATOM      4  N   UNL     1      -4.682  15.337  21.923  0.00  0.00    +0.000 N 
ATOM      5  C   UNL     1      -5.665  14.656  22.635  0.00  0.00    +0.000 A 
ATOM      6  C   UNL     1      -6.937  15.211  22.788  0.00  0.00    +0.000 A 
ATOM      7  C   UNL     1      -7.874  14.566  23.595  0.00  0.00    +0.000 A 
ATOM      8  C   UNL     1      -7.532  13.387  24.255  0.00  0.00    +0.000 A 
ATOM      9  C   UNL     1      -6.270  12.820  24.063  0.00  0.00    +0.000 A 
ATOM     10  C   UNL     1      -5.333  13.436  23.223  0.00  0.00    +0.000 A 
ATOM     11  N   UNL     1      -4.074  12.855  22.970  0.00  0.00    +0.000 N 
ATOM     12  H   UNL     1      -4.866  16.246  21.525  0.00  0.00    +0.000 HD
ENDROOT
BRANCH   1  14
ATOM     13  C   UNL     1      -1.412  12.106  20.901  0.00  0.00    +0.000 A 
ATOM     14  C   UNL     1      -2.670  12.670  21.036  0.00  0.00    +0.000 A 
ATOM     15  S   UNL     1      -3.678  12.373  19.692  0.00  0.00    +0.000 S 
ATOM     16  C   UNL     1      -2.448  11.534  18.861  0.00  0.00    +0.000 A 
ATOM     17  C   UNL     1      -2.715  11.009  17.486  0.00  0.00    +0.000 C 
ATOM     18  C   UNL     1      -1.291  11.432  19.609  0.00  0.00    +0.000 A 
ATOM     19  C   UNL     1      -0.051  10.712  19.159  0.00  0.00    +0.000 C 
BRANCH  13  20
ATOM     20  C   UNL     1      -0.362  12.143  21.923  0.00  0.00    +0.000 C 
ATOM     21  O   UNL     1       0.733  12.668  21.742  0.00  0.00    +0.000 OA
BRANCH  20  23
ATOM     22  C   UNL     1      -0.477  10.070  22.996  0.00  0.00    +0.000 C 
ATOM     23  O   UNL     1      -0.688  11.476  23.068  0.00  0.00    +0.000 OA
ENDBRANCH  20  23
ENDBRANCH  13  20
ENDBRANCH   1  14
BRANCH  11  24
ATOM     24  O   UNL     1      -3.551  11.867  23.802  0.00  0.00    +0.000 OA
ATOM     25  H   UNL     1      -2.592  11.952  23.656  0.00  0.00    +0.000 HD
ENDBRANCH  11  24
TORSDOF 4
ENDMDL
MODEL 6
REMARK VINA RESULT:      -5.9      3.088      4.969
REMARK  Name = 
REMARK  7 active torsions:
REMARK  status: ('A' for Active; 'I' for Inactive)
REMARK    1  A    between atoms: C_1  and  O_2
REMARK    2  A    between atoms: O_2  and  C_3
REMARK    3  A    between atoms: C_3  and  C_5
REMARK    4  A    between atoms: C_6  and  N_7
REMARK    5  A    between atoms: N_17  and  O_18
REMARK    6  A    between atoms: C_20  and  C_21
REMARK    7  A    between atoms: C_22  and  C_23
REMARK                            x       y       z     vdW  Elec       q    Type
REMARK                         _______ _______ _______ _____ _____    ______ ____
ROOT
ATOM      1  N   UNL     1       2.982   6.723  19.145  0.00  0.00    +0.000 N 
ATOM      2  C   UNL     1       3.285   7.336  17.914  0.00  0.00    +0.000 C 
ATOM      3  O   UNL     1       4.112   6.911  17.107  0.00  0.00    +0.000 OA
ATOM      4  N   UNL     1       2.538   8.437  17.566  0.00  0.00    +0.000 N 
ATOM      5  C   UNL     1       1.540   8.980  18.371  0.00  0.00    +0.000 A 
ATOM      6  C   UNL     1       0.736  10.016  17.896  0.00  0.00    +0.000 A 
ATOM      7  C   UNL     1      -0.183  10.620  18.754  0.00  0.00    +0.000 A 
ATOM      8  C   UNL     1      -0.280  10.200  20.080  0.00  0.00    +0.000 A 
ATOM      9  C   UNL     1       0.503   9.136  20.533  0.00  0.00    +0.000 A 
ATOM     10  C   UNL     1       1.401   8.493  19.670  0.00  0.00    +0.000 A 
ATOM     11  N   UNL     1       2.161   7.383  20.089  0.00  0.00    +0.000 N 
ATOM     12  H   UNL     1       2.705   8.796  16.637  0.00  0.00    +0.000 HD
ENDROOT
BRANCH   1  14
ATOM     13  C   UNL     1       3.795   4.340  18.868  0.00  0.00    +0.000 A 
ATOM     14  C   UNL     1       2.847   5.333  19.053  0.00  0.00    +0.000 A 
ATOM     15  S   UNL     1       1.251   4.729  19.087  0.00  0.00    +0.000 S 
ATOM     16  C   UNL     1       1.770   3.131  18.796  0.00  0.00    +0.000 A 
ATOM     17  C   UNL     1       0.755   2.041  18.665  0.00  0.00    +0.000 C 
ATOM     18  C   UNL     1       3.146   3.037  18.719  0.00  0.00    +0.000 A 
ATOM     19  C   UNL     1       3.897   1.752  18.513  0.00  0.00    +0.000 C 
BRANCH  13  20
ATOM     20  C   UNL     1       5.245   4.553  18.861  0.00  0.00    +0.000 C 
ATOM     21  O   UNL     1       5.867   4.967  19.834  0.00  0.00    +0.000 OA
BRANCH  20  23
ATOM     22  C   UNL     1       7.197   4.701  17.584  0.00  0.00    +0.000 C 
ATOM     23  O   UNL     1       5.827   4.320  17.649  0.00  0.00    +0.000 OA
ENDBRANCH  20  23
ENDBRANCH  13  20
ENDBRANCH   1  14
BRANCH  11  24
ATOM     24  O   UNL     1       2.346   7.099  21.441  0.00  0.00    +0.000 OA
ATOM     25  H   UNL     1       1.438   6.924  21.748  0.00  0.00    +0.000 HD
ENDBRANCH  11  24
TORSDOF 4
ENDMDL
MODEL 7
REMARK VINA RESULT:      -5.7      7.544     10.049
REMARK  Name = 
REMARK  7 active torsions:
REMARK  status: ('A' for Active; 'I' for Inactive)
REMARK    1  A    between atoms: C_1  and  O_2
REMARK    2  A    between atoms: O_2  and  C_3
REMARK    3  A    between atoms: C_3  and  C_5
REMARK    4  A    between atoms: C_6  and  N_7
REMARK    5  A    between atoms: N_17  and  O_18
REMARK    6  A    between atoms: C_20  and  C_21
REMARK    7  A    between atoms: C_22  and  C_23
REMARK                            x       y       z     vdW  Elec       q    Type
REMARK                         _______ _______ _______ _____ _____    ______ ____
ROOT
ATOM      1  N   UNL     1       0.698  12.260  18.332  0.00  0.00    +0.000 N 
ATOM      2  C   UNL     1      -0.637  12.702  18.262  0.00  0.00    +0.000 C 
ATOM      3  O   UNL     1      -1.604  11.973  18.045  0.00  0.00    +0.000 OA
ATOM      4  N   UNL     1      -0.868  14.030  18.542  0.00  0.00    +0.000 N 
ATOM      5  C   UNL     1       0.138  14.941  18.851  0.00  0.00    +0.000 A 
ATOM      6  C   UNL     1      -0.184  16.238  19.251  0.00  0.00    +0.000 A 
ATOM      7  C   UNL     1       0.836  17.168  19.450  0.00  0.00    +0.000 A 
ATOM      8  C   UNL     1       2.164  16.803  19.232  0.00  0.00    +0.000 A 
ATOM      9  C   UNL     1       2.477  15.492  18.870  0.00  0.00    +0.000 A 
ATOM     10  C   UNL     1       1.465  14.537  18.706  0.00  0.00    +0.000 A 
ATOM     11  N   UNL     1       1.759  13.194  18.395  0.00  0.00    +0.000 N 
ATOM     12  H   UNL     1      -1.841  14.298  18.584  0.00  0.00    +0.000 HD
ENDROOT
BRANCH   1  14
ATOM     13  C   UNL     1       0.633  10.811  20.409  0.00  0.00    +0.000 A 
ATOM     14  C   UNL     1       0.852  11.079  19.067  0.00  0.00    +0.000 A 
ATOM     15  S   UNL     1       1.496   9.745  18.220  0.00  0.00    +0.000 S 
ATOM     16  C   UNL     1       1.558   8.786  19.629  0.00  0.00    +0.000 A 
ATOM     17  C   UNL     1       2.114   7.400  19.551  0.00  0.00    +0.000 C 
ATOM     18  C   UNL     1       1.052   9.448  20.731  0.00  0.00    +0.000 A 
ATOM     19  C   UNL     1       0.937   8.844  22.102  0.00  0.00    +0.000 C 
BRANCH  13  20
ATOM     20  C   UNL     1       0.029  11.744  21.363  0.00  0.00    +0.000 C 
ATOM     21  O   UNL     1       0.649  12.664  21.887  0.00  0.00    +0.000 OA
BRANCH  20  23
ATOM     22  C   UNL     1      -1.538  11.425  23.069  0.00  0.00    +0.000 C 
ATOM     23  O   UNL     1      -1.268  11.450  21.671  0.00  0.00    +0.000 OA
ENDBRANCH  20  23
ENDBRANCH  13  20
ENDBRANCH   1  14
BRANCH  11  24
ATOM     24  O   UNL     1       2.999  12.825  17.876  0.00  0.00    +0.000 OA
ATOM     25  H   UNL     1       3.527  13.635  17.991  0.00  0.00    +0.000 HD
ENDBRANCH  11  24
TORSDOF 4
ENDMDL
MODEL 8
REMARK VINA RESULT:      -5.7      5.548      7.510
REMARK  Name = 
REMARK  7 active torsions:
REMARK  status: ('A' for Active; 'I' for Inactive)
REMARK    1  A    between atoms: C_1  and  O_2
REMARK    2  A    between atoms: O_2  and  C_3
REMARK    3  A    between atoms: C_3  and  C_5
REMARK    4  A    between atoms: C_6  and  N_7
REMARK    5  A    between atoms: N_17  and  O_18
REMARK    6  A    between atoms: C_20  and  C_21
REMARK    7  A    between atoms: C_22  and  C_23
REMARK                            x       y       z     vdW  Elec       q    Type
REMARK                         _______ _______ _______ _____ _____    ______ ____
ROOT
ATOM      1  N   UNL     1       1.639   9.573  19.836  0.00  0.00    +0.000 N 
ATOM      2  C   UNL     1       1.561   9.105  21.161  0.00  0.00    +0.000 C 
ATOM      3  O   UNL     1       1.386   9.822  22.146  0.00  0.00    +0.000 OA
ATOM      4  N   UNL     1       1.600   7.742  21.343  0.00  0.00    +0.000 N 
ATOM      5  C   UNL     1       1.743   6.827  20.304  0.00  0.00    +0.000 A 
ATOM      6  C   UNL     1       1.642   5.457  20.551  0.00  0.00    +0.000 A 
ATOM      7  C   UNL     1       1.897   4.553  19.519  0.00  0.00    +0.000 A 
ATOM      8  C   UNL     1       2.266   5.021  18.258  0.00  0.00    +0.000 A 
ATOM      9  C   UNL     1       2.324   6.394  18.013  0.00  0.00    +0.000 A 
ATOM     10  C   UNL     1       2.032   7.313  19.029  0.00  0.00    +0.000 A 
ATOM     11  N   UNL     1       2.031   8.702  18.791  0.00  0.00    +0.000 N 
ATOM     12  H   UNL     1       1.441   7.429  22.290  0.00  0.00    +0.000 HD
ENDROOT
BRANCH   1  14
ATOM     13  C   UNL     1       0.680  11.910  19.642  0.00  0.00    +0.000 A 
ATOM     14  C   UNL     1       0.664  10.529  19.528  0.00  0.00    +0.000 A 
ATOM     15  S   UNL     1      -0.840   9.924  18.997  0.00  0.00    +0.000 S 
ATOM     16  C   UNL     1      -1.537  11.480  18.960  0.00  0.00    +0.000 A 
ATOM     17  C   UNL     1      -2.976  11.633  18.581  0.00  0.00    +0.000 C 
ATOM     18  C   UNL     1      -0.629  12.464  19.301  0.00  0.00    +0.000 A 
ATOM     19  C   UNL     1      -0.940  13.934  19.316  0.00  0.00    +0.000 C 
BRANCH  13  20
ATOM     20  C   UNL     1       1.852  12.708  20.012  0.00  0.00    +0.000 C 
ATOM     21  O   UNL     1       2.120  13.009  21.171  0.00  0.00    +0.000 OA
BRANCH  20  23
ATOM     22  C   UNL     1       2.790  14.554  18.928  0.00  0.00    +0.000 C 
ATOM     23  O   UNL     1       2.576  13.147  18.942  0.00  0.00    +0.000 OA
ENDBRANCH  20  23
ENDBRANCH  13  20
ENDBRANCH   1  14
BRANCH  11  24
ATOM     24  O   UNL     1       2.666   9.247  17.677  0.00  0.00    +0.000 OA
ATOM     25  H   UNL     1       1.964   9.229  17.002  0.00  0.00    +0.000 HD
ENDBRANCH  11  24
TORSDOF 4
ENDMDL
MODEL 9
REMARK VINA RESULT:      -5.7      6.449      8.429
REMARK  Name = 
REMARK  7 active torsions:
REMARK  status: ('A' for Active; 'I' for Inactive)
REMARK    1  A    between atoms: C_1  and  O_2
REMARK    2  A    between atoms: O_2  and  C_3
REMARK    3  A    between atoms: C_3  and  C_5
REMARK    4  A    between atoms: C_6  and  N_7
REMARK    5  A    between atoms: N_17  and  O_18
REMARK    6  A    between atoms: C_20  and  C_21
REMARK    7  A    between atoms: C_22  and  C_23
REMARK                            x       y       z     vdW  Elec       q    Type
REMARK                         _______ _______ _______ _____ _____    ______ ____
ROOT
ATOM      1  N   UNL     1       0.238  10.894  19.162  0.00  0.00    +0.000 N 
ATOM      2  C   UNL     1      -1.108  10.783  18.764  0.00  0.00    +0.000 C 
ATOM      3  O   UNL     1      -1.503  10.106  17.815  0.00  0.00    +0.000 OA
ATOM      4  N   UNL     1      -2.044  11.413  19.552  0.00  0.00    +0.000 N 
ATOM      5  C   UNL     1      -1.725  12.164  20.680  0.00  0.00    +0.000 A 
ATOM      6  C   UNL     1      -2.734  12.663  21.504  0.00  0.00    +0.000 A 
ATOM      7  C   UNL     1      -2.401  13.504  22.566  0.00  0.00    +0.000 A 
ATOM      8  C   UNL     1      -1.069  13.854  22.786  0.00  0.00    +0.000 A 
ATOM      9  C   UNL     1      -0.064  13.317  21.979  0.00  0.00    +0.000 A 
ATOM     10  C   UNL     1      -0.382  12.438  20.934  0.00  0.00    +0.000 A 
ATOM     11  N   UNL     1       0.619  11.841  20.142  0.00  0.00    +0.000 N 
ATOM     12  H   UNL     1      -3.007  11.234  19.305  0.00  0.00    +0.000 HD
ENDROOT
BRANCH   1  14
ATOM     13  C   UNL     1       0.986   8.680  20.138  0.00  0.00    +0.000 A 
ATOM     14  C   UNL     1       0.916   9.669  19.171  0.00  0.00    +0.000 A 
ATOM     15  S   UNL     1       1.896   9.342  17.813  0.00  0.00    +0.000 S 
ATOM     16  C   UNL     1       2.493   7.899  18.499  0.00  0.00    +0.000 A 
ATOM     17  C   UNL     1       3.511   7.097  17.753  0.00  0.00    +0.000 C 
ATOM     18  C   UNL     1       1.922   7.633  19.729  0.00  0.00    +0.000 A 
ATOM     19  C   UNL     1       2.219   6.413  20.554  0.00  0.00    +0.000 C 
BRANCH  13  20
ATOM     20  C   UNL     1       0.206   8.660  21.378  0.00  0.00    +0.000 C 
ATOM     21  O   UNL     1      -0.859   8.061  21.493  0.00  0.00    +0.000 OA
BRANCH  20  23
ATOM     22  C   UNL     1      -0.185   9.754  23.407  0.00  0.00    +0.000 C 
ATOM     23  O   UNL     1       0.737   9.432  22.371  0.00  0.00    +0.000 OA
ENDBRANCH  20  23
ENDBRANCH  13  20
ENDBRANCH   1  14
BRANCH  11  24
ATOM     24  O   UNL     1       1.913  12.356  20.098  0.00  0.00    +0.000 OA
ATOM     25  H   UNL     1       1.763  13.288  19.855  0.00  0.00    +0.000 HD
ENDBRANCH  11  24
TORSDOF 4
ENDMDL
