MODEL 1
REMARK VINA RESULT:      -8.5      0.000      0.000
REMARK  Name = 
REMARK  9 active torsions:
REMARK  status: ('A' for Active; 'I' for Inactive)
REMARK    1  A    between atoms: C_1  and  C_2
REMARK    2  A    between atoms: C_3  and  C_4
REMARK    3  A    between atoms: C_4  and  C_5
REMARK    4  A    between atoms: C_8  and  C_9
REMARK    5  A    between atoms: C_13  and  C_14
REMARK    6  A    between atoms: C_21  and  C_22
REMARK    7  A    between atoms: N_24  and  C_25
REMARK    8  A    between atoms: C_25  and  C_26
REMARK    9  A    between atoms: C_25  and  C_27
REMARK                            x       y       z     vdW  Elec       q    Type
REMARK                         _______ _______ _______ _____ _____    ______ ____
ROOT
ATOM      1  C   UNL     1       2.366   8.054  17.965  0.00  0.00    +0.000 C 
ATOM      2  C   UNL     1       2.061   7.336  19.236  0.00  0.00    +0.000 A 
ATOM      3  C   UNL     1       2.171   5.923  19.459  0.00  0.00    +0.000 A 
ATOM      4  C   UNL     1       1.786   5.647  20.746  0.00  0.00    +0.000 A 
ATOM      5  N   UNL     1       1.503   6.835  21.340  0.00  0.00    +0.000 N 
ATOM      6  C   UNL     1       1.659   7.888  20.459  0.00  0.00    +0.000 A 
ATOM      7  H   UNL     1       1.235   6.970  22.309  0.00  0.00    +0.000 HD
ENDROOT
BRANCH   6   8
ATOM      8  C   UNL     1       1.411   9.222  20.978  0.00  0.00    +0.000 C 
ATOM      9  O   UNL     1       1.669   9.500  22.148  0.00  0.00    +0.000 OA
ATOM     10  N   UNL     1       0.870  10.147  20.134  0.00  0.00    +0.000 N 
ATOM     11  H   UNL     1       0.609   9.916  19.187  0.00  0.00    +0.000 HD
BRANCH  10  12
ATOM     12  C   UNL     1       0.524  11.487  20.594  0.00  0.00    +0.000 C 
ATOM     13  C   UNL     1       1.610  12.488  20.215  0.00  0.00    +0.000 C 
BRANCH  12  14
ATOM     14  C   UNL     1      -0.804  11.849  19.996  0.00  0.00    +0.000 A 
ATOM     15  N   UNL     1      -1.900  12.149  20.780  0.00  0.00    +0.000 NA
ATOM     16  C   UNL     1      -2.814  12.465  19.895  0.00  0.00    +0.000 A 
ATOM     17  N   UNL     1      -2.298  12.363  18.642  0.00  0.00    +0.000 N 
ATOM     18  N   UNL     1      -1.016  11.963  18.679  0.00  0.00    +0.000 NA
ATOM     19  H   UNL     1      -2.740  12.548  17.751  0.00  0.00    +0.000 HD
ENDBRANCH  12  14
ENDBRANCH  10  12
ENDBRANCH   6   8
BRANCH   3  20
ATOM     20  C   UNL     1       2.744   4.868  18.520  0.00  0.00    +0.000 C 
ATOM     21  C   UNL     1       2.127   3.484  18.573  0.00  0.00    +0.000 C 
ATOM     22  C   UNL     1       1.857   4.348  17.378  0.00  0.00    +0.000 C 
BRANCH  20  23
ATOM     23  C   UNL     1       4.159   5.101  17.998  0.00  0.00    +0.000 A 
ATOM     24  C   UNL     1       4.383   5.849  16.837  0.00  0.00    +0.000 A 
ATOM     25  C   UNL     1       5.559   6.583  16.690  0.00  0.00    +0.000 A 
ATOM     26  C   UNL     1       6.549   6.550  17.687  0.00  0.00    +0.000 A 
ATOM     27  C   UNL     1       6.434   5.618  18.729  0.00  0.00    +0.000 A 
ATOM     28  C   UNL     1       5.256   4.876  18.856  0.00  0.00    +0.000 A 
BRANCH  26  29
ATOM     29  C   UNL     1       7.633   7.598  17.702  0.00  0.00    +0.000 C 
ATOM     30  F   UNL     1       8.550   7.401  18.690  0.00  0.00    +0.000 F 
ATOM     31  F   UNL     1       8.350   7.604  16.544  0.00  0.00    +0.000 F 
ATOM     32  F   UNL     1       7.158   8.857  17.874  0.00  0.00    +0.000 F 
ENDBRANCH  26  29
BRANCH  27  33
ATOM     33  C   UNL     1       7.435   5.497  19.753  0.00  0.00    +0.000 C 
ATOM     34  N   UNL     1       8.251   5.396  20.571  0.00  0.00    +0.000 NA
ENDBRANCH  27  33
ENDBRANCH  20  23
ENDBRANCH   3  20
TORSDOF 7
ENDMDL
MODEL 2
REMARK VINA RESULT:      -8.5      2.288      3.017
REMARK  Name = 
REMARK  9 active torsions:
REMARK  status: ('A' for Active; 'I' for Inactive)
REMARK    1  A    between atoms: C_1  and  C_2
REMARK    2  A    between atoms: C_3  and  C_4
REMARK    3  A    between atoms: C_4  and  C_5
REMARK    4  A    between atoms: C_8  and  C_9
REMARK    5  A    between atoms: C_13  and  C_14
REMARK    6  A    between atoms: C_21  and  C_22
REMARK    7  A    between atoms: N_24  and  C_25
REMARK    8  A    between atoms: C_25  and  C_26
REMARK    9  A    between atoms: C_25  and  C_27
REMARK                            x       y       z     vdW  Elec       q    Type
REMARK                         _______ _______ _______ _____ _____    ______ ____
ROOT
ATOM      1  C   UNL     1       1.269   7.839  21.422  0.00  0.00    +0.000 C 
ATOM      2  C   UNL     1       1.623   8.009  19.983  0.00  0.00    +0.000 A 
ATOM      3  C   UNL     1       2.312   7.056  19.162  0.00  0.00    +0.000 A 
ATOM      4  C   UNL     1       2.465   7.584  17.906  0.00  0.00    +0.000 A 
ATOM      5  N   UNL     1       1.847   8.793  17.903  0.00  0.00    +0.000 N 
ATOM      6  C   UNL     1       1.319   9.090  19.146  0.00  0.00    +0.000 A 
ATOM      7  H   UNL     1       1.745   9.410  17.106  0.00  0.00    +0.000 HD
ENDROOT
BRANCH   6   8
ATOM      8  C   UNL     1       0.606  10.349  19.273  0.00  0.00    +0.000 C 
ATOM      9  O   UNL     1       0.874  11.134  20.181  0.00  0.00    +0.000 OA
ATOM     10  N   UNL     1      -0.377  10.622  18.369  0.00  0.00    +0.000 N 
ATOM     11  H   UNL     1      -0.639   9.964  17.651  0.00  0.00    +0.000 HD
BRANCH  10  12
ATOM     12  C   UNL     1      -1.189  11.830  18.468  0.00  0.00    +0.000 C 
ATOM     13  C   UNL     1      -0.406  13.051  17.997  0.00  0.00    +0.000 C 
BRANCH  12  14
ATOM     14  C   UNL     1      -2.433  11.616  17.656  0.00  0.00    +0.000 A 
ATOM     15  N   UNL     1      -3.693  11.723  18.211  0.00  0.00    +0.000 NA
ATOM     16  C   UNL     1      -4.482  11.532  17.180  0.00  0.00    +0.000 A 
ATOM     17  N   UNL     1      -3.738  11.323  16.063  0.00  0.00    +0.000 N 
ATOM     18  N   UNL     1      -2.424  11.363  16.342  0.00  0.00    +0.000 NA
ATOM     19  H   UNL     1      -4.043  11.158  15.112  0.00  0.00    +0.000 HD
ENDBRANCH  12  14
ENDBRANCH  10  12
ENDBRANCH   6   8
BRANCH   3  20
ATOM     20  C   UNL     1       2.710   5.628  19.516  0.00  0.00    +0.000 C 
ATOM     21  C   UNL     1       2.294   5.110  20.879  0.00  0.00    +0.000 C 
ATOM     22  C   UNL     1       1.600   4.576  19.663  0.00  0.00    +0.000 C 
BRANCH  20  23
ATOM     23  C   UNL     1       3.883   5.025  18.747  0.00  0.00    +0.000 A 
ATOM     24  C   UNL     1       3.705   3.904  17.929  0.00  0.00    +0.000 A 
ATOM     25  C   UNL     1       4.503   3.725  16.801  0.00  0.00    +0.000 A 
ATOM     26  C   UNL     1       5.519   4.646  16.492  0.00  0.00    +0.000 A 
ATOM     27  C   UNL     1       5.855   5.628  17.435  0.00  0.00    +0.000 A 
ATOM     28  C   UNL     1       5.056   5.787  18.571  0.00  0.00    +0.000 A 
BRANCH  26  29
ATOM     29  C   UNL     1       6.129   4.654  15.113  0.00  0.00    +0.000 C 
ATOM     30  F   UNL     1       7.486   4.527  15.131  0.00  0.00    +0.000 F 
ATOM     31  F   UNL     1       5.682   3.616  14.353  0.00  0.00    +0.000 F 
ATOM     32  F   UNL     1       5.866   5.789  14.419  0.00  0.00    +0.000 F 
ENDBRANCH  26  29
BRANCH  27  33
ATOM     33  C   UNL     1       6.916   6.569  17.205  0.00  0.00    +0.000 C 
ATOM     34  N   UNL     1       7.765   7.338  17.022  0.00  0.00    +0.000 NA
ENDBRANCH  27  33
ENDBRANCH  20  23
ENDBRANCH   3  20
TORSDOF 7
ENDMDL
MODEL 3
REMARK VINA RESULT:      -8.3      2.321      3.147
REMARK  Name = 
REMARK  9 active torsions:
REMARK  status: ('A' for Active; 'I' for Inactive)
REMARK    1  A    between atoms: C_1  and  C_2
REMARK    2  A    between atoms: C_3  and  C_4
REMARK    3  A    between atoms: C_4  and  C_5
REMARK    4  A    between atoms: C_8  and  C_9
REMARK    5  A    between atoms: C_13  and  C_14
REMARK    6  A    between atoms: C_21  and  C_22
REMARK    7  A    between atoms: N_24  and  C_25
REMARK    8  A    between atoms: C_25  and  C_26
REMARK    9  A    between atoms: C_25  and  C_27
REMARK                            x       y       z     vdW  Elec       q    Type
REMARK                         _______ _______ _______ _____ _____    ______ ____
ROOT
ATOM      1  C   UNL     1       2.313   6.421  17.486  0.00  0.00    +0.000 C 
ATOM      2  C   UNL     1       2.064   6.909  18.872  0.00  0.00    +0.000 A 
ATOM      3  C   UNL     1       2.108   6.121  20.070  0.00  0.00    +0.000 A 
ATOM      4  C   UNL     1       1.806   6.923  21.139  0.00  0.00    +0.000 A 
ATOM      5  N   UNL     1       1.637   8.182  20.658  0.00  0.00    +0.000 N 
ATOM      6  C   UNL     1       1.787   8.219  19.284  0.00  0.00    +0.000 A 
ATOM      7  H   UNL     1       1.451   9.012  21.208  0.00  0.00    +0.000 HD
ENDROOT
BRANCH   6   8
ATOM      8  C   UNL     1       1.656   9.516  18.643  0.00  0.00    +0.000 C 
ATOM      9  O   UNL     1       2.072   9.697  17.500  0.00  0.00    +0.000 OA
ATOM     10  N   UNL     1       1.074  10.525  19.353  0.00  0.00    +0.000 N 
ATOM     11  H   UNL     1       0.774  10.401  20.308  0.00  0.00    +0.000 HD
BRANCH  10  12
ATOM     12  C   UNL     1       0.968  11.874  18.811  0.00  0.00    +0.000 C 
ATOM     13  C   UNL     1      -0.474  12.369  18.863  0.00  0.00    +0.000 C 
BRANCH  12  14
ATOM     14  C   UNL     1       1.893  12.759  19.595  0.00  0.00    +0.000 A 
ATOM     15  N   UNL     1       2.747  13.651  18.978  0.00  0.00    +0.000 NA
ATOM     16  C   UNL     1       3.316  14.258  19.992  0.00  0.00    +0.000 A 
ATOM     17  N   UNL     1       2.829  13.761  21.159  0.00  0.00    +0.000 N 
ATOM     18  N   UNL     1       1.923  12.795  20.933  0.00  0.00    +0.000 NA
ATOM     19  H   UNL     1       3.055  14.024  22.110  0.00  0.00    +0.000 HD
ENDBRANCH  12  14
ENDBRANCH  10  12
ENDBRANCH   6   8
BRANCH   3  20
ATOM     20  C   UNL     1       2.548   4.669  20.220  0.00  0.00    +0.000 C 
ATOM     21  C   UNL     1       2.160   3.956  21.501  0.00  0.00    +0.000 C 
ATOM     22  C   UNL     1       1.467   3.576  20.226  0.00  0.00    +0.000 C 
BRANCH  20  23
ATOM     23  C   UNL     1       3.728   4.211  19.367  0.00  0.00    +0.000 A 
ATOM     24  C   UNL     1       3.541   3.332  18.294  0.00  0.00    +0.000 A 
ATOM     25  C   UNL     1       4.382   3.392  17.184  0.00  0.00    +0.000 A 
ATOM     26  C   UNL     1       5.448   4.306  17.145  0.00  0.00    +0.000 A 
ATOM     27  C   UNL     1       5.782   5.011  18.311  0.00  0.00    +0.000 A 
ATOM     28  C   UNL     1       4.939   4.932  19.423  0.00  0.00    +0.000 A 
BRANCH  26  29
ATOM     29  C   UNL     1       6.120   4.618  15.832  0.00  0.00    +0.000 C 
ATOM     30  F   UNL     1       7.472   4.443  15.872  0.00  0.00    +0.000 F 
ATOM     31  F   UNL     1       5.684   3.803  14.831  0.00  0.00    +0.000 F 
ATOM     32  F   UNL     1       5.917   5.892  15.415  0.00  0.00    +0.000 F 
ENDBRANCH  26  29
BRANCH  27  33
ATOM     33  C   UNL     1       6.890   5.924  18.354  0.00  0.00    +0.000 C 
ATOM     34  N   UNL     1       7.787   6.660  18.377  0.00  0.00    +0.000 NA
ENDBRANCH  27  33
ENDBRANCH  20  23
ENDBRANCH   3  20
TORSDOF 7
ENDMDL
MODEL 4
REMARK VINA RESULT:      -8.3      2.273      3.133
REMARK  Name = 
REMARK  9 active torsions:
REMARK  status: ('A' for Active; 'I' for Inactive)
REMARK    1  A    between atoms: C_1  and  C_2
REMARK    2  A    between atoms: C_3  and  C_4
REMARK    3  A    between atoms: C_4  and  C_5
REMARK    4  A    between atoms: C_8  and  C_9
REMARK    5  A    between atoms: C_13  and  C_14
REMARK    6  A    between atoms: C_21  and  C_22
REMARK    7  A    between atoms: N_24  and  C_25
REMARK    8  A    between atoms: C_25  and  C_26
REMARK    9  A    between atoms: C_25  and  C_27
REMARK                            x       y       z     vdW  Elec       q    Type
REMARK                         _______ _______ _______ _____ _____    ______ ____
ROOT
ATOM      1  C   UNL     1       1.312   8.028  21.258  0.00  0.00    +0.000 C 
ATOM      2  C   UNL     1       1.675   8.156  19.817  0.00  0.00    +0.000 A 
ATOM      3  C   UNL     1       2.318   7.157  19.013  0.00  0.00    +0.000 A 
ATOM      4  C   UNL     1       2.499   7.655  17.749  0.00  0.00    +0.000 A 
ATOM      5  N   UNL     1       1.940   8.893  17.725  0.00  0.00    +0.000 N 
ATOM      6  C   UNL     1       1.426   9.237  18.961  0.00  0.00    +0.000 A 
ATOM      7  H   UNL     1       1.870   9.502  16.918  0.00  0.00    +0.000 HD
ENDROOT
BRANCH   6   8
ATOM      8  C   UNL     1       0.775  10.531  19.066  0.00  0.00    +0.000 C 
ATOM      9  O   UNL     1       1.374  11.562  18.764  0.00  0.00    +0.000 OA
ATOM     10  N   UNL     1      -0.508  10.567  19.524  0.00  0.00    +0.000 N 
ATOM     11  H   UNL     1      -0.992   9.733  19.822  0.00  0.00    +0.000 HD
BRANCH  10  12
ATOM     12  C   UNL     1      -1.209  11.829  19.728  0.00  0.00    +0.000 C 
ATOM     13  C   UNL     1      -2.399  11.949  18.781  0.00  0.00    +0.000 C 
BRANCH  12  14
ATOM     14  C   UNL     1      -1.630  11.895  21.167  0.00  0.00    +0.000 A 
ATOM     15  N   UNL     1      -2.747  12.600  21.569  0.00  0.00    +0.000 NA
ATOM     16  C   UNL     1      -2.798  12.356  22.857  0.00  0.00    +0.000 A 
ATOM     17  N   UNL     1      -1.768  11.544  23.213  0.00  0.00    +0.000 N 
ATOM     18  N   UNL     1      -1.002  11.241  22.152  0.00  0.00    +0.000 NA
ATOM     19  H   UNL     1      -1.537  11.166  24.123  0.00  0.00    +0.000 HD
ENDBRANCH  12  14
ENDBRANCH  10  12
ENDBRANCH   6   8
BRANCH   3  20
ATOM     20  C   UNL     1       2.645   5.717  19.392  0.00  0.00    +0.000 C 
ATOM     21  C   UNL     1       2.109   5.210  20.717  0.00  0.00    +0.000 C 
ATOM     22  C   UNL     1       1.496   4.698  19.448  0.00  0.00    +0.000 C 
BRANCH  20  23
ATOM     23  C   UNL     1       3.855   5.080  18.714  0.00  0.00    +0.000 A 
ATOM     24  C   UNL     1       3.723   3.908  17.962  0.00  0.00    +0.000 A 
ATOM     25  C   UNL     1       4.572   3.668  16.882  0.00  0.00    +0.000 A 
ATOM     26  C   UNL     1       5.592   4.579  16.561  0.00  0.00    +0.000 A 
ATOM     27  C   UNL     1       5.878   5.622  17.453  0.00  0.00    +0.000 A 
ATOM     28  C   UNL     1       5.029   5.844  18.541  0.00  0.00    +0.000 A 
BRANCH  26  29
ATOM     29  C   UNL     1       6.262   4.508  15.211  0.00  0.00    +0.000 C 
ATOM     30  F   UNL     1       5.933   3.385  14.513  0.00  0.00    +0.000 F 
ATOM     31  F   UNL     1       5.901   5.548  14.409  0.00  0.00    +0.000 F 
ATOM     32  F   UNL     1       7.616   4.523  15.285  0.00  0.00    +0.000 F 
ENDBRANCH  26  29
BRANCH  27  33
ATOM     33  C   UNL     1       6.940   6.559  17.210  0.00  0.00    +0.000 C 
ATOM     34  N   UNL     1       7.806   7.308  17.020  0.00  0.00    +0.000 NA
ENDBRANCH  27  33
ENDBRANCH  20  23
ENDBRANCH   3  20
TORSDOF 7
ENDMDL
MODEL 5
REMARK VINA RESULT:      -8.3      3.996      8.456
REMARK  Name = 
REMARK  9 active torsions:
REMARK  status: ('A' for Active; 'I' for Inactive)
REMARK    1  A    between atoms: C_1  and  C_2
REMARK    2  A    between atoms: C_3  and  C_4
REMARK    3  A    between atoms: C_4  and  C_5
REMARK    4  A    between atoms: C_8  and  C_9
REMARK    5  A    between atoms: C_13  and  C_14
REMARK    6  A    between atoms: C_21  and  C_22
REMARK    7  A    between atoms: N_24  and  C_25
REMARK    8  A    between atoms: C_25  and  C_26
REMARK    9  A    between atoms: C_25  and  C_27
REMARK                            x       y       z     vdW  Elec       q    Type
REMARK                         _______ _______ _______ _____ _____    ______ ____
ROOT
ATOM      1  C   UNL     1       2.509   8.256  17.581  0.00  0.00    +0.000 C 
ATOM      2  C   UNL     1       2.061   8.089  18.993  0.00  0.00    +0.000 A 
ATOM      3  C   UNL     1       1.295   9.031  19.757  0.00  0.00    +0.000 A 
ATOM      4  C   UNL     1       1.099   8.525  21.016  0.00  0.00    +0.000 A 
ATOM      5  N   UNL     1       1.658   7.288  21.040  0.00  0.00    +0.000 N 
ATOM      6  C   UNL     1       2.253   6.981  19.830  0.00  0.00    +0.000 A 
ATOM      7  H   UNL     1       1.639   6.638  21.817  0.00  0.00    +0.000 HD
ENDROOT
BRANCH   6   8
ATOM      8  C   UNL     1       2.869   5.671  19.713  0.00  0.00    +0.000 C 
ATOM      9  O   UNL     1       2.731   4.830  20.599  0.00  0.00    +0.000 OA
ATOM     10  N   UNL     1       3.614   5.411  18.601  0.00  0.00    +0.000 N 
ATOM     11  H   UNL     1       3.775   6.110  17.892  0.00  0.00    +0.000 HD
BRANCH  10  12
ATOM     12  C   UNL     1       4.325   4.148  18.438  0.00  0.00    +0.000 C 
ATOM     13  C   UNL     1       3.618   3.254  17.425  0.00  0.00    +0.000 C 
BRANCH  12  14
ATOM     14  C   UNL     1       5.732   4.463  18.022  0.00  0.00    +0.000 A 
ATOM     15  N   UNL     1       6.700   4.825  18.938  0.00  0.00    +0.000 NA
ATOM     16  C   UNL     1       7.773   4.946  18.194  0.00  0.00    +0.000 A 
ATOM     17  N   UNL     1       7.471   4.668  16.899  0.00  0.00    +0.000 N 
ATOM     18  N   UNL     1       6.170   4.364  16.761  0.00  0.00    +0.000 NA
ATOM     19  H   UNL     1       8.076   4.661  16.088  0.00  0.00    +0.000 HD
ENDBRANCH  12  14
ENDBRANCH  10  12
ENDBRANCH   6   8
BRANCH   3  20
ATOM     20  C   UNL     1       0.655  10.327  19.275  0.00  0.00    +0.000 C 
ATOM     21  C   UNL     1      -0.475  10.211  18.271  0.00  0.00    +0.000 C 
ATOM     22  C   UNL     1      -0.800  10.617  19.677  0.00  0.00    +0.000 C 
BRANCH  20  23
ATOM     23  C   UNL     1       1.483  11.602  19.413  0.00  0.00    +0.000 A 
ATOM     24  C   UNL     1       2.095  12.186  18.299  0.00  0.00    +0.000 A 
ATOM     25  C   UNL     1       2.289  13.565  18.247  0.00  0.00    +0.000 A 
ATOM     26  C   UNL     1       1.908  14.380  19.326  0.00  0.00    +0.000 A 
ATOM     27  C   UNL     1       1.522  13.776  20.531  0.00  0.00    +0.000 A 
ATOM     28  C   UNL     1       1.346  12.390  20.576  0.00  0.00    +0.000 A 
BRANCH  26  29
ATOM     29  C   UNL     1       1.784  15.871  19.133  0.00  0.00    +0.000 C 
ATOM     30  F   UNL     1       2.572  16.585  19.985  0.00  0.00    +0.000 F 
ATOM     31  F   UNL     1       2.167  16.255  17.883  0.00  0.00    +0.000 F 
ATOM     32  F   UNL     1       0.521  16.331  19.313  0.00  0.00    +0.000 F 
ENDBRANCH  26  29
BRANCH  27  33
ATOM     33  C   UNL     1       1.168  14.549  21.689  0.00  0.00    +0.000 C 
ATOM     34  N   UNL     1       0.881  15.184  22.617  0.00  0.00    +0.000 NA
ENDBRANCH  27  33
ENDBRANCH  20  23
ENDBRANCH   3  20
TORSDOF 7
ENDMDL
MODEL 6
REMARK VINA RESULT:      -8.3      4.076      8.533
REMARK  Name = 
REMARK  9 active torsions:
REMARK  status: ('A' for Active; 'I' for Inactive)
REMARK    1  A    between atoms: C_1  and  C_2
REMARK    2  A    between atoms: C_3  and  C_4
REMARK    3  A    between atoms: C_4  and  C_5
REMARK    4  A    between atoms: C_8  and  C_9
REMARK    5  A    between atoms: C_13  and  C_14
REMARK    6  A    between atoms: C_21  and  C_22
REMARK    7  A    between atoms: N_24  and  C_25
REMARK    8  A    between atoms: C_25  and  C_26
REMARK    9  A    between atoms: C_25  and  C_27
REMARK                            x       y       z     vdW  Elec       q    Type
REMARK                         _______ _______ _______ _____ _____    ______ ____
ROOT
ATOM      1  C   UNL     1       2.191   8.466  17.673  0.00  0.00    +0.000 C 
ATOM      2  C   UNL     1       1.834   8.356  19.117  0.00  0.00    +0.000 A 
ATOM      3  C   UNL     1       1.169   9.355  19.904  0.00  0.00    +0.000 A 
ATOM      4  C   UNL     1       1.037   8.890  21.187  0.00  0.00    +0.000 A 
ATOM      5  N   UNL     1       1.536   7.628  21.208  0.00  0.00    +0.000 N 
ATOM      6  C   UNL     1       2.030   7.262  19.970  0.00  0.00    +0.000 A 
ATOM      7  H   UNL     1       1.539   6.999  22.003  0.00  0.00    +0.000 HD
ENDROOT
BRANCH   6   8
ATOM      8  C   UNL     1       2.573   5.920  19.848  0.00  0.00    +0.000 C 
ATOM      9  O   UNL     1       2.075   4.982  20.469  0.00  0.00    +0.000 OA
ATOM     10  N   UNL     1       3.656   5.739  19.040  0.00  0.00    +0.000 N 
ATOM     11  H   UNL     1       4.103   6.509  18.566  0.00  0.00    +0.000 HD
BRANCH  10  12
ATOM     12  C   UNL     1       4.306   4.439  18.919  0.00  0.00    +0.000 C 
ATOM     13  C   UNL     1       3.723   3.648  17.753  0.00  0.00    +0.000 C 
BRANCH  12  14
ATOM     14  C   UNL     1       5.780   4.675  18.754  0.00  0.00    +0.000 A 
ATOM     15  N   UNL     1       6.429   4.429  17.561  0.00  0.00    +0.000 NA
ATOM     16  C   UNL     1       7.656   4.816  17.812  0.00  0.00    +0.000 A 
ATOM     17  N   UNL     1       7.743   5.274  19.088  0.00  0.00    +0.000 N 
ATOM     18  N   UNL     1       6.558   5.187  19.715  0.00  0.00    +0.000 NA
ATOM     19  H   UNL     1       8.544   5.651  19.580  0.00  0.00    +0.000 HD
ENDBRANCH  12  14
ENDBRANCH  10  12
ENDBRANCH   6   8
BRANCH   3  20
ATOM     20  C   UNL     1       0.560  10.668  19.430  0.00  0.00    +0.000 C 
ATOM     21  C   UNL     1      -0.639  10.583  18.504  0.00  0.00    +0.000 C 
ATOM     22  C   UNL     1      -0.850  11.037  19.917  0.00  0.00    +0.000 C 
BRANCH  20  23
ATOM     23  C   UNL     1       1.454  11.905  19.481  0.00  0.00    +0.000 A 
ATOM     24  C   UNL     1       1.982  12.458  18.309  0.00  0.00    +0.000 A 
ATOM     25  C   UNL     1       2.232  13.827  18.230  0.00  0.00    +0.000 A 
ATOM     26  C   UNL     1       1.993  14.660  19.336  0.00  0.00    +0.000 A 
ATOM     27  C   UNL     1       1.697  14.076  20.576  0.00  0.00    +0.000 A 
ATOM     28  C   UNL     1       1.464  12.700  20.646  0.00  0.00    +0.000 A 
BRANCH  26  29
ATOM     29  C   UNL     1       1.918  16.155  19.145  0.00  0.00    +0.000 C 
ATOM     30  F   UNL     1       2.114  16.536  17.851  0.00  0.00    +0.000 F 
ATOM     31  F   UNL     1       0.695  16.650  19.484  0.00  0.00    +0.000 F 
ATOM     32  F   UNL     1       2.832  16.835  19.881  0.00  0.00    +0.000 F 
ENDBRANCH  26  29
BRANCH  27  33
ATOM     33  C   UNL     1       1.491  14.867  21.757  0.00  0.00    +0.000 C 
ATOM     34  N   UNL     1       1.330  15.516  22.706  0.00  0.00    +0.000 NA
ENDBRANCH  27  33
ENDBRANCH  20  23
ENDBRANCH   3  20
TORSDOF 7
ENDMDL
MODEL 7
REMARK VINA RESULT:      -8.3      1.755      2.533
REMARK  Name = 
REMARK  9 active torsions:
REMARK  status: ('A' for Active; 'I' for Inactive)
REMARK    1  A    between atoms: C_1  and  C_2
REMARK    2  A    between atoms: C_3  and  C_4
REMARK    3  A    between atoms: C_4  and  C_5
REMARK    4  A    between atoms: C_8  and  C_9
REMARK    5  A    between atoms: C_13  and  C_14
REMARK    6  A    between atoms: C_21  and  C_22
REMARK    7  A    between atoms: N_24  and  C_25
REMARK    8  A    between atoms: C_25  and  C_26
REMARK    9  A    between atoms: C_25  and  C_27
REMARK                            x       y       z     vdW  Elec       q    Type
REMARK                         _______ _______ _______ _____ _____    ______ ____
ROOT
ATOM      1  C   UNL     1       0.875   7.821  21.549  0.00  0.00    +0.000 C 
ATOM      2  C   UNL     1       1.408   8.054  20.176  0.00  0.00    +0.000 A 
ATOM      3  C   UNL     1       2.126   7.105  19.374  0.00  0.00    +0.000 A 
ATOM      4  C   UNL     1       2.462   7.698  18.184  0.00  0.00    +0.000 A 
ATOM      5  N   UNL     1       1.929   8.947  18.196  0.00  0.00    +0.000 N 
ATOM      6  C   UNL     1       1.277   9.204  19.388  0.00  0.00    +0.000 A 
ATOM      7  H   UNL     1       1.963   9.619  17.438  0.00  0.00    +0.000 HD
ENDROOT
BRANCH   6   8
ATOM      8  C   UNL     1       0.639  10.502  19.521  0.00  0.00    +0.000 C 
ATOM      9  O   UNL     1       1.082  11.343  20.301  0.00  0.00    +0.000 OA
ATOM     10  N   UNL     1      -0.473  10.748  18.770  0.00  0.00    +0.000 N 
ATOM     11  H   UNL     1      -0.873  10.048  18.165  0.00  0.00    +0.000 HD
BRANCH  10  12
ATOM     12  C   UNL     1      -1.215  11.997  18.897  0.00  0.00    +0.000 C 
ATOM     13  C   UNL     1      -0.474  13.141  18.213  0.00  0.00    +0.000 C 
BRANCH  12  14
ATOM     14  C   UNL     1      -2.580  11.782  18.309  0.00  0.00    +0.000 A 
ATOM     15  N   UNL     1      -2.753  11.312  17.023  0.00  0.00    +0.000 NA
ATOM     16  C   UNL     1      -4.057  11.208  16.924  0.00  0.00    +0.000 A 
ATOM     17  N   UNL     1      -4.639  11.592  18.091  0.00  0.00    +0.000 N 
ATOM     18  N   UNL     1      -3.716  11.972  18.990  0.00  0.00    +0.000 NA
ATOM     19  H   UNL     1      -5.620  11.616  18.338  0.00  0.00    +0.000 HD
ENDBRANCH  12  14
ENDBRANCH  10  12
ENDBRANCH   6   8
BRANCH   3  20
ATOM     20  C   UNL     1       2.384   5.633  19.670  0.00  0.00    +0.000 C 
ATOM     21  C   UNL     1       1.873   5.091  20.990  0.00  0.00    +0.000 C 
ATOM     22  C   UNL     1       1.182   4.677  19.726  0.00  0.00    +0.000 C 
BRANCH  20  23
ATOM     23  C   UNL     1       3.529   4.965  18.912  0.00  0.00    +0.000 A 
ATOM     24  C   UNL     1       3.392   4.620  17.562  0.00  0.00    +0.000 A 
ATOM     25  C   UNL     1       4.505   4.616  16.723  0.00  0.00    +0.000 A 
ATOM     26  C   UNL     1       5.780   4.921  17.228  0.00  0.00    +0.000 A 
ATOM     27  C   UNL     1       5.954   5.027  18.616  0.00  0.00    +0.000 A 
ATOM     28  C   UNL     1       4.832   5.013  19.449  0.00  0.00    +0.000 A 
BRANCH  26  29
ATOM     29  C   UNL     1       6.900   5.265  16.278  0.00  0.00    +0.000 C 
ATOM     30  F   UNL     1       7.906   4.345  16.286  0.00  0.00    +0.000 F 
ATOM     31  F   UNL     1       6.472   5.318  14.986  0.00  0.00    +0.000 F 
ATOM     32  F   UNL     1       7.481   6.461  16.547  0.00  0.00    +0.000 F 
ENDBRANCH  26  29
BRANCH  27  33
ATOM     33  C   UNL     1       7.240   5.287  19.202  0.00  0.00    +0.000 C 
ATOM     34  N   UNL     1       8.278   5.509  19.670  0.00  0.00    +0.000 NA
ENDBRANCH  27  33
ENDBRANCH  20  23
ENDBRANCH   3  20
TORSDOF 7
ENDMDL
MODEL 8
REMARK VINA RESULT:      -8.2      2.028      2.807
REMARK  Name = 
REMARK  9 active torsions:
REMARK  status: ('A' for Active; 'I' for Inactive)
REMARK    1  A    between atoms: C_1  and  C_2
REMARK    2  A    between atoms: C_3  and  C_4
REMARK    3  A    between atoms: C_4  and  C_5
REMARK    4  A    between atoms: C_8  and  C_9
REMARK    5  A    between atoms: C_13  and  C_14
REMARK    6  A    between atoms: C_21  and  C_22
REMARK    7  A    between atoms: N_24  and  C_25
REMARK    8  A    between atoms: C_25  and  C_26
REMARK    9  A    between atoms: C_25  and  C_27
REMARK                            x       y       z     vdW  Elec       q    Type
REMARK                         _______ _______ _______ _____ _____    ______ ____
ROOT
ATOM      1  C   UNL     1       1.260   8.051  21.413  0.00  0.00    +0.000 C 
ATOM      2  C   UNL     1       1.619   8.062  19.965  0.00  0.00    +0.000 A 
ATOM      3  C   UNL     1       2.190   6.974  19.226  0.00  0.00    +0.000 A 
ATOM      4  C   UNL     1       2.392   7.377  17.931  0.00  0.00    +0.000 A 
ATOM      5  N   UNL     1       1.912   8.644  17.829  0.00  0.00    +0.000 N 
ATOM      6  C   UNL     1       1.431   9.099  19.042  0.00  0.00    +0.000 A 
ATOM      7  H   UNL     1       1.873   9.202  16.983  0.00  0.00    +0.000 HD
ENDROOT
BRANCH   6   8
ATOM      8  C   UNL     1       0.864  10.436  19.065  0.00  0.00    +0.000 C 
ATOM      9  O   UNL     1       1.564  11.419  18.827  0.00  0.00    +0.000 OA
ATOM     10  N   UNL     1      -0.458  10.566  19.374  0.00  0.00    +0.000 N 
ATOM     11  H   UNL     1      -1.028   9.771  19.619  0.00  0.00    +0.000 HD
BRANCH  10  12
ATOM     12  C   UNL     1      -1.087  11.876  19.489  0.00  0.00    +0.000 C 
ATOM     13  C   UNL     1      -2.247  12.009  18.508  0.00  0.00    +0.000 C 
BRANCH  12  14
ATOM     14  C   UNL     1      -1.535  12.048  20.912  0.00  0.00    +0.000 A 
ATOM     15  N   UNL     1      -0.689  11.808  21.976  0.00  0.00    +0.000 NA
ATOM     16  C   UNL     1      -1.426  12.129  23.012  0.00  0.00    +0.000 A 
ATOM     17  N   UNL     1      -2.652  12.543  22.595  0.00  0.00    +0.000 N 
ATOM     18  N   UNL     1      -2.750  12.492  21.256  0.00  0.00    +0.000 NA
ATOM     19  H   UNL     1      -3.439  12.866  23.143  0.00  0.00    +0.000 HD
ENDBRANCH  12  14
ENDBRANCH  10  12
ENDBRANCH   6   8
BRANCH   3  20
ATOM     20  C   UNL     1       2.429   5.545  19.696  0.00  0.00    +0.000 C 
ATOM     21  C   UNL     1       1.812   5.138  21.020  0.00  0.00    +0.000 C 
ATOM     22  C   UNL     1       1.229   4.585  19.754  0.00  0.00    +0.000 C 
BRANCH  20  23
ATOM     23  C   UNL     1       3.634   4.815  19.109  0.00  0.00    +0.000 A 
ATOM     24  C   UNL     1       3.482   3.908  18.054  0.00  0.00    +0.000 A 
ATOM     25  C   UNL     1       4.510   3.728  17.130  0.00  0.00    +0.000 A 
ATOM     26  C   UNL     1       5.722   4.425  17.267  0.00  0.00    +0.000 A 
ATOM     27  C   UNL     1       5.965   5.142  18.448  0.00  0.00    +0.000 A 
ATOM     28  C   UNL     1       4.931   5.302  19.375  0.00  0.00    +0.000 A 
BRANCH  26  29
ATOM     29  C   UNL     1       6.674   4.509  16.100  0.00  0.00    +0.000 C 
ATOM     30  F   UNL     1       7.958   4.199  16.438  0.00  0.00    +0.000 F 
ATOM     31  F   UNL     1       6.343   3.634  15.110  0.00  0.00    +0.000 F 
ATOM     32  F   UNL     1       6.721   5.741  15.534  0.00  0.00    +0.000 F 
ENDBRANCH  26  29
BRANCH  27  33
ATOM     33  C   UNL     1       7.202   5.835  18.674  0.00  0.00    +0.000 C 
ATOM     34  N   UNL     1       8.205   6.394  18.844  0.00  0.00    +0.000 NA
ENDBRANCH  27  33
ENDBRANCH  20  23
ENDBRANCH   3  20
TORSDOF 7
ENDMDL
MODEL 9
REMARK VINA RESULT:      -8.2      2.320      3.143
REMARK  Name = 
REMARK  9 active torsions:
REMARK  status: ('A' for Active; 'I' for Inactive)
REMARK    1  A    between atoms: C_1  and  C_2
REMARK    2  A    between atoms: C_3  and  C_4
REMARK    3  A    between atoms: C_4  and  C_5
REMARK    4  A    between atoms: C_8  and  C_9
REMARK    5  A    between atoms: C_13  and  C_14
REMARK    6  A    between atoms: C_21  and  C_22
REMARK    7  A    between atoms: N_24  and  C_25
REMARK    8  A    between atoms: C_25  and  C_26
REMARK    9  A    between atoms: C_25  and  C_27
REMARK                            x       y       z     vdW  Elec       q    Type
REMARK                         _______ _______ _______ _____ _____    ______ ____
ROOT
ATOM      1  C   UNL     1       1.005   8.245  21.379  0.00  0.00    +0.000 C 
ATOM      2  C   UNL     1       1.470   8.327  19.964  0.00  0.00    +0.000 A 
ATOM      3  C   UNL     1       2.119   7.284  19.223  0.00  0.00    +0.000 A 
ATOM      4  C   UNL     1       2.407   7.749  17.966  0.00  0.00    +0.000 A 
ATOM      5  N   UNL     1       1.910   9.009  17.883  0.00  0.00    +0.000 N 
ATOM      6  C   UNL     1       1.329   9.401  19.075  0.00  0.00    +0.000 A 
ATOM      7  H   UNL     1       1.922   9.604  17.062  0.00  0.00    +0.000 HD
ENDROOT
BRANCH   6   8
ATOM      8  C   UNL     1       0.734  10.725  19.114  0.00  0.00    +0.000 C 
ATOM      9  O   UNL     1      -0.369  10.933  18.610  0.00  0.00    +0.000 OA
ATOM     10  N   UNL     1       1.441  11.727  19.709  0.00  0.00    +0.000 N 
ATOM     11  H   UNL     1       2.367  11.579  20.080  0.00  0.00    +0.000 HD
BRANCH  10  12
ATOM     12  C   UNL     1       0.948  13.100  19.727  0.00  0.00    +0.000 C 
ATOM     13  C   UNL     1       0.827  13.614  21.158  0.00  0.00    +0.000 C 
BRANCH  12  14
ATOM     14  C   UNL     1       1.887  13.937  18.908  0.00  0.00    +0.000 A 
ATOM     15  N   UNL     1       1.824  15.316  18.909  0.00  0.00    +0.000 NA
ATOM     16  C   UNL     1       2.830  15.654  18.138  0.00  0.00    +0.000 A 
ATOM     17  N   UNL     1       3.467  14.538  17.697  0.00  0.00    +0.000 N 
ATOM     18  N   UNL     1       2.879  13.426  18.168  0.00  0.00    +0.000 NA
ATOM     19  H   UNL     1       4.281  14.460  17.099  0.00  0.00    +0.000 HD
ENDBRANCH  12  14
ENDBRANCH  10  12
ENDBRANCH   6   8
BRANCH   3  20
ATOM     20  C   UNL     1       2.353   5.839  19.648  0.00  0.00    +0.000 C 
ATOM     21  C   UNL     1       1.830   5.423  21.009  0.00  0.00    +0.000 C 
ATOM     22  C   UNL     1       1.134   4.912  19.784  0.00  0.00    +0.000 C 
BRANCH  20  23
ATOM     23  C   UNL     1       3.487   5.089  18.955  0.00  0.00    +0.000 A 
ATOM     24  C   UNL     1       3.354   4.645  17.634  0.00  0.00    +0.000 A 
ATOM     25  C   UNL     1       4.473   4.551  16.809  0.00  0.00    +0.000 A 
ATOM     26  C   UNL     1       5.751   4.864  17.303  0.00  0.00    +0.000 A 
ATOM     27  C   UNL     1       5.916   5.071  18.680  0.00  0.00    +0.000 A 
ATOM     28  C   UNL     1       4.786   5.147  19.500  0.00  0.00    +0.000 A 
BRANCH  26  29
ATOM     29  C   UNL     1       6.887   5.109  16.342  0.00  0.00    +0.000 C 
ATOM     30  F   UNL     1       7.932   4.253  16.524  0.00  0.00    +0.000 F 
ATOM     31  F   UNL     1       6.503   4.934  15.046  0.00  0.00    +0.000 F 
ATOM     32  F   UNL     1       7.404   6.359  16.431  0.00  0.00    +0.000 F 
ENDBRANCH  26  29
BRANCH  27  33
ATOM     33  C   UNL     1       7.202   5.345  19.258  0.00  0.00    +0.000 C 
ATOM     34  N   UNL     1       8.247   5.566  19.713  0.00  0.00    +0.000 NA
ENDBRANCH  27  33
ENDBRANCH  20  23
ENDBRANCH   3  20
TORSDOF 7
ENDMDL
