MODEL 1
REMARK VINA RESULT:      -6.2      0.000      0.000
REMARK  Name = 
REMARK  10 active torsions:
REMARK  status: ('A' for Active; 'I' for Inactive)
REMARK    1  A    between atoms: C_1  and  C_2
REMARK    2  A    between atoms: C_2  and  C_3
REMARK    3  A    between atoms: C_3  and  C_4
REMARK    4  A    between atoms: C_4  and  C_5
REMARK    5  A    between atoms: C_5  and  O_6
REMARK    6  A    between atoms: O_6  and  C_7
REMARK    7  A    between atoms: C_10  and  C_11
REMARK    8  A    between atoms: N_12  and  N_13
REMARK    9  A    between atoms: N_13  and  C_14
REMARK   10  A    between atoms: C_14  and  N_15
REMARK                            x       y       z     vdW  Elec       q    Type
REMARK                         _______ _______ _______ _____ _____    ______ ____
ROOT
ATOM      1  C   UNL     1       4.339   5.453  18.416  0.00  0.00    +0.000 A 
ATOM      2  C   UNL     1       4.630   6.507  17.543  0.00  0.00    +0.000 A 
ATOM      3  C   UNL     1       5.049   6.253  16.242  0.00  0.00    +0.000 A 
ATOM      4  C   UNL     1       5.188   4.939  15.792  0.00  0.00    +0.000 A 
ATOM      5  C   UNL     1       4.897   3.875  16.649  0.00  0.00    +0.000 A 
ATOM      6  C   UNL     1       4.474   4.138  17.961  0.00  0.00    +0.000 A 
ENDROOT
BRANCH   4   7
ATOM      7  C   UNL     1       5.649   4.701  14.410  0.00  0.00    +0.000 C 
ATOM      8  N   UNL     1       6.043   3.522  14.042  0.00  0.00    +0.000 NA
BRANCH   8   9
ATOM      9  N   UNL     1       6.444   3.403  12.749  0.00  0.00    +0.000 N 
ATOM     10  H   UNL     1       7.290   3.860  12.423  0.00  0.00    +0.000 HD
BRANCH   9  11
ATOM     11  C   UNL     1       5.718   2.667  11.852  0.00  0.00    +0.000 C 
ATOM     12  S   UNL     1       4.256   3.179  11.261  0.00  0.00    +0.000 S 
BRANCH  11  13
ATOM     13  N   UNL     1       6.271   1.489  11.476  0.00  0.00    +0.000 N 
ATOM     14  H   UNL     1       7.016   1.124  12.058  0.00  0.00    +0.000 HD
ATOM     15  H   UNL     1       5.950   0.987  10.663  0.00  0.00    +0.000 HD
ENDBRANCH  11  13
ENDBRANCH   9  11
ENDBRANCH   8   9
ENDBRANCH   4   7
BRANCH   1  16
ATOM     16  O   UNL     1       3.922   5.610  19.717  0.00  0.00    +0.000 OA
BRANCH  16  17
ATOM     17  C   UNL     1       2.584   6.098  19.850  0.00  0.00    +0.000 C 
BRANCH  17  18
ATOM     18  C   UNL     1       1.776   5.251  20.825  0.00  0.00    +0.000 C 
BRANCH  18  19
ATOM     19  C   UNL     1       1.092   4.115  20.060  0.00  0.00    +0.000 C 
BRANCH  19  21
ATOM     20  C   UNL     1       1.763   1.889  19.106  0.00  0.00    +0.000 C 
ATOM     21  C   UNL     1       1.729   2.761  20.351  0.00  0.00    +0.000 C 
ENDBRANCH  19  21
ENDBRANCH  18  19
ENDBRANCH  17  18
ENDBRANCH  16  17
ENDBRANCH   1  16
TORSDOF 9
ENDMDL
MODEL 2
REMARK VINA RESULT:      -6.1      4.508      7.283
REMARK  Name = 
REMARK  10 active torsions:
REMARK  status: ('A' for Active; 'I' for Inactive)
REMARK    1  A    between atoms: C_1  and  C_2
REMARK    2  A    between atoms: C_2  and  C_3
REMARK    3  A    between atoms: C_3  and  C_4
REMARK    4  A    between atoms: C_4  and  C_5
REMARK    5  A    between atoms: C_5  and  O_6
REMARK    6  A    between atoms: O_6  and  C_7
REMARK    7  A    between atoms: C_10  and  C_11
REMARK    8  A    between atoms: N_12  and  N_13
REMARK    9  A    between atoms: N_13  and  C_14
REMARK   10  A    between atoms: C_14  and  N_15
REMARK                            x       y       z     vdW  Elec       q    Type
REMARK                         _______ _______ _______ _____ _____    ______ ____
ROOT
ATOM      1  C   UNL     1       5.761   5.403  15.271  0.00  0.00    +0.000 A 
ATOM      2  C   UNL     1       5.305   6.566  15.902  0.00  0.00    +0.000 A 
ATOM      3  C   UNL     1       4.417   6.490  16.968  0.00  0.00    +0.000 A 
ATOM      4  C   UNL     1       3.966   5.250  17.420  0.00  0.00    +0.000 A 
ATOM      5  C   UNL     1       4.415   4.078  16.805  0.00  0.00    +0.000 A 
ATOM      6  C   UNL     1       5.312   4.161  15.729  0.00  0.00    +0.000 A 
ENDROOT
BRANCH   4   7
ATOM      7  C   UNL     1       3.012   5.202  18.545  0.00  0.00    +0.000 C 
ATOM      8  N   UNL     1       3.439   5.174  19.769  0.00  0.00    +0.000 NA
BRANCH   8   9
ATOM      9  N   UNL     1       2.482   5.136  20.734  0.00  0.00    +0.000 N 
ATOM     10  H   UNL     1       2.322   5.935  21.339  0.00  0.00    +0.000 HD
BRANCH   9  11
ATOM     11  C   UNL     1       1.712   4.019  20.918  0.00  0.00    +0.000 C 
ATOM     12  S   UNL     1       2.271   2.675  21.711  0.00  0.00    +0.000 S 
BRANCH  11  13
ATOM     13  N   UNL     1       0.459   4.081  20.407  0.00  0.00    +0.000 N 
ATOM     14  H   UNL     1       0.368   4.017  19.400  0.00  0.00    +0.000 HD
ATOM     15  H   UNL     1      -0.352   4.172  20.999  0.00  0.00    +0.000 HD
ENDBRANCH  11  13
ENDBRANCH   9  11
ENDBRANCH   8   9
ENDBRANCH   4   7
BRANCH   1  16
ATOM     16  O   UNL     1       6.636   5.383  14.209  0.00  0.00    +0.000 OA
BRANCH  16  17
ATOM     17  C   UNL     1       6.914   4.074  13.703  0.00  0.00    +0.000 C 
BRANCH  17  18
ATOM     18  C   UNL     1       6.686   3.999  12.199  0.00  0.00    +0.000 C 
BRANCH  18  19
ATOM     19  C   UNL     1       5.690   2.876  11.894  0.00  0.00    +0.000 C 
BRANCH  19  21
ATOM     20  C   UNL     1       3.699   3.566  10.525  0.00  0.00    +0.000 C 
ATOM     21  C   UNL     1       4.246   3.364  11.930  0.00  0.00    +0.000 C 
ENDBRANCH  19  21
ENDBRANCH  18  19
ENDBRANCH  17  18
ENDBRANCH  16  17
ENDBRANCH   1  16
TORSDOF 9
ENDMDL
MODEL 3
REMARK VINA RESULT:      -6.0      1.020      1.359
REMARK  Name = 
REMARK  10 active torsions:
REMARK  status: ('A' for Active; 'I' for Inactive)
REMARK    1  A    between atoms: C_1  and  C_2
REMARK    2  A    between atoms: C_2  and  C_3
REMARK    3  A    between atoms: C_3  and  C_4
REMARK    4  A    between atoms: C_4  and  C_5
REMARK    5  A    between atoms: C_5  and  O_6
REMARK    6  A    between atoms: O_6  and  C_7
REMARK    7  A    between atoms: C_10  and  C_11
REMARK    8  A    between atoms: N_12  and  N_13
REMARK    9  A    between atoms: N_13  and  C_14
REMARK   10  A    between atoms: C_14  and  N_15
REMARK                            x       y       z     vdW  Elec       q    Type
REMARK                         _______ _______ _______ _____ _____    ______ ____
ROOT
ATOM      1  C   UNL     1       4.131   5.449  18.951  0.00  0.00    +0.000 A 
ATOM      2  C   UNL     1       5.354   4.785  19.092  0.00  0.00    +0.000 A 
ATOM      3  C   UNL     1       6.059   4.354  17.974  0.00  0.00    +0.000 A 
ATOM      4  C   UNL     1       5.549   4.576  16.695  0.00  0.00    +0.000 A 
ATOM      5  C   UNL     1       4.332   5.242  16.534  0.00  0.00    +0.000 A 
ATOM      6  C   UNL     1       3.625   5.675  17.668  0.00  0.00    +0.000 A 
ENDROOT
BRANCH   4   7
ATOM      7  C   UNL     1       6.313   4.093  15.527  0.00  0.00    +0.000 C 
ATOM      8  N   UNL     1       5.765   4.055  14.353  0.00  0.00    +0.000 NA
BRANCH   8   9
ATOM      9  N   UNL     1       6.551   3.599  13.342  0.00  0.00    +0.000 N 
ATOM     10  H   UNL     1       7.559   3.707  13.379  0.00  0.00    +0.000 HD
BRANCH   9  11
ATOM     11  C   UNL     1       6.004   2.987  12.246  0.00  0.00    +0.000 C 
ATOM     12  S   UNL     1       4.487   3.354  11.688  0.00  0.00    +0.000 S 
BRANCH  11  13
ATOM     13  N   UNL     1       6.785   2.058  11.644  0.00  0.00    +0.000 N 
ATOM     14  H   UNL     1       6.748   1.116  12.015  0.00  0.00    +0.000 HD
ATOM     15  H   UNL     1       7.366   2.285  10.852  0.00  0.00    +0.000 HD
ENDBRANCH  11  13
ENDBRANCH   9  11
ENDBRANCH   8   9
ENDBRANCH   4   7
BRANCH   1  16
ATOM     16  O   UNL     1       3.366   5.907  19.999  0.00  0.00    +0.000 OA
BRANCH  16  17
ATOM     17  C   UNL     1       2.046   5.358  20.046  0.00  0.00    +0.000 C 
BRANCH  17  18
ATOM     18  C   UNL     1       2.023   4.025  20.781  0.00  0.00    +0.000 C 
BRANCH  18  19
ATOM     19  C   UNL     1       1.062   3.070  20.066  0.00  0.00    +0.000 C 
BRANCH  19  21
ATOM     20  C   UNL     1       2.485   2.130  18.222  0.00  0.00    +0.000 C 
ATOM     21  C   UNL     1       1.306   3.028  18.563  0.00  0.00    +0.000 C 
ENDBRANCH  19  21
ENDBRANCH  18  19
ENDBRANCH  17  18
ENDBRANCH  16  17
ENDBRANCH   1  16
TORSDOF 9
ENDMDL
MODEL 4
REMARK VINA RESULT:      -6.0      1.076      1.517
REMARK  Name = 
REMARK  10 active torsions:
REMARK  status: ('A' for Active; 'I' for Inactive)
REMARK    1  A    between atoms: C_1  and  C_2
REMARK    2  A    between atoms: C_2  and  C_3
REMARK    3  A    between atoms: C_3  and  C_4
REMARK    4  A    between atoms: C_4  and  C_5
REMARK    5  A    between atoms: C_5  and  O_6
REMARK    6  A    between atoms: O_6  and  C_7
REMARK    7  A    between atoms: C_10  and  C_11
REMARK    8  A    between atoms: N_12  and  N_13
REMARK    9  A    between atoms: N_13  and  C_14
REMARK   10  A    between atoms: C_14  and  N_15
REMARK                            x       y       z     vdW  Elec       q    Type
REMARK                         _______ _______ _______ _____ _____    ______ ____
ROOT
ATOM      1  C   UNL     1       5.137   5.496  18.418  0.00  0.00    +0.000 A 
ATOM      2  C   UNL     1       6.012   4.468  18.053  0.00  0.00    +0.000 A 
ATOM      3  C   UNL     1       6.317   4.239  16.716  0.00  0.00    +0.000 A 
ATOM      4  C   UNL     1       5.748   5.034  15.720  0.00  0.00    +0.000 A 
ATOM      5  C   UNL     1       4.876   6.069  16.067  0.00  0.00    +0.000 A 
ATOM      6  C   UNL     1       4.572   6.294  17.419  0.00  0.00    +0.000 A 
ENDROOT
BRANCH   4   7
ATOM      7  C   UNL     1       6.080   4.758  14.309  0.00  0.00    +0.000 C 
ATOM      8  N   UNL     1       6.172   3.538  13.880  0.00  0.00    +0.000 NA
BRANCH   8   9
ATOM      9  N   UNL     1       6.477   3.389  12.564  0.00  0.00    +0.000 N 
ATOM     10  H   UNL     1       7.301   3.831  12.169  0.00  0.00    +0.000 HD
BRANCH   9  11
ATOM     11  C   UNL     1       5.683   2.641  11.738  0.00  0.00    +0.000 C 
ATOM     12  S   UNL     1       4.216   3.183  11.187  0.00  0.00    +0.000 S 
BRANCH  11  13
ATOM     13  N   UNL     1       6.172   1.425  11.397  0.00  0.00    +0.000 N 
ATOM     14  H   UNL     1       7.146   1.243  11.613  0.00  0.00    +0.000 HD
ATOM     15  H   UNL     1       5.594   0.722  10.963  0.00  0.00    +0.000 HD
ENDBRANCH  11  13
ENDBRANCH   9  11
ENDBRANCH   8   9
ENDBRANCH   4   7
BRANCH   1  16
ATOM     16  O   UNL     1       4.776   5.792  19.712  0.00  0.00    +0.000 OA
BRANCH  16  17
ATOM     17  C   UNL     1       3.367   5.741  19.956  0.00  0.00    +0.000 C 
BRANCH  17  18
ATOM     18  C   UNL     1       2.871   4.305  20.061  0.00  0.00    +0.000 C 
BRANCH  18  19
ATOM     19  C   UNL     1       1.496   4.196  19.394  0.00  0.00    +0.000 C 
BRANCH  19  21
ATOM     20  C   UNL     1       2.564   3.076  17.414  0.00  0.00    +0.000 C 
ATOM     21  C   UNL     1       1.597   4.156  17.874  0.00  0.00    +0.000 C 
ENDBRANCH  19  21
ENDBRANCH  18  19
ENDBRANCH  17  18
ENDBRANCH  16  17
ENDBRANCH   1  16
TORSDOF 9
ENDMDL
MODEL 5
REMARK VINA RESULT:      -5.9      1.157      1.164
REMARK  Name = 
REMARK  10 active torsions:
REMARK  status: ('A' for Active; 'I' for Inactive)
REMARK    1  A    between atoms: C_1  and  C_2
REMARK    2  A    between atoms: C_2  and  C_3
REMARK    3  A    between atoms: C_3  and  C_4
REMARK    4  A    between atoms: C_4  and  C_5
REMARK    5  A    between atoms: C_5  and  O_6
REMARK    6  A    between atoms: O_6  and  C_7
REMARK    7  A    between atoms: C_10  and  C_11
REMARK    8  A    between atoms: N_12  and  N_13
REMARK    9  A    between atoms: N_13  and  C_14
REMARK   10  A    between atoms: C_14  and  N_15
REMARK                            x       y       z     vdW  Elec       q    Type
REMARK                         _______ _______ _______ _____ _____    ______ ____
ROOT
ATOM      1  C   UNL     1       4.757   5.269  18.585  0.00  0.00    +0.000 A 
ATOM      2  C   UNL     1       5.925   5.816  18.043  0.00  0.00    +0.000 A 
ATOM      3  C   UNL     1       6.431   5.349  16.835  0.00  0.00    +0.000 A 
ATOM      4  C   UNL     1       5.779   4.323  16.150  0.00  0.00    +0.000 A 
ATOM      5  C   UNL     1       4.608   3.769  16.674  0.00  0.00    +0.000 A 
ATOM      6  C   UNL     1       4.103   4.245  17.894  0.00  0.00    +0.000 A 
ENDROOT
BRANCH   4   7
ATOM      7  C   UNL     1       6.347   3.838  14.877  0.00  0.00    +0.000 C 
ATOM      8  N   UNL     1       5.656   3.899  13.782  0.00  0.00    +0.000 NA
BRANCH   8   9
ATOM      9  N   UNL     1       6.268   3.432  12.663  0.00  0.00    +0.000 N 
ATOM     10  H   UNL     1       7.233   3.672  12.460  0.00  0.00    +0.000 HD
BRANCH   9  11
ATOM     11  C   UNL     1       5.602   2.627  11.779  0.00  0.00    +0.000 C 
ATOM     12  S   UNL     1       6.260   1.230  11.178  0.00  0.00    +0.000 S 
BRANCH  11  13
ATOM     13  N   UNL     1       4.363   3.046  11.424  0.00  0.00    +0.000 N 
ATOM     14  H   UNL     1       3.589   2.732  11.998  0.00  0.00    +0.000 HD
ATOM     15  H   UNL     1       4.214   3.656  10.635  0.00  0.00    +0.000 HD
ENDBRANCH  11  13
ENDBRANCH   9  11
ENDBRANCH   8   9
ENDBRANCH   4   7
BRANCH   1  16
ATOM     16  O   UNL     1       4.188   5.666  19.772  0.00  0.00    +0.000 OA
BRANCH  16  17
ATOM     17  C   UNL     1       2.762   5.770  19.734  0.00  0.00    +0.000 C 
BRANCH  17  18
ATOM     18  C   UNL     1       2.115   4.980  20.864  0.00  0.00    +0.000 C 
BRANCH  18  19
ATOM     19  C   UNL     1       0.919   4.197  20.314  0.00  0.00    +0.000 C 
BRANCH  19  21
ATOM     20  C   UNL     1       0.974   2.289  18.680  0.00  0.00    +0.000 C 
ATOM     21  C   UNL     1       1.243   2.722  20.113  0.00  0.00    +0.000 C 
ENDBRANCH  19  21
ENDBRANCH  18  19
ENDBRANCH  17  18
ENDBRANCH  16  17
ENDBRANCH   1  16
TORSDOF 9
ENDMDL
MODEL 6
REMARK VINA RESULT:      -5.9      4.129      6.932
REMARK  Name = 
REMARK  10 active torsions:
REMARK  status: ('A' for Active; 'I' for Inactive)
REMARK    1  A    between atoms: C_1  and  C_2
REMARK    2  A    between atoms: C_2  and  C_3
REMARK    3  A    between atoms: C_3  and  C_4
REMARK    4  A    between atoms: C_4  and  C_5
REMARK    5  A    between atoms: C_5  and  O_6
REMARK    6  A    between atoms: O_6  and  C_7
REMARK    7  A    between atoms: C_10  and  C_11
REMARK    8  A    between atoms: N_12  and  N_13
REMARK    9  A    between atoms: N_13  and  C_14
REMARK   10  A    between atoms: C_14  and  N_15
REMARK                            x       y       z     vdW  Elec       q    Type
REMARK                         _______ _______ _______ _____ _____    ______ ____
ROOT
ATOM      1  C   UNL     1       6.790   5.358  15.814  0.00  0.00    +0.000 A 
ATOM      2  C   UNL     1       5.470   5.822  15.794  0.00  0.00    +0.000 A 
ATOM      3  C   UNL     1       4.634   5.625  16.886  0.00  0.00    +0.000 A 
ATOM      4  C   UNL     1       5.102   4.957  18.018  0.00  0.00    +0.000 A 
ATOM      5  C   UNL     1       6.418   4.491  18.058  0.00  0.00    +0.000 A 
ATOM      6  C   UNL     1       7.258   4.693  16.952  0.00  0.00    +0.000 A 
ENDROOT
BRANCH   4   7
ATOM      7  C   UNL     1       4.186   4.751  19.157  0.00  0.00    +0.000 C 
ATOM      8  N   UNL     1       3.771   3.560  19.460  0.00  0.00    +0.000 NA
BRANCH   8   9
ATOM      9  N   UNL     1       2.934   3.474  20.528  0.00  0.00    +0.000 N 
ATOM     10  H   UNL     1       3.226   3.798  21.444  0.00  0.00    +0.000 HD
BRANCH   9  11
ATOM     11  C   UNL     1       1.678   2.946  20.397  0.00  0.00    +0.000 C 
ATOM     12  S   UNL     1       1.053   2.494  18.929  0.00  0.00    +0.000 S 
BRANCH  11  13
ATOM     13  N   UNL     1       0.974   2.816  21.547  0.00  0.00    +0.000 N 
ATOM     14  H   UNL     1       1.239   2.059  22.166  0.00  0.00    +0.000 HD
ATOM     15  H   UNL     1       0.229   3.451  21.789  0.00  0.00    +0.000 HD
ENDBRANCH  11  13
ENDBRANCH   9  11
ENDBRANCH   8   9
ENDBRANCH   4   7
BRANCH   1  16
ATOM     16  O   UNL     1       7.685   5.505  14.781  0.00  0.00    +0.000 OA
BRANCH  16  17
ATOM     17  C   UNL     1       7.189   5.079  13.508  0.00  0.00    +0.000 C 
BRANCH  17  18
ATOM     18  C   UNL     1       6.548   3.700  13.594  0.00  0.00    +0.000 C 
BRANCH  18  19
ATOM     19  C   UNL     1       5.155   3.750  12.958  0.00  0.00    +0.000 C 
BRANCH  19  21
ATOM     20  C   UNL     1       3.766   3.229  10.930  0.00  0.00    +0.000 C 
ATOM     21  C   UNL     1       5.114   3.041  11.609  0.00  0.00    +0.000 C 
ENDBRANCH  19  21
ENDBRANCH  18  19
ENDBRANCH  17  18
ENDBRANCH  16  17
ENDBRANCH   1  16
TORSDOF 9
ENDMDL
MODEL 7
REMARK VINA RESULT:      -5.8      5.341      7.582
REMARK  Name = 
REMARK  10 active torsions:
REMARK  status: ('A' for Active; 'I' for Inactive)
REMARK    1  A    between atoms: C_1  and  C_2
REMARK    2  A    between atoms: C_2  and  C_3
REMARK    3  A    between atoms: C_3  and  C_4
REMARK    4  A    between atoms: C_4  and  C_5
REMARK    5  A    between atoms: C_5  and  O_6
REMARK    6  A    between atoms: O_6  and  C_7
REMARK    7  A    between atoms: C_10  and  C_11
REMARK    8  A    between atoms: N_12  and  N_13
REMARK    9  A    between atoms: N_13  and  C_14
REMARK   10  A    between atoms: C_14  and  N_15
REMARK                            x       y       z     vdW  Elec       q    Type
REMARK                         _______ _______ _______ _____ _____    ______ ____
ROOT
ATOM      1  C   UNL     1       6.904   7.135  17.612  0.00  0.00    +0.000 A 
ATOM      2  C   UNL     1       5.632   6.826  17.120  0.00  0.00    +0.000 A 
ATOM      3  C   UNL     1       4.953   5.699  17.569  0.00  0.00    +0.000 A 
ATOM      4  C   UNL     1       5.537   4.859  18.518  0.00  0.00    +0.000 A 
ATOM      5  C   UNL     1       6.805   5.155  19.025  0.00  0.00    +0.000 A 
ATOM      6  C   UNL     1       7.485   6.294  18.567  0.00  0.00    +0.000 A 
ENDROOT
BRANCH   4   7
ATOM      7  C   UNL     1       4.798   3.663  18.966  0.00  0.00    +0.000 C 
ATOM      8  N   UNL     1       3.692   3.316  18.384  0.00  0.00    +0.000 NA
BRANCH   8   9
ATOM      9  N   UNL     1       3.089   2.198  18.866  0.00  0.00    +0.000 N 
ATOM     10  H   UNL     1       3.547   1.294  18.807  0.00  0.00    +0.000 HD
BRANCH   9  11
ATOM     11  C   UNL     1       1.849   2.260  19.442  0.00  0.00    +0.000 C 
ATOM     12  S   UNL     1       1.622   2.742  21.012  0.00  0.00    +0.000 S 
BRANCH  11  13
ATOM     13  N   UNL     1       0.814   1.899  18.646  0.00  0.00    +0.000 N 
ATOM     14  H   UNL     1       0.518   0.931  18.685  0.00  0.00    +0.000 HD
ATOM     15  H   UNL     1       0.346   2.564  18.049  0.00  0.00    +0.000 HD
ENDBRANCH  11  13
ENDBRANCH   9  11
ENDBRANCH   8   9
ENDBRANCH   4   7
BRANCH   1  16
ATOM     16  O   UNL     1       7.649   8.224  17.223  0.00  0.00    +0.000 OA
BRANCH  16  17
ATOM     17  C   UNL     1       8.500   8.749  18.247  0.00  0.00    +0.000 C 
BRANCH  17  18
ATOM     18  C   UNL     1       8.749  10.239  18.053  0.00  0.00    +0.000 C 
BRANCH  18  19
ATOM     19  C   UNL     1       9.653  10.750  19.179  0.00  0.00    +0.000 C 
BRANCH  19  21
ATOM     20  C   UNL     1      11.820  11.885  19.754  0.00  0.00    +0.000 C 
ATOM     21  C   UNL     1      10.826  11.565  18.648  0.00  0.00    +0.000 C 
ENDBRANCH  19  21
ENDBRANCH  18  19
ENDBRANCH  17  18
ENDBRANCH  16  17
ENDBRANCH   1  16
TORSDOF 9
ENDMDL
MODEL 8
REMARK VINA RESULT:      -5.8      0.965      1.492
REMARK  Name = 
REMARK  10 active torsions:
REMARK  status: ('A' for Active; 'I' for Inactive)
REMARK    1  A    between atoms: C_1  and  C_2
REMARK    2  A    between atoms: C_2  and  C_3
REMARK    3  A    between atoms: C_3  and  C_4
REMARK    4  A    between atoms: C_4  and  C_5
REMARK    5  A    between atoms: C_5  and  O_6
REMARK    6  A    between atoms: O_6  and  C_7
REMARK    7  A    between atoms: C_10  and  C_11
REMARK    8  A    between atoms: N_12  and  N_13
REMARK    9  A    between atoms: N_13  and  C_14
REMARK   10  A    between atoms: C_14  and  N_15
REMARK                            x       y       z     vdW  Elec       q    Type
REMARK                         _______ _______ _______ _____ _____    ______ ____
ROOT
ATOM      1  C   UNL     1       4.349   5.290  18.541  0.00  0.00    +0.000 A 
ATOM      2  C   UNL     1       4.723   4.028  18.069  0.00  0.00    +0.000 A 
ATOM      3  C   UNL     1       5.195   3.868  16.771  0.00  0.00    +0.000 A 
ATOM      4  C   UNL     1       5.298   4.969  15.921  0.00  0.00    +0.000 A 
ATOM      5  C   UNL     1       4.934   6.239  16.377  0.00  0.00    +0.000 A 
ATOM      6  C   UNL     1       4.458   6.393  17.688  0.00  0.00    +0.000 A 
ENDROOT
BRANCH   4   7
ATOM      7  C   UNL     1       5.790   4.767  14.544  0.00  0.00    +0.000 C 
ATOM      8  N   UNL     1       5.921   3.571  14.061  0.00  0.00    +0.000 NA
BRANCH   8   9
ATOM      9  N   UNL     1       6.376   3.489  12.783  0.00  0.00    +0.000 N 
ATOM     10  H   UNL     1       7.208   3.994  12.495  0.00  0.00    +0.000 HD
BRANCH   9  11
ATOM     11  C   UNL     1       5.725   2.727  11.852  0.00  0.00    +0.000 C 
ATOM     12  S   UNL     1       6.409   1.378  11.172  0.00  0.00    +0.000 S 
BRANCH  11  13
ATOM     13  N   UNL     1       4.481   3.146  11.517  0.00  0.00    +0.000 N 
ATOM     14  H   UNL     1       3.865   3.411  12.277  0.00  0.00    +0.000 HD
ATOM     15  H   UNL     1       4.181   3.207  10.557  0.00  0.00    +0.000 HD
ENDBRANCH  11  13
ENDBRANCH   9  11
ENDBRANCH   8   9
ENDBRANCH   4   7
BRANCH   1  16
ATOM     16  O   UNL     1       3.869   5.541  19.805  0.00  0.00    +0.000 OA
BRANCH  16  17
ATOM     17  C   UNL     1       2.534   6.055  19.836  0.00  0.00    +0.000 C 
BRANCH  17  18
ATOM     18  C   UNL     1       1.509   4.958  19.578  0.00  0.00    +0.000 C 
BRANCH  18  19
ATOM     19  C   UNL     1       1.448   4.028  20.793  0.00  0.00    +0.000 C 
BRANCH  19  21
ATOM     20  C   UNL     1       1.408   2.355  18.919  0.00  0.00    +0.000 C 
ATOM     21  C   UNL     1       1.640   2.566  20.407  0.00  0.00    +0.000 C 
ENDBRANCH  19  21
ENDBRANCH  18  19
ENDBRANCH  17  18
ENDBRANCH  16  17
ENDBRANCH   1  16
TORSDOF 9
ENDMDL
MODEL 9
REMARK VINA RESULT:      -5.8      4.465      7.341
REMARK  Name = 
REMARK  10 active torsions:
REMARK  status: ('A' for Active; 'I' for Inactive)
REMARK    1  A    between atoms: C_1  and  C_2
REMARK    2  A    between atoms: C_2  and  C_3
REMARK    3  A    between atoms: C_3  and  C_4
REMARK    4  A    between atoms: C_4  and  C_5
REMARK    5  A    between atoms: C_5  and  O_6
REMARK    6  A    between atoms: O_6  and  C_7
REMARK    7  A    between atoms: C_10  and  C_11
REMARK    8  A    between atoms: N_12  and  N_13
REMARK    9  A    between atoms: N_13  and  C_14
REMARK   10  A    between atoms: C_14  and  N_15
REMARK                            x       y       z     vdW  Elec       q    Type
REMARK                         _______ _______ _______ _____ _____    ______ ____
ROOT
ATOM      1  C   UNL     1       6.683   4.471  16.052  0.00  0.00    +0.000 A 
ATOM      2  C   UNL     1       7.062   4.861  17.341  0.00  0.00    +0.000 A 
ATOM      3  C   UNL     1       6.177   4.738  18.406  0.00  0.00    +0.000 A 
ATOM      4  C   UNL     1       4.896   4.225  18.200  0.00  0.00    +0.000 A 
ATOM      5  C   UNL     1       4.502   3.826  16.920  0.00  0.00    +0.000 A 
ATOM      6  C   UNL     1       5.400   3.953  15.849  0.00  0.00    +0.000 A 
ENDROOT
BRANCH   4   7
ATOM      7  C   UNL     1       3.975   4.120  19.348  0.00  0.00    +0.000 C 
ATOM      8  N   UNL     1       3.473   5.186  19.890  0.00  0.00    +0.000 NA
BRANCH   8   9
ATOM      9  N   UNL     1       2.632   4.984  20.938  0.00  0.00    +0.000 N 
ATOM     10  H   UNL     1       2.522   5.690  21.659  0.00  0.00    +0.000 HD
BRANCH   9  11
ATOM     11  C   UNL     1       1.912   3.825  21.050  0.00  0.00    +0.000 C 
ATOM     12  S   UNL     1       0.777   3.373  19.930  0.00  0.00    +0.000 S 
BRANCH  11  13
ATOM     13  N   UNL     1       2.187   3.068  22.139  0.00  0.00    +0.000 N 
ATOM     14  H   UNL     1       3.156   2.810  22.288  0.00  0.00    +0.000 HD
ATOM     15  H   UNL     1       1.467   2.783  22.784  0.00  0.00    +0.000 HD
ENDBRANCH  11  13
ENDBRANCH   9  11
ENDBRANCH   8   9
ENDBRANCH   4   7
BRANCH   1  16
ATOM     16  O   UNL     1       7.489   4.559  14.941  0.00  0.00    +0.000 OA
BRANCH  16  17
ATOM     17  C   UNL     1       6.819   5.023  13.765  0.00  0.00    +0.000 C 
BRANCH  17  18
ATOM     18  C   UNL     1       6.933   4.018  12.626  0.00  0.00    +0.000 C 
BRANCH  18  19
ATOM     19  C   UNL     1       5.553   3.416  12.344  0.00  0.00    +0.000 C 
BRANCH  19  21
ATOM     20  C   UNL     1       7.074   1.755  11.229  0.00  0.00    +0.000 C 
ATOM     21  C   UNL     1       5.633   2.201  11.427  0.00  0.00    +0.000 C 
ENDBRANCH  19  21
ENDBRANCH  18  19
ENDBRANCH  17  18
ENDBRANCH  16  17
ENDBRANCH   1  16
TORSDOF 9
ENDMDL
