MODEL 1
REMARK VINA RESULT:      -8.4      0.000      0.000
REMARK  Name = 
REMARK  4 active torsions:
REMARK  status: ('A' for Active; 'I' for Inactive)
REMARK    1  A    between atoms: C_1  and  C_2
REMARK    2  A    between atoms: C_10  and  C_11
REMARK    3  A    between atoms: N_13  and  C_14
REMARK    4  A    between atoms: N_21  and  C_22
REMARK                            x       y       z     vdW  Elec       q    Type
REMARK                         _______ _______ _______ _____ _____    ______ ____
ROOT
ATOM      1  C   UNL     1       6.833   2.854  10.958  0.00  0.00    +0.000 C 
ATOM      2  C   UNL     1       6.507   3.504  12.276  0.00  0.00    +0.000 A 
ATOM      3  C   UNL     1       5.245   3.274  12.855  0.00  0.00    +0.000 A 
ATOM      4  C   UNL     1       4.894   3.847  14.079  0.00  0.00    +0.000 A 
ATOM      5  C   UNL     1       5.839   4.607  14.730  0.00  0.00    +0.000 A 
ATOM      6  C   UNL     1       7.100   4.904  14.151  0.00  0.00    +0.000 A 
ATOM      7  C   UNL     1       7.434   4.350  12.916  0.00  0.00    +0.000 A 
ATOM      8  C   UNL     1       7.951   5.858  15.025  0.00  0.00    +0.000 C 
ATOM      9  C   UNL     1       6.995   5.976  16.174  0.00  0.00    +0.000 A 
ATOM     10  C   UNL     1       6.861   6.597  17.435  0.00  0.00    +0.000 A 
ATOM     11  N   UNL     1       5.688   6.236  18.010  0.00  0.00    +0.000 NA
ATOM     12  N   UNL     1       5.088   5.376  17.131  0.00  0.00    +0.000 N 
ATOM     13  C   UNL     1       5.843   5.257  16.005  0.00  0.00    +0.000 A 
ENDROOT
BRANCH  12  14
ATOM     14  C   UNL     1       3.939   4.636  17.503  0.00  0.00    +0.000 A 
ATOM     15  C   UNL     1       4.011   3.230  17.485  0.00  0.00    +0.000 A 
ATOM     16  C   UNL     1       2.908   2.455  17.841  0.00  0.00    +0.000 A 
ATOM     17  C   UNL     1       1.740   3.080  18.259  0.00  0.00    +0.000 A 
ATOM     18 CL   UNL     1       0.389   2.126  18.730  0.00  0.00    +0.000 Cl
ATOM     19  C   UNL     1       1.659   4.471  18.304  0.00  0.00    +0.000 A 
ATOM     20  C   UNL     1       2.753   5.257  17.921  0.00  0.00    +0.000 A 
ATOM     21 CL   UNL     1       2.485   6.966  17.884  0.00  0.00    +0.000 Cl
ENDBRANCH  12  14
BRANCH  10  22
ATOM     22  C   UNL     1       7.810   7.503  18.118  0.00  0.00    +0.000 C 
ATOM     23  O   UNL     1       8.543   7.079  19.005  0.00  0.00    +0.000 OA
ATOM     24  N   UNL     1       7.722   8.821  17.680  0.00  0.00    +0.000 N 
ATOM     25  H   UNL     1       6.992   8.984  16.991  0.00  0.00    +0.000 HD
BRANCH  24  26
ATOM     26  C   UNL     1       8.444   9.938  18.167  0.00  0.00    +0.000 A 
ATOM     27  C   UNL     1       9.282   9.877  19.282  0.00  0.00    +0.000 A 
ATOM     28  C   UNL     1       9.928  11.024  19.764  0.00  0.00    +0.000 A 
ATOM     29  C   UNL     1       9.747  12.249  19.129  0.00  0.00    +0.000 A 
ATOM     30  C   UNL     1       8.945  12.320  17.993  0.00  0.00    +0.000 A 
ATOM     31  C   UNL     1       8.309  11.167  17.504  0.00  0.00    +0.000 A 
ENDBRANCH  24  26
ENDBRANCH  10  22
TORSDOF 3
ENDMDL
MODEL 2
REMARK VINA RESULT:      -8.3      7.051     10.235
REMARK  Name = 
REMARK  4 active torsions:
REMARK  status: ('A' for Active; 'I' for Inactive)
REMARK    1  A    between atoms: C_1  and  C_2
REMARK    2  A    between atoms: C_10  and  C_11
REMARK    3  A    between atoms: N_13  and  C_14
REMARK    4  A    between atoms: N_21  and  C_22
REMARK                            x       y       z     vdW  Elec       q    Type
REMARK                         _______ _______ _______ _____ _____    ______ ____
ROOT
ATOM      1  C   UNL     1       2.699  16.902  17.703  0.00  0.00    +0.000 C 
ATOM      2  C   UNL     1       2.191  15.613  18.292  0.00  0.00    +0.000 A 
ATOM      3  C   UNL     1       1.224  15.666  19.314  0.00  0.00    +0.000 A 
ATOM      4  C   UNL     1       0.716  14.500  19.890  0.00  0.00    +0.000 A 
ATOM      5  C   UNL     1       1.151  13.292  19.393  0.00  0.00    +0.000 A 
ATOM      6  C   UNL     1       2.163  13.202  18.403  0.00  0.00    +0.000 A 
ATOM      7  C   UNL     1       2.687  14.370  17.851  0.00  0.00    +0.000 A 
ATOM      8  C   UNL     1       2.557  11.740  18.080  0.00  0.00    +0.000 C 
ATOM      9  C   UNL     1       1.573  11.066  18.989  0.00  0.00    +0.000 A 
ATOM     10  C   UNL     1       1.148   9.782  19.393  0.00  0.00    +0.000 A 
ATOM     11  N   UNL     1       0.126   9.885  20.276  0.00  0.00    +0.000 NA
ATOM     12  N   UNL     1      -0.113  11.225  20.419  0.00  0.00    +0.000 N 
ATOM     13  C   UNL     1       0.786  11.940  19.688  0.00  0.00    +0.000 A 
ENDROOT
BRANCH  12  14
ATOM     14  C   UNL     1      -1.259  11.693  21.107  0.00  0.00    +0.000 A 
ATOM     15  C   UNL     1      -1.250  11.676  22.514  0.00  0.00    +0.000 A 
ATOM     16  C   UNL     1      -2.353  12.124  23.241  0.00  0.00    +0.000 A 
ATOM     17  C   UNL     1      -3.454  12.634  22.564  0.00  0.00    +0.000 A 
ATOM     18 CL   UNL     1      -4.803  13.218  23.457  0.00  0.00    +0.000 Cl
ATOM     19  C   UNL     1      -3.470  12.679  21.171  0.00  0.00    +0.000 A 
ATOM     20  C   UNL     1      -2.378  12.205  20.434  0.00  0.00    +0.000 A 
ATOM     21 CL   UNL     1      -2.574  12.182  18.715  0.00  0.00    +0.000 Cl
ENDBRANCH  12  14
BRANCH  10  22
ATOM     22  C   UNL     1       1.666   8.465  18.960  0.00  0.00    +0.000 C 
ATOM     23  O   UNL     1       1.807   8.215  17.768  0.00  0.00    +0.000 OA
ATOM     24  N   UNL     1       1.903   7.594  20.020  0.00  0.00    +0.000 N 
ATOM     25  H   UNL     1       1.645   7.965  20.931  0.00  0.00    +0.000 HD
BRANCH  24  26
ATOM     26  C   UNL     1       2.341   6.249  19.943  0.00  0.00    +0.000 A 
ATOM     27  C   UNL     1       1.616   5.179  20.470  0.00  0.00    +0.000 A 
ATOM     28  C   UNL     1       2.120   3.872  20.424  0.00  0.00    +0.000 A 
ATOM     29  C   UNL     1       3.360   3.619  19.843  0.00  0.00    +0.000 A 
ATOM     30  C   UNL     1       4.079   4.669  19.280  0.00  0.00    +0.000 A 
ATOM     31  C   UNL     1       3.566   5.976  19.314  0.00  0.00    +0.000 A 
ENDBRANCH  24  26
ENDBRANCH  10  22
TORSDOF 3
ENDMDL
MODEL 3
REMARK VINA RESULT:      -8.2      7.973     10.964
REMARK  Name = 
REMARK  4 active torsions:
REMARK  status: ('A' for Active; 'I' for Inactive)
REMARK    1  A    between atoms: C_1  and  C_2
REMARK    2  A    between atoms: C_10  and  C_11
REMARK    3  A    between atoms: N_13  and  C_14
REMARK    4  A    between atoms: N_21  and  C_22
REMARK                            x       y       z     vdW  Elec       q    Type
REMARK                         _______ _______ _______ _____ _____    ______ ____
ROOT
ATOM      1  C   UNL     1      -6.874  11.394  17.952  0.00  0.00    +0.000 C 
ATOM      2  C   UNL     1      -5.426  11.541  18.334  0.00  0.00    +0.000 A 
ATOM      3  C   UNL     1      -5.050  12.593  19.189  0.00  0.00    +0.000 A 
ATOM      4  C   UNL     1      -3.721  12.771  19.578  0.00  0.00    +0.000 A 
ATOM      5  C   UNL     1      -2.793  11.853  19.140  0.00  0.00    +0.000 A 
ATOM      6  C   UNL     1      -3.127  10.814  18.235  0.00  0.00    +0.000 A 
ATOM      7  C   UNL     1      -4.451  10.658  17.828  0.00  0.00    +0.000 A 
ATOM      8  C   UNL     1      -1.898   9.974  17.807  0.00  0.00    +0.000 C 
ATOM      9  C   UNL     1      -0.879  10.671  18.657  0.00  0.00    +0.000 A 
ATOM     10  C   UNL     1       0.497  10.639  18.976  0.00  0.00    +0.000 A 
ATOM     11  N   UNL     1       0.782  11.584  19.904  0.00  0.00    +0.000 NA
ATOM     12  N   UNL     1      -0.405  12.200  20.190  0.00  0.00    +0.000 N 
ATOM     13  C   UNL     1      -1.396  11.691  19.407  0.00  0.00    +0.000 A 
ENDROOT
BRANCH  12  14
ATOM     14  C   UNL     1      -0.518  13.100  21.279  0.00  0.00    +0.000 A 
ATOM     15  C   UNL     1      -0.161  14.446  21.076  0.00  0.00    +0.000 A 
ATOM     16  C   UNL     1      -0.252  15.372  22.115  0.00  0.00    +0.000 A 
ATOM     17  C   UNL     1      -0.742  14.967  23.350  0.00  0.00    +0.000 A 
ATOM     18 CL   UNL     1      -0.885  16.113  24.623  0.00  0.00    +0.000 Cl
ATOM     19  C   UNL     1      -1.120  13.642  23.561  0.00  0.00    +0.000 A 
ATOM     20  C   UNL     1      -1.006  12.700  22.531  0.00  0.00    +0.000 A 
ATOM     21 CL   UNL     1      -1.372  11.063  22.955  0.00  0.00    +0.000 Cl
ENDBRANCH  12  14
BRANCH  10  22
ATOM     22  C   UNL     1       1.542   9.737  18.445  0.00  0.00    +0.000 C 
ATOM     23  O   UNL     1       2.173  10.043  17.439  0.00  0.00    +0.000 OA
ATOM     24  N   UNL     1       1.662   8.552  19.166  0.00  0.00    +0.000 N 
ATOM     25  H   UNL     1       0.990   8.454  19.921  0.00  0.00    +0.000 HD
BRANCH  24  26
ATOM     26  C   UNL     1       2.521   7.461  18.886  0.00  0.00    +0.000 A 
ATOM     27  C   UNL     1       2.643   6.351  19.725  0.00  0.00    +0.000 A 
ATOM     28  C   UNL     1       3.552   5.324  19.437  0.00  0.00    +0.000 A 
ATOM     29  C   UNL     1       4.350   5.394  18.298  0.00  0.00    +0.000 A 
ATOM     30  C   UNL     1       4.215   6.475  17.432  0.00  0.00    +0.000 A 
ATOM     31  C   UNL     1       3.294   7.496  17.715  0.00  0.00    +0.000 A 
ENDBRANCH  24  26
ENDBRANCH  10  22
TORSDOF 3
ENDMDL
MODEL 4
REMARK VINA RESULT:      -8.0      3.587      7.146
REMARK  Name = 
REMARK  4 active torsions:
REMARK  status: ('A' for Active; 'I' for Inactive)
REMARK    1  A    between atoms: C_1  and  C_2
REMARK    2  A    between atoms: C_10  and  C_11
REMARK    3  A    between atoms: N_13  and  C_14
REMARK    4  A    between atoms: N_21  and  C_22
REMARK                            x       y       z     vdW  Elec       q    Type
REMARK                         _______ _______ _______ _____ _____    ______ ____
ROOT
ATOM      1  C   UNL     1      -0.341  11.235  20.240  0.00  0.00    +0.000 C 
ATOM      2  C   UNL     1       0.510  10.028  19.950  0.00  0.00    +0.000 A 
ATOM      3  C   UNL     1       0.444   8.923  20.821  0.00  0.00    +0.000 A 
ATOM      4  C   UNL     1       1.208   7.777  20.594  0.00  0.00    +0.000 A 
ATOM      5  C   UNL     1       1.992   7.737  19.464  0.00  0.00    +0.000 A 
ATOM      6  C   UNL     1       2.124   8.851  18.596  0.00  0.00    +0.000 A 
ATOM      7  C   UNL     1       1.379  10.004  18.842  0.00  0.00    +0.000 A 
ATOM      8  C   UNL     1       3.139   8.603  17.453  0.00  0.00    +0.000 C 
ATOM      9  C   UNL     1       3.481   7.185  17.798  0.00  0.00    +0.000 A 
ATOM     10  C   UNL     1       4.283   6.108  17.361  0.00  0.00    +0.000 A 
ATOM     11  N   UNL     1       4.082   5.026  18.151  0.00  0.00    +0.000 NA
ATOM     12  N   UNL     1       3.143   5.404  19.073  0.00  0.00    +0.000 N 
ATOM     13  C   UNL     1       2.818   6.714  18.898  0.00  0.00    +0.000 A 
ENDROOT
BRANCH  12  14
ATOM     14  C   UNL     1       2.537   4.452  19.930  0.00  0.00    +0.000 A 
ATOM     15  C   UNL     1       2.880   4.464  21.295  0.00  0.00    +0.000 A 
ATOM     16  C   UNL     1       2.312   3.547  22.180  0.00  0.00    +0.000 A 
ATOM     17  C   UNL     1       1.366   2.643  21.714  0.00  0.00    +0.000 A 
ATOM     18 CL   UNL     1       0.641   1.534  22.809  0.00  0.00    +0.000 Cl
ATOM     19  C   UNL     1       0.999   2.634  20.369  0.00  0.00    +0.000 A 
ATOM     20  C   UNL     1       1.585   3.532  19.468  0.00  0.00    +0.000 A 
ATOM     21 CL   UNL     1       1.155   3.329  17.805  0.00  0.00    +0.000 Cl
ENDBRANCH  12  14
BRANCH  10  22
ATOM     22  C   UNL     1       5.217   6.065  16.214  0.00  0.00    +0.000 C 
ATOM     23  O   UNL     1       5.945   7.021  15.971  0.00  0.00    +0.000 OA
ATOM     24  N   UNL     1       5.122   4.890  15.474  0.00  0.00    +0.000 N 
ATOM     25  H   UNL     1       4.398   4.253  15.793  0.00  0.00    +0.000 HD
BRANCH  24  26
ATOM     26  C   UNL     1       5.830   4.562  14.291  0.00  0.00    +0.000 A 
ATOM     27  C   UNL     1       7.082   5.094  13.979  0.00  0.00    +0.000 A 
ATOM     28  C   UNL     1       7.716   4.786  12.767  0.00  0.00    +0.000 A 
ATOM     29  C   UNL     1       7.104   3.934  11.853  0.00  0.00    +0.000 A 
ATOM     30  C   UNL     1       5.872   3.365  12.165  0.00  0.00    +0.000 A 
ATOM     31  C   UNL     1       5.245   3.664  13.385  0.00  0.00    +0.000 A 
ENDBRANCH  24  26
ENDBRANCH  10  22
TORSDOF 3
ENDMDL
MODEL 5
REMARK VINA RESULT:      -8.0      7.039     10.289
REMARK  Name = 
REMARK  4 active torsions:
REMARK  status: ('A' for Active; 'I' for Inactive)
REMARK    1  A    between atoms: C_1  and  C_2
REMARK    2  A    between atoms: C_10  and  C_11
REMARK    3  A    between atoms: N_13  and  C_14
REMARK    4  A    between atoms: N_21  and  C_22
REMARK                            x       y       z     vdW  Elec       q    Type
REMARK                         _______ _______ _______ _____ _____    ______ ____
ROOT
ATOM      1  C   UNL     1       3.014  16.915  17.735  0.00  0.00    +0.000 C 
ATOM      2  C   UNL     1       2.429  15.645  18.291  0.00  0.00    +0.000 A 
ATOM      3  C   UNL     1       1.416  15.732  19.264  0.00  0.00    +0.000 A 
ATOM      4  C   UNL     1       0.835  14.584  19.809  0.00  0.00    +0.000 A 
ATOM      5  C   UNL     1       1.248  13.362  19.328  0.00  0.00    +0.000 A 
ATOM      6  C   UNL     1       2.303  13.237  18.388  0.00  0.00    +0.000 A 
ATOM      7  C   UNL     1       2.898  14.386  17.868  0.00  0.00    +0.000 A 
ATOM      8  C   UNL     1       2.656  11.762  18.077  0.00  0.00    +0.000 C 
ATOM      9  C   UNL     1       1.604  11.124  18.933  0.00  0.00    +0.000 A 
ATOM     10  C   UNL     1       1.110   9.855  19.308  0.00  0.00    +0.000 A 
ATOM     11  N   UNL     1       0.050   9.995  20.141  0.00  0.00    +0.000 NA
ATOM     12  N   UNL     1      -0.144  11.342  20.278  0.00  0.00    +0.000 N 
ATOM     13  C   UNL     1       0.818  12.024  19.597  0.00  0.00    +0.000 A 
ENDROOT
BRANCH  12  14
ATOM     14  C   UNL     1      -1.303  11.852  20.913  0.00  0.00    +0.000 A 
ATOM     15  C   UNL     1      -2.166  12.679  20.170  0.00  0.00    +0.000 A 
ATOM     16  C   UNL     1      -3.320  13.208  20.748  0.00  0.00    +0.000 A 
ATOM     17  C   UNL     1      -3.641  12.877  22.058  0.00  0.00    +0.000 A 
ATOM     18 CL   UNL     1      -5.080  13.501  22.763  0.00  0.00    +0.000 Cl
ATOM     19  C   UNL     1      -2.809  12.040  22.800  0.00  0.00    +0.000 A 
ATOM     20  C   UNL     1      -1.634  11.528  22.237  0.00  0.00    +0.000 A 
ATOM     21 CL   UNL     1      -0.614  10.620  23.299  0.00  0.00    +0.000 Cl
ENDBRANCH  12  14
BRANCH  10  22
ATOM     22  C   UNL     1       1.598   8.521  18.894  0.00  0.00    +0.000 C 
ATOM     23  O   UNL     1       1.674   8.229  17.706  0.00  0.00    +0.000 OA
ATOM     24  N   UNL     1       1.886   7.685  19.969  0.00  0.00    +0.000 N 
ATOM     25  H   UNL     1       1.679   8.088  20.879  0.00  0.00    +0.000 HD
BRANCH  24  26
ATOM     26  C   UNL     1       2.313   6.335  19.916  0.00  0.00    +0.000 A 
ATOM     27  C   UNL     1       3.541   5.944  19.380  0.00  0.00    +0.000 A 
ATOM     28  C   UNL     1       3.894   4.590  19.293  0.00  0.00    +0.000 A 
ATOM     29  C   UNL     1       3.019   3.607  19.749  0.00  0.00    +0.000 A 
ATOM     30  C   UNL     1       1.806   3.982  20.321  0.00  0.00    +0.000 A 
ATOM     31  C   UNL     1       1.461   5.340  20.419  0.00  0.00    +0.000 A 
ENDBRANCH  24  26
ENDBRANCH  10  22
TORSDOF 3
ENDMDL
MODEL 6
REMARK VINA RESULT:      -7.9      7.249     10.179
REMARK  Name = 
REMARK  4 active torsions:
REMARK  status: ('A' for Active; 'I' for Inactive)
REMARK    1  A    between atoms: C_1  and  C_2
REMARK    2  A    between atoms: C_10  and  C_11
REMARK    3  A    between atoms: N_13  and  C_14
REMARK    4  A    between atoms: N_21  and  C_22
REMARK                            x       y       z     vdW  Elec       q    Type
REMARK                         _______ _______ _______ _____ _____    ______ ____
ROOT
ATOM      1  C   UNL     1       2.762  16.969  17.448  0.00  0.00    +0.000 C 
ATOM      2  C   UNL     1       2.086  15.734  17.979  0.00  0.00    +0.000 A 
ATOM      3  C   UNL     1       0.791  15.845  18.519  0.00  0.00    +0.000 A 
ATOM      4  C   UNL     1       0.117  14.729  19.019  0.00  0.00    +0.000 A 
ATOM      5  C   UNL     1       0.738  13.504  18.924  0.00  0.00    +0.000 A 
ATOM      6  C   UNL     1       2.063  13.364  18.436  0.00  0.00    +0.000 A 
ATOM      7  C   UNL     1       2.741  14.487  17.963  0.00  0.00    +0.000 A 
ATOM      8  C   UNL     1       2.582  11.907  18.521  0.00  0.00    +0.000 C 
ATOM      9  C   UNL     1       1.330  11.284  19.061  0.00  0.00    +0.000 A 
ATOM     10  C   UNL     1       0.804  10.035  19.456  0.00  0.00    +0.000 A 
ATOM     11  N   UNL     1      -0.488  10.173  19.840  0.00  0.00    +0.000 NA
ATOM     12  N   UNL     1      -0.790  11.497  19.671  0.00  0.00    +0.000 N 
ATOM     13  C   UNL     1       0.312  12.178  19.253  0.00  0.00    +0.000 A 
ENDROOT
BRANCH  12  14
ATOM     14  C   UNL     1      -2.125  11.960  19.775  0.00  0.00    +0.000 A 
ATOM     15  C   UNL     1      -3.040  11.603  18.767  0.00  0.00    +0.000 A 
ATOM     16  C   UNL     1      -4.365  12.035  18.821  0.00  0.00    +0.000 A 
ATOM     17  C   UNL     1      -4.794  12.789  19.906  0.00  0.00    +0.000 A 
ATOM     18 CL   UNL     1      -6.435  13.295  19.992  0.00  0.00    +0.000 Cl
ATOM     19  C   UNL     1      -3.906  13.132  20.924  0.00  0.00    +0.000 A 
ATOM     20  C   UNL     1      -2.567  12.727  20.863  0.00  0.00    +0.000 A 
ATOM     21 CL   UNL     1      -1.532  13.333  22.110  0.00  0.00    +0.000 Cl
ENDBRANCH  12  14
BRANCH  10  22
ATOM     22  C   UNL     1       1.477   8.717  19.467  0.00  0.00    +0.000 C 
ATOM     23  O   UNL     1       1.612   8.098  20.517  0.00  0.00    +0.000 OA
ATOM     24  N   UNL     1       1.948   8.332  18.216  0.00  0.00    +0.000 N 
ATOM     25  H   UNL     1       1.806   9.024  17.485  0.00  0.00    +0.000 HD
BRANCH  24  26
ATOM     26  C   UNL     1       2.682   7.162  17.898  0.00  0.00    +0.000 A 
ATOM     27  C   UNL     1       2.179   5.873  18.079  0.00  0.00    +0.000 A 
ATOM     28  C   UNL     1       2.967   4.745  17.808  0.00  0.00    +0.000 A 
ATOM     29  C   UNL     1       4.271   4.896  17.344  0.00  0.00    +0.000 A 
ATOM     30  C   UNL     1       4.775   6.175  17.123  0.00  0.00    +0.000 A 
ATOM     31  C   UNL     1       3.980   7.303  17.382  0.00  0.00    +0.000 A 
ENDBRANCH  24  26
ENDBRANCH  10  22
TORSDOF 3
ENDMDL
MODEL 7
REMARK VINA RESULT:      -7.9      7.963     10.993
REMARK  Name = 
REMARK  4 active torsions:
REMARK  status: ('A' for Active; 'I' for Inactive)
REMARK    1  A    between atoms: C_1  and  C_2
REMARK    2  A    between atoms: C_10  and  C_11
REMARK    3  A    between atoms: N_13  and  C_14
REMARK    4  A    between atoms: N_21  and  C_22
REMARK                            x       y       z     vdW  Elec       q    Type
REMARK                         _______ _______ _______ _____ _____    ______ ____
ROOT
ATOM      1  C   UNL     1      -6.957  11.269  18.071  0.00  0.00    +0.000 C 
ATOM      2  C   UNL     1      -5.502  11.436  18.414  0.00  0.00    +0.000 A 
ATOM      3  C   UNL     1      -5.121  12.482  19.276  0.00  0.00    +0.000 A 
ATOM      4  C   UNL     1      -3.784  12.678  19.631  0.00  0.00    +0.000 A 
ATOM      5  C   UNL     1      -2.853  11.784  19.152  0.00  0.00    +0.000 A 
ATOM      6  C   UNL     1      -3.193  10.753  18.239  0.00  0.00    +0.000 A 
ATOM      7  C   UNL     1      -4.526  10.580  17.867  0.00  0.00    +0.000 A 
ATOM      8  C   UNL     1      -1.962   9.943  17.764  0.00  0.00    +0.000 C 
ATOM      9  C   UNL     1      -0.932  10.645  18.597  0.00  0.00    +0.000 A 
ATOM     10  C   UNL     1       0.452  10.634  18.876  0.00  0.00    +0.000 A 
ATOM     11  N   UNL     1       0.747  11.569  19.811  0.00  0.00    +0.000 NA
ATOM     12  N   UNL     1      -0.444  12.159  20.141  0.00  0.00    +0.000 N 
ATOM     13  C   UNL     1      -1.447  11.644  19.377  0.00  0.00    +0.000 A 
ENDROOT
BRANCH  12  14
ATOM     14  C   UNL     1      -0.541  13.039  21.246  0.00  0.00    +0.000 A 
ATOM     15  C   UNL     1      -1.225  12.601  22.395  0.00  0.00    +0.000 A 
ATOM     16  C   UNL     1      -1.351  13.429  23.510  0.00  0.00    +0.000 A 
ATOM     17  C   UNL     1      -0.755  14.684  23.499  0.00  0.00    +0.000 A 
ATOM     18 CL   UNL     1      -0.881  15.695  24.884  0.00  0.00    +0.000 Cl
ATOM     19  C   UNL     1      -0.055  15.125  22.377  0.00  0.00    +0.000 A 
ATOM     20  C   UNL     1       0.052  14.310  21.243  0.00  0.00    +0.000 A 
ATOM     21 CL   UNL     1       0.821  15.021  19.866  0.00  0.00    +0.000 Cl
ENDBRANCH  12  14
BRANCH  10  22
ATOM     22  C   UNL     1       1.498   9.759  18.301  0.00  0.00    +0.000 C 
ATOM     23  O   UNL     1       2.118  10.108  17.303  0.00  0.00    +0.000 OA
ATOM     24  N   UNL     1       1.632   8.549  18.975  0.00  0.00    +0.000 N 
ATOM     25  H   UNL     1       0.966   8.417  19.732  0.00  0.00    +0.000 HD
BRANCH  24  26
ATOM     26  C   UNL     1       2.495   7.475  18.646  0.00  0.00    +0.000 A 
ATOM     27  C   UNL     1       3.521   7.580  17.706  0.00  0.00    +0.000 A 
ATOM     28  C   UNL     1       4.310   6.472  17.369  0.00  0.00    +0.000 A 
ATOM     29  C   UNL     1       4.083   5.240  17.977  0.00  0.00    +0.000 A 
ATOM     30  C   UNL     1       3.089   5.126  18.944  0.00  0.00    +0.000 A 
ATOM     31  C   UNL     1       2.308   6.241  19.290  0.00  0.00    +0.000 A 
ENDBRANCH  24  26
ENDBRANCH  10  22
TORSDOF 3
ENDMDL
MODEL 8
REMARK VINA RESULT:      -7.7      7.284     10.249
REMARK  Name = 
REMARK  4 active torsions:
REMARK  status: ('A' for Active; 'I' for Inactive)
REMARK    1  A    between atoms: C_1  and  C_2
REMARK    2  A    between atoms: C_10  and  C_11
REMARK    3  A    between atoms: N_13  and  C_14
REMARK    4  A    between atoms: N_21  and  C_22
REMARK                            x       y       z     vdW  Elec       q    Type
REMARK                         _______ _______ _______ _____ _____    ______ ____
ROOT
ATOM      1  C   UNL     1       3.043  16.823  17.262  0.00  0.00    +0.000 C 
ATOM      2  C   UNL     1       2.365  15.649  17.914  0.00  0.00    +0.000 A 
ATOM      3  C   UNL     1       1.185  15.867  18.651  0.00  0.00    +0.000 A 
ATOM      4  C   UNL     1       0.513  14.811  19.271  0.00  0.00    +0.000 A 
ATOM      5  C   UNL     1       1.012  13.539  19.099  0.00  0.00    +0.000 A 
ATOM      6  C   UNL     1       2.226  13.290  18.409  0.00  0.00    +0.000 A 
ATOM      7  C   UNL     1       2.907  14.352  17.815  0.00  0.00    +0.000 A 
ATOM      8  C   UNL     1       2.635  11.797  18.435  0.00  0.00    +0.000 C 
ATOM      9  C   UNL     1       1.440  11.280  19.178  0.00  0.00    +0.000 A 
ATOM     10  C   UNL     1       0.886  10.079  19.673  0.00  0.00    +0.000 A 
ATOM     11  N   UNL     1      -0.313  10.323  20.255  0.00  0.00    +0.000 NA
ATOM     12  N   UNL     1      -0.532  11.666  20.114  0.00  0.00    +0.000 N 
ATOM     13  C   UNL     1       0.540  12.254  19.515  0.00  0.00    +0.000 A 
ENDROOT
BRANCH  12  14
ATOM     14  C   UNL     1      -1.791  12.237  20.421  0.00  0.00    +0.000 A 
ATOM     15  C   UNL     1      -2.845  12.071  19.503  0.00  0.00    +0.000 A 
ATOM     16  C   UNL     1      -4.104  12.614  19.757  0.00  0.00    +0.000 A 
ATOM     17  C   UNL     1      -4.329  13.289  20.950  0.00  0.00    +0.000 A 
ATOM     18 CL   UNL     1      -5.889  13.932  21.280  0.00  0.00    +0.000 Cl
ATOM     19  C   UNL     1      -3.303  13.442  21.880  0.00  0.00    +0.000 A 
ATOM     20  C   UNL     1      -2.028  12.924  21.621  0.00  0.00    +0.000 A 
ATOM     21 CL   UNL     1      -0.803  13.301  22.783  0.00  0.00    +0.000 Cl
ENDBRANCH  12  14
BRANCH  10  22
ATOM     22  C   UNL     1       1.445   8.711  19.599  0.00  0.00    +0.000 C 
ATOM     23  O   UNL     1       1.373   7.958  20.564  0.00  0.00    +0.000 OA
ATOM     24  N   UNL     1       2.066   8.437  18.384  0.00  0.00    +0.000 N 
ATOM     25  H   UNL     1       2.089   9.223  17.740  0.00  0.00    +0.000 HD
BRANCH  24  26
ATOM     26  C   UNL     1       2.745   7.250  18.016  0.00  0.00    +0.000 A 
ATOM     27  C   UNL     1       4.013   7.246  17.431  0.00  0.00    +0.000 A 
ATOM     28  C   UNL     1       4.620   6.049  17.028  0.00  0.00    +0.000 A 
ATOM     29  C   UNL     1       3.964   4.834  17.210  0.00  0.00    +0.000 A 
ATOM     30  C   UNL     1       2.715   4.817  17.825  0.00  0.00    +0.000 A 
ATOM     31  C   UNL     1       2.115   6.016  18.241  0.00  0.00    +0.000 A 
ENDBRANCH  24  26
ENDBRANCH  10  22
TORSDOF 3
ENDMDL
MODEL 9
REMARK VINA RESULT:      -7.6      7.000     10.215
REMARK  Name = 
REMARK  4 active torsions:
REMARK  status: ('A' for Active; 'I' for Inactive)
REMARK    1  A    between atoms: C_1  and  C_2
REMARK    2  A    between atoms: C_10  and  C_11
REMARK    3  A    between atoms: N_13  and  C_14
REMARK    4  A    between atoms: N_21  and  C_22
REMARK                            x       y       z     vdW  Elec       q    Type
REMARK                         _______ _______ _______ _____ _____    ______ ____
ROOT
ATOM      1  C   UNL     1       3.163  17.296  18.869  0.00  0.00    +0.000 C 
ATOM      2  C   UNL     1       2.584  15.940  19.171  0.00  0.00    +0.000 A 
ATOM      3  C   UNL     1       1.692  15.805  20.251  0.00  0.00    +0.000 A 
ATOM      4  C   UNL     1       1.122  14.571  20.570  0.00  0.00    +0.000 A 
ATOM      5  C   UNL     1       1.419  13.496  19.763  0.00  0.00    +0.000 A 
ATOM      6  C   UNL     1       2.355  13.584  18.700  0.00  0.00    +0.000 A 
ATOM      7  C   UNL     1       2.942  14.814  18.404  0.00  0.00    +0.000 A 
ATOM      8  C   UNL     1       2.601  12.223  18.004  0.00  0.00    +0.000 C 
ATOM      9  C   UNL     1       1.622  11.415  18.801  0.00  0.00    +0.000 A 
ATOM     10  C   UNL     1       1.114  10.103  18.918  0.00  0.00    +0.000 A 
ATOM     11  N   UNL     1       0.161  10.055  19.880  0.00  0.00    +0.000 NA
ATOM     12  N   UNL     1       0.048  11.331  20.360  0.00  0.00    +0.000 N 
ATOM     13  C   UNL     1       0.959  12.141  19.752  0.00  0.00    +0.000 A 
ENDROOT
BRANCH  12  14
ATOM     14  C   UNL     1      -1.007  11.693  21.233  0.00  0.00    +0.000 A 
ATOM     15  C   UNL     1      -0.803  11.570  22.620  0.00  0.00    +0.000 A 
ATOM     16  C   UNL     1      -1.810  11.911  23.523  0.00  0.00    +0.000 A 
ATOM     17  C   UNL     1      -3.012  12.418  23.045  0.00  0.00    +0.000 A 
ATOM     18 CL   UNL     1      -4.244  12.869  24.156  0.00  0.00    +0.000 Cl
ATOM     19  C   UNL     1      -3.222  12.567  21.675  0.00  0.00    +0.000 A 
ATOM     20  C   UNL     1      -2.226  12.200  20.761  0.00  0.00    +0.000 A 
ATOM     21 CL   UNL     1      -2.657  12.297  19.089  0.00  0.00    +0.000 Cl
ENDBRANCH  12  14
BRANCH  10  22
ATOM     22  C   UNL     1       1.487   8.901  18.140  0.00  0.00    +0.000 C 
ATOM     23  O   UNL     1       1.023   8.719  17.019  0.00  0.00    +0.000 OA
ATOM     24  N   UNL     1       2.337   8.042  18.831  0.00  0.00    +0.000 N 
ATOM     25  H   UNL     1       2.543   8.336  19.782  0.00  0.00    +0.000 HD
BRANCH  24  26
ATOM     26  C   UNL     1       2.830   6.788  18.395  0.00  0.00    +0.000 A 
ATOM     27  C   UNL     1       2.261   5.571  18.774  0.00  0.00    +0.000 A 
ATOM     28  C   UNL     1       2.822   4.353  18.366  0.00  0.00    +0.000 A 
ATOM     29  C   UNL     1       3.961   4.339  17.565  0.00  0.00    +0.000 A 
ATOM     30  C   UNL     1       4.519   5.544  17.147  0.00  0.00    +0.000 A 
ATOM     31  C   UNL     1       3.947   6.763  17.546  0.00  0.00    +0.000 A 
ENDBRANCH  24  26
ENDBRANCH  10  22
TORSDOF 3
ENDMDL
