MODEL 1
REMARK VINA RESULT:      -8.3      0.000      0.000
REMARK  Name = 
REMARK  5 active torsions:
REMARK  status: ('A' for Active; 'I' for Inactive)
REMARK    1  A    between atoms: C_1  and  N_2
REMARK    2  A    between atoms: N_2  and  C_3
REMARK    3  A    between atoms: C_3  and  C_4
REMARK    4  A    between atoms: C_9  and  C_11
REMARK    5  A    between atoms: N_17  and  C_18
REMARK                            x       y       z     vdW  Elec       q    Type
REMARK                         _______ _______ _______ _____ _____    ______ ____
ROOT
ATOM      1  C   UNL     1       2.713   7.150  18.805  0.00  0.00    +0.000 A 
ATOM      2  C   UNL     1       2.175   6.710  20.005  0.00  0.00    +0.000 A 
ATOM      3  C   UNL     1       1.359   7.557  20.763  0.00  0.00    +0.000 A 
ATOM      4  C   UNL     1       1.081   8.887  20.373  0.00  0.00    +0.000 A 
ATOM      5  C   UNL     1       1.611   9.320  19.133  0.00  0.00    +0.000 A 
ATOM      6  C   UNL     1       2.348   8.413  18.345  0.00  0.00    +0.000 A 
ATOM      7  N   UNL     1       1.470  10.680  18.723  0.00  0.00    +0.000 N 
ATOM      8  C   UNL     1       2.192  11.251  17.599  0.00  0.00    +0.000 C 
ATOM      9  C   UNL     1       0.844  11.607  19.549  0.00  0.00    +0.000 C 
ATOM     10  O   UNL     1       0.944  12.819  19.355  0.00  0.00    +0.000 OA
ATOM     11  C   UNL     1      -0.087  11.039  20.624  0.00  0.00    +0.000 C 
ATOM     12  C   UNL     1      -0.245  12.087  21.729  0.00  0.00    +0.000 C 
ATOM     13  C   UNL     1      -1.272  11.632  22.740  0.00  0.00    +0.000 C 
ATOM     14  C   UNL     1      -0.943  10.266  23.316  0.00  0.00    +0.000 C 
ATOM     15  C   UNL     1       0.150   9.463  22.608  0.00  0.00    +0.000 C 
ATOM     16  N   UNL     1       0.303   9.728  21.175  0.00  0.00    +0.000 N 
ENDROOT
BRANCH   1  19
ATOM     17  C   UNL     1       4.168   4.180  16.880  0.00  0.00    +0.000 C 
ATOM     18  N   UNL     1       3.224   4.932  17.695  0.00  0.00    +0.000 N 
ATOM     19  C   UNL     1       3.611   6.233  18.045  0.00  0.00    +0.000 C 
ATOM     20  O   UNL     1       4.699   6.693  17.695  0.00  0.00    +0.000 OA
BRANCH  18  21
ATOM     21  C   UNL     1       1.920   4.299  17.922  0.00  0.00    +0.000 C 
BRANCH  21  22
ATOM     22  C   UNL     1       1.838   3.708  19.294  0.00  0.00    +0.000 A 
ATOM     23  C   UNL     1       0.807   3.372  20.152  0.00  0.00    +0.000 A 
ATOM     24  C   UNL     1       1.398   2.712  21.259  0.00  0.00    +0.000 A 
ATOM     25  C   UNL     1       2.753   2.717  21.026  0.00  0.00    +0.000 A 
ATOM     26  O   UNL     1       3.031   3.313  19.838  0.00  0.00    +0.000 OA
ENDBRANCH  21  22
ENDBRANCH  18  21
ENDBRANCH   1  19
TORSDOF 3
ENDMDL
MODEL 2
REMARK VINA RESULT:      -8.2      2.219      7.769
REMARK  Name = 
REMARK  5 active torsions:
REMARK  status: ('A' for Active; 'I' for Inactive)
REMARK    1  A    between atoms: C_1  and  N_2
REMARK    2  A    between atoms: N_2  and  C_3
REMARK    3  A    between atoms: C_3  and  C_4
REMARK    4  A    between atoms: C_9  and  C_11
REMARK    5  A    between atoms: N_17  and  C_18
REMARK                            x       y       z     vdW  Elec       q    Type
REMARK                         _______ _______ _______ _____ _____    ______ ____
ROOT
ATOM      1  C   UNL     1       1.519   8.473  19.844  0.00  0.00    +0.000 A 
ATOM      2  C   UNL     1       2.090   8.971  18.682  0.00  0.00    +0.000 A 
ATOM      3  C   UNL     1       2.841   8.132  17.852  0.00  0.00    +0.000 A 
ATOM      4  C   UNL     1       3.087   6.776  18.169  0.00  0.00    +0.000 A 
ATOM      5  C   UNL     1       2.478   6.268  19.343  0.00  0.00    +0.000 A 
ATOM      6  C   UNL     1       1.646   7.111  20.107  0.00  0.00    +0.000 A 
ATOM      7  N   UNL     1       2.768   4.944  19.790  0.00  0.00    +0.000 N 
ATOM      8  C   UNL     1       2.384   4.446  21.099  0.00  0.00    +0.000 C 
ATOM      9  C   UNL     1       3.677   4.148  19.103  0.00  0.00    +0.000 C 
ATOM     10  O   UNL     1       4.148   3.125  19.602  0.00  0.00    +0.000 OA
ATOM     11  C   UNL     1       3.952   4.532  17.646  0.00  0.00    +0.000 C 
ATOM     12  C   UNL     1       5.302   3.937  17.237  0.00  0.00    +0.000 C 
ATOM     13  C   UNL     1       5.549   4.165  15.763  0.00  0.00    +0.000 C 
ATOM     14  C   UNL     1       5.453   5.631  15.385  0.00  0.00    +0.000 C 
ATOM     15  C   UNL     1       4.856   6.576  16.430  0.00  0.00    +0.000 C 
ATOM     16  N   UNL     1       3.884   5.974  17.346  0.00  0.00    +0.000 N 
ENDROOT
BRANCH   1  19
ATOM     17  C   UNL     1      -0.597  11.362  21.192  0.00  0.00    +0.000 C 
ATOM     18  N   UNL     1       0.189  10.591  20.239  0.00  0.00    +0.000 N 
ATOM     19  C   UNL     1       0.759   9.406  20.725  0.00  0.00    +0.000 C 
ATOM     20  O   UNL     1       0.615   9.062  21.898  0.00  0.00    +0.000 OA
BRANCH  18  21
ATOM     21  C   UNL     1       0.162  11.062  18.849  0.00  0.00    +0.000 C 
BRANCH  21  22
ATOM     22  C   UNL     1      -1.171  10.808  18.218  0.00  0.00    +0.000 A 
ATOM     23  C   UNL     1      -1.858   9.681  17.809  0.00  0.00    +0.000 A 
ATOM     24  C   UNL     1      -3.150  10.113  17.417  0.00  0.00    +0.000 A 
ATOM     25  C   UNL     1      -3.161  11.478  17.578  0.00  0.00    +0.000 A 
ATOM     26  O   UNL     1      -1.970  11.909  18.067  0.00  0.00    +0.000 OA
ENDBRANCH  21  22
ENDBRANCH  18  21
ENDBRANCH   1  19
TORSDOF 3
ENDMDL
MODEL 3
REMARK VINA RESULT:      -8.1      1.781      7.947
REMARK  Name = 
REMARK  5 active torsions:
REMARK  status: ('A' for Active; 'I' for Inactive)
REMARK    1  A    between atoms: C_1  and  N_2
REMARK    2  A    between atoms: N_2  and  C_3
REMARK    3  A    between atoms: C_3  and  C_4
REMARK    4  A    between atoms: C_9  and  C_11
REMARK    5  A    between atoms: N_17  and  C_18
REMARK                            x       y       z     vdW  Elec       q    Type
REMARK                         _______ _______ _______ _____ _____    ______ ____
ROOT
ATOM      1  C   UNL     1       1.672   8.124  20.122  0.00  0.00    +0.000 A 
ATOM      2  C   UNL     1       2.194   8.723  18.985  0.00  0.00    +0.000 A 
ATOM      3  C   UNL     1       2.895   7.960  18.046  0.00  0.00    +0.000 A 
ATOM      4  C   UNL     1       3.140   6.579  18.224  0.00  0.00    +0.000 A 
ATOM      5  C   UNL     1       2.581   5.968  19.373  0.00  0.00    +0.000 A 
ATOM      6  C   UNL     1       1.795   6.742  20.251  0.00  0.00    +0.000 A 
ATOM      7  N   UNL     1       2.876   4.606  19.682  0.00  0.00    +0.000 N 
ATOM      8  C   UNL     1       2.548   3.991  20.956  0.00  0.00    +0.000 C 
ATOM      9  C   UNL     1       3.743   3.871  18.881  0.00  0.00    +0.000 C 
ATOM     10  O   UNL     1       4.225   2.802  19.260  0.00  0.00    +0.000 OA
ATOM     11  C   UNL     1       3.954   4.387  17.455  0.00  0.00    +0.000 C 
ATOM     12  C   UNL     1       5.276   3.824  16.929  0.00  0.00    +0.000 C 
ATOM     13  C   UNL     1       5.457   4.185  15.472  0.00  0.00    +0.000 C 
ATOM     14  C   UNL     1       5.361   5.682  15.237  0.00  0.00    +0.000 C 
ATOM     15  C   UNL     1       4.824   6.529  16.392  0.00  0.00    +0.000 C 
ATOM     16  N   UNL     1       3.888   5.851  17.293  0.00  0.00    +0.000 N 
ENDROOT
BRANCH   1  19
ATOM     17  C   UNL     1      -0.700  10.587  21.837  0.00  0.00    +0.000 C 
ATOM     18  N   UNL     1      -0.037   9.884  20.749  0.00  0.00    +0.000 N 
ATOM     19  C   UNL     1       0.965   8.976  21.120  0.00  0.00    +0.000 C 
ATOM     20  O   UNL     1       1.271   8.811  22.302  0.00  0.00    +0.000 OA
BRANCH  18  21
ATOM     21  C   UNL     1      -0.598  10.091  19.409  0.00  0.00    +0.000 C 
BRANCH  21  22
ATOM     22  C   UNL     1      -0.346  11.485  18.927  0.00  0.00    +0.000 A 
ATOM     23  C   UNL     1      -1.140  12.512  18.451  0.00  0.00    +0.000 A 
ATOM     24  C   UNL     1      -0.296  13.640  18.297  0.00  0.00    +0.000 A 
ATOM     25  C   UNL     1       0.965  13.226  18.655  0.00  0.00    +0.000 A 
ATOM     26  O   UNL     1       0.946  11.924  19.042  0.00  0.00    +0.000 OA
ENDBRANCH  21  22
ENDBRANCH  18  21
ENDBRANCH   1  19
TORSDOF 3
ENDMDL
MODEL 4
REMARK VINA RESULT:      -8.0      3.790      7.910
REMARK  Name = 
REMARK  5 active torsions:
REMARK  status: ('A' for Active; 'I' for Inactive)
REMARK    1  A    between atoms: C_1  and  N_2
REMARK    2  A    between atoms: N_2  and  C_3
REMARK    3  A    between atoms: C_3  and  C_4
REMARK    4  A    between atoms: C_9  and  C_11
REMARK    5  A    between atoms: N_17  and  C_18
REMARK                            x       y       z     vdW  Elec       q    Type
REMARK                         _______ _______ _______ _____ _____    ______ ____
ROOT
ATOM      1  C   UNL     1       4.081   3.032  19.121  0.00  0.00    +0.000 A 
ATOM      2  C   UNL     1       3.657   2.391  17.966  0.00  0.00    +0.000 A 
ATOM      3  C   UNL     1       4.288   2.651  16.745  0.00  0.00    +0.000 A 
ATOM      4  C   UNL     1       5.339   3.589  16.621  0.00  0.00    +0.000 A 
ATOM      5  C   UNL     1       5.786   4.218  17.809  0.00  0.00    +0.000 A 
ATOM      6  C   UNL     1       5.195   3.864  19.039  0.00  0.00    +0.000 A 
ATOM      7  N   UNL     1       6.763   5.257  17.752  0.00  0.00    +0.000 N 
ATOM      8  C   UNL     1       7.083   6.110  18.883  0.00  0.00    +0.000 C 
ATOM      9  C   UNL     1       7.264   5.690  16.530  0.00  0.00    +0.000 C 
ATOM     10  O   UNL     1       7.890   6.746  16.424  0.00  0.00    +0.000 OA
ATOM     11  C   UNL     1       7.119   4.720  15.353  0.00  0.00    +0.000 C 
ATOM     12  C   UNL     1       7.209   5.523  14.053  0.00  0.00    +0.000 C 
ATOM     13  C   UNL     1       7.219   4.592  12.862  0.00  0.00    +0.000 C 
ATOM     14  C   UNL     1       6.023   3.657  12.854  0.00  0.00    +0.000 C 
ATOM     15  C   UNL     1       5.191   3.590  14.137  0.00  0.00    +0.000 C 
ATOM     16  N   UNL     1       5.918   3.865  15.378  0.00  0.00    +0.000 N 
ENDROOT
BRANCH   1  19
ATOM     17  C   UNL     1       1.443   2.817  21.884  0.00  0.00    +0.000 C 
ATOM     18  N   UNL     1       2.058   3.230  20.630  0.00  0.00    +0.000 N 
ATOM     19  C   UNL     1       3.358   2.760  20.396  0.00  0.00    +0.000 C 
ATOM     20  O   UNL     1       3.943   2.061  21.224  0.00  0.00    +0.000 OA
BRANCH  18  21
ATOM     21  C   UNL     1       1.191   3.954  19.694  0.00  0.00    +0.000 C 
BRANCH  21  22
ATOM     22  C   UNL     1       1.767   5.291  19.347  0.00  0.00    +0.000 A 
ATOM     23  C   UNL     1       2.230   5.883  18.188  0.00  0.00    +0.000 A 
ATOM     24  C   UNL     1       2.514   7.235  18.507  0.00  0.00    +0.000 A 
ATOM     25  C   UNL     1       2.240   7.376  19.846  0.00  0.00    +0.000 A 
ATOM     26  O   UNL     1       1.783   6.207  20.365  0.00  0.00    +0.000 OA
ENDBRANCH  21  22
ENDBRANCH  18  21
ENDBRANCH   1  19
TORSDOF 3
ENDMDL
MODEL 5
REMARK VINA RESULT:      -7.9      3.859      7.085
REMARK  Name = 
REMARK  5 active torsions:
REMARK  status: ('A' for Active; 'I' for Inactive)
REMARK    1  A    between atoms: C_1  and  N_2
REMARK    2  A    between atoms: N_2  and  C_3
REMARK    3  A    between atoms: C_3  and  C_4
REMARK    4  A    between atoms: C_9  and  C_11
REMARK    5  A    between atoms: N_17  and  C_18
REMARK                            x       y       z     vdW  Elec       q    Type
REMARK                         _______ _______ _______ _____ _____    ______ ____
ROOT
ATOM      1  C   UNL     1       5.776   4.855  15.848  0.00  0.00    +0.000 A 
ATOM      2  C   UNL     1       5.637   3.545  16.282  0.00  0.00    +0.000 A 
ATOM      3  C   UNL     1       4.672   3.219  17.240  0.00  0.00    +0.000 A 
ATOM      4  C   UNL     1       3.836   4.193  17.833  0.00  0.00    +0.000 A 
ATOM      5  C   UNL     1       3.964   5.524  17.366  0.00  0.00    +0.000 A 
ATOM      6  C   UNL     1       4.878   5.805  16.329  0.00  0.00    +0.000 A 
ATOM      7  N   UNL     1       3.238   6.582  17.991  0.00  0.00    +0.000 N 
ATOM      8  C   UNL     1       3.502   7.987  17.736  0.00  0.00    +0.000 C 
ATOM      9  C   UNL     1       2.423   6.328  19.089  0.00  0.00    +0.000 C 
ATOM     10  O   UNL     1       2.005   7.236  19.808  0.00  0.00    +0.000 OA
ATOM     11  C   UNL     1       1.961   4.880  19.271  0.00  0.00    +0.000 C 
ATOM     12  C   UNL     1       1.563   4.681  20.736  0.00  0.00    +0.000 C 
ATOM     13  C   UNL     1       0.960   3.309  20.934  0.00  0.00    +0.000 C 
ATOM     14  C   UNL     1       1.883   2.203  20.457  0.00  0.00    +0.000 C 
ATOM     15  C   UNL     1       3.089   2.625  19.616  0.00  0.00    +0.000 C 
ATOM     16  N   UNL     1       2.914   3.847  18.826  0.00  0.00    +0.000 N 
ENDROOT
BRANCH   1  19
ATOM     17  C   UNL     1       7.828   5.221  12.639  0.00  0.00    +0.000 C 
ATOM     18  N   UNL     1       6.756   4.769  13.515  0.00  0.00    +0.000 N 
ATOM     19  C   UNL     1       6.842   5.172  14.855  0.00  0.00    +0.000 C 
ATOM     20  O   UNL     1       7.788   5.849  15.259  0.00  0.00    +0.000 OA
BRANCH  18  21
ATOM     21  C   UNL     1       5.637   4.080  12.862  0.00  0.00    +0.000 C 
BRANCH  21  22
ATOM     22  C   UNL     1       6.120   2.949  12.010  0.00  0.00    +0.000 A 
ATOM     23  C   UNL     1       7.355   2.534  11.548  0.00  0.00    +0.000 A 
ATOM     24  C   UNL     1       7.148   1.291  10.897  0.00  0.00    +0.000 A 
ATOM     25  C   UNL     1       5.799   1.041  10.973  0.00  0.00    +0.000 A 
ATOM     26  O   UNL     1       5.167   2.035  11.648  0.00  0.00    +0.000 OA
ENDBRANCH  21  22
ENDBRANCH  18  21
ENDBRANCH   1  19
TORSDOF 3
ENDMDL
MODEL 6
REMARK VINA RESULT:      -7.6      2.576      7.061
REMARK  Name = 
REMARK  5 active torsions:
REMARK  status: ('A' for Active; 'I' for Inactive)
REMARK    1  A    between atoms: C_1  and  N_2
REMARK    2  A    between atoms: N_2  and  C_3
REMARK    3  A    between atoms: C_3  and  C_4
REMARK    4  A    between atoms: C_9  and  C_11
REMARK    5  A    between atoms: N_17  and  C_18
REMARK                            x       y       z     vdW  Elec       q    Type
REMARK                         _______ _______ _______ _____ _____    ______ ____
ROOT
ATOM      1  C   UNL     1       1.582   9.424  19.072  0.00  0.00    +0.000 A 
ATOM      2  C   UNL     1       1.024   8.822  20.190  0.00  0.00    +0.000 A 
ATOM      3  C   UNL     1       1.372   7.511  20.532  0.00  0.00    +0.000 A 
ATOM      4  C   UNL     1       2.257   6.735  19.749  0.00  0.00    +0.000 A 
ATOM      5  C   UNL     1       2.845   7.365  18.624  0.00  0.00    +0.000 A 
ATOM      6  C   UNL     1       2.550   8.719  18.361  0.00  0.00    +0.000 A 
ATOM      7  N   UNL     1       3.659   6.617  17.722  0.00  0.00    +0.000 N 
ATOM      8  C   UNL     1       4.086   7.124  16.429  0.00  0.00    +0.000 C 
ATOM      9  C   UNL     1       3.859   5.255  17.912  0.00  0.00    +0.000 C 
ATOM     10  O   UNL     1       4.320   4.537  17.023  0.00  0.00    +0.000 OA
ATOM     11  C   UNL     1       3.608   4.722  19.326  0.00  0.00    +0.000 C 
ATOM     12  C   UNL     1       3.347   3.217  19.236  0.00  0.00    +0.000 C 
ATOM     13  C   UNL     1       3.240   2.619  20.620  0.00  0.00    +0.000 C 
ATOM     14  C   UNL     1       2.188   3.313  21.464  0.00  0.00    +0.000 C 
ATOM     15  C   UNL     1       1.633   4.634  20.928  0.00  0.00    +0.000 C 
ATOM     16  N   UNL     1       2.548   5.409  20.086  0.00  0.00    +0.000 N 
ENDROOT
BRANCH   1  19
ATOM     17  C   UNL     1      -0.463  12.571  18.327  0.00  0.00    +0.000 C 
ATOM     18  N   UNL     1      -0.193  11.166  18.595  0.00  0.00    +0.000 N 
ATOM     19  C   UNL     1       1.157  10.809  18.717  0.00  0.00    +0.000 C 
ATOM     20  O   UNL     1       2.054  11.642  18.579  0.00  0.00    +0.000 OA
BRANCH  18  21
ATOM     21  C   UNL     1      -1.364  10.322  18.860  0.00  0.00    +0.000 C 
BRANCH  21  22
ATOM     22  C   UNL     1      -2.349  10.397  17.736  0.00  0.00    +0.000 A 
ATOM     23  C   UNL     1      -3.630  10.895  17.593  0.00  0.00    +0.000 A 
ATOM     24  C   UNL     1      -3.959  10.782  16.218  0.00  0.00    +0.000 A 
ATOM     25  C   UNL     1      -2.875  10.191  15.614  0.00  0.00    +0.000 A 
ATOM     26  O   UNL     1      -1.892   9.958  16.522  0.00  0.00    +0.000 OA
ENDBRANCH  21  22
ENDBRANCH  18  21
ENDBRANCH   1  19
TORSDOF 3
ENDMDL
MODEL 7
REMARK VINA RESULT:      -7.6      1.723      2.601
REMARK  Name = 
REMARK  5 active torsions:
REMARK  status: ('A' for Active; 'I' for Inactive)
REMARK    1  A    between atoms: C_1  and  N_2
REMARK    2  A    between atoms: N_2  and  C_3
REMARK    3  A    between atoms: C_3  and  C_4
REMARK    4  A    between atoms: C_9  and  C_11
REMARK    5  A    between atoms: N_17  and  C_18
REMARK                            x       y       z     vdW  Elec       q    Type
REMARK                         _______ _______ _______ _____ _____    ______ ____
ROOT
ATOM      1  C   UNL     1       2.183   8.007  18.507  0.00  0.00    +0.000 A 
ATOM      2  C   UNL     1       1.368   8.612  17.562  0.00  0.00    +0.000 A 
ATOM      3  C   UNL     1       0.468   9.611  17.946  0.00  0.00    +0.000 A 
ATOM      4  C   UNL     1       0.316  10.016  19.292  0.00  0.00    +0.000 A 
ATOM      5  C   UNL     1       1.171   9.413  20.248  0.00  0.00    +0.000 A 
ATOM      6  C   UNL     1       2.136   8.480  19.816  0.00  0.00    +0.000 A 
ATOM      7  N   UNL     1       1.003   9.685  21.639  0.00  0.00    +0.000 N 
ATOM      8  C   UNL     1       1.668   8.925  22.683  0.00  0.00    +0.000 C 
ATOM      9  C   UNL     1      -0.021  10.515  22.079  0.00  0.00    +0.000 C 
ATOM     10  O   UNL     1      -0.359  10.554  23.263  0.00  0.00    +0.000 OA
ATOM     11  C   UNL     1      -0.609  11.477  21.043  0.00  0.00    +0.000 C 
ATOM     12  C   UNL     1      -2.007  11.893  21.509  0.00  0.00    +0.000 C 
ATOM     13  C   UNL     1      -2.570  12.957  20.595  0.00  0.00    +0.000 C 
ATOM     14  C   UNL     1      -2.579  12.517  19.142  0.00  0.00    +0.000 C 
ATOM     15  C   UNL     1      -1.784  11.257  18.797  0.00  0.00    +0.000 C 
ATOM     16  N   UNL     1      -0.628  10.982  19.655  0.00  0.00    +0.000 N 
ENDROOT
BRANCH   1  19
ATOM     17  C   UNL     1       3.684   4.623  17.538  0.00  0.00    +0.000 C 
ATOM     18  N   UNL     1       2.716   5.569  18.073  0.00  0.00    +0.000 N 
ATOM     19  C   UNL     1       3.102   6.917  18.067  0.00  0.00    +0.000 C 
ATOM     20  O   UNL     1       4.208   7.263  17.652  0.00  0.00    +0.000 OA
BRANCH  18  21
ATOM     21  C   UNL     1       1.397   5.023  18.410  0.00  0.00    +0.000 C 
BRANCH  21  22
ATOM     22  C   UNL     1       1.459   4.182  19.647  0.00  0.00    +0.000 A 
ATOM     23  C   UNL     1       1.018   2.918  19.991  0.00  0.00    +0.000 A 
ATOM     24  C   UNL     1       1.526   2.650  21.287  0.00  0.00    +0.000 A 
ATOM     25  C   UNL     1       2.215   3.777  21.668  0.00  0.00    +0.000 A 
ATOM     26  O   UNL     1       2.186   4.709  20.681  0.00  0.00    +0.000 OA
ENDBRANCH  21  22
ENDBRANCH  18  21
ENDBRANCH   1  19
TORSDOF 3
ENDMDL
MODEL 8
REMARK VINA RESULT:      -7.6      1.823      7.976
REMARK  Name = 
REMARK  5 active torsions:
REMARK  status: ('A' for Active; 'I' for Inactive)
REMARK    1  A    between atoms: C_1  and  N_2
REMARK    2  A    between atoms: N_2  and  C_3
REMARK    3  A    between atoms: C_3  and  C_4
REMARK    4  A    between atoms: C_9  and  C_11
REMARK    5  A    between atoms: N_17  and  C_18
REMARK                            x       y       z     vdW  Elec       q    Type
REMARK                         _______ _______ _______ _____ _____    ______ ____
ROOT
ATOM      1  C   UNL     1       1.136   8.195  20.341  0.00  0.00    +0.000 A 
ATOM      2  C   UNL     1       1.637   8.805  19.200  0.00  0.00    +0.000 A 
ATOM      3  C   UNL     1       2.460   8.091  18.323  0.00  0.00    +0.000 A 
ATOM      4  C   UNL     1       2.849   6.755  18.571  0.00  0.00    +0.000 A 
ATOM      5  C   UNL     1       2.312   6.129  19.723  0.00  0.00    +0.000 A 
ATOM      6  C   UNL     1       1.407   6.843  20.535  0.00  0.00    +0.000 A 
ATOM      7  N   UNL     1       2.744   4.823  20.102  0.00  0.00    +0.000 N 
ATOM      8  C   UNL     1       2.432   4.224  21.388  0.00  0.00    +0.000 C 
ATOM      9  C   UNL     1       3.722   4.160  19.370  0.00  0.00    +0.000 C 
ATOM     10  O   UNL     1       4.304   3.169  19.813  0.00  0.00    +0.000 OA
ATOM     11  C   UNL     1       3.936   4.641  17.931  0.00  0.00    +0.000 C 
ATOM     12  C   UNL     1       5.336   4.212  17.482  0.00  0.00    +0.000 C 
ATOM     13  C   UNL     1       5.539   4.535  16.019  0.00  0.00    +0.000 C 
ATOM     14  C   UNL     1       5.286   6.000  15.716  0.00  0.00    +0.000 C 
ATOM     15  C   UNL     1       4.607   6.825  16.811  0.00  0.00    +0.000 C 
ATOM     16  N   UNL     1       3.715   6.081  17.703  0.00  0.00    +0.000 N 
ENDROOT
BRANCH   1  19
ATOM     17  C   UNL     1      -0.494  11.054  22.293  0.00  0.00    +0.000 C 
ATOM     18  N   UNL     1       0.453  10.386  21.412  0.00  0.00    +0.000 N 
ATOM     19  C   UNL     1       0.294   9.000  21.272  0.00  0.00    +0.000 C 
ATOM     20  O   UNL     1      -0.585   8.392  21.885  0.00  0.00    +0.000 OA
BRANCH  18  21
ATOM     21  C   UNL     1       1.358  11.258  20.656  0.00  0.00    +0.000 C 
BRANCH  21  22
ATOM     22  C   UNL     1       0.595  12.269  19.859  0.00  0.00    +0.000 A 
ATOM     23  C   UNL     1       0.610  13.648  19.760  0.00  0.00    +0.000 A 
ATOM     24  C   UNL     1      -0.273  13.989  18.705  0.00  0.00    +0.000 A 
ATOM     25  C   UNL     1      -0.799  12.804  18.249  0.00  0.00    +0.000 A 
ATOM     26  O   UNL     1      -0.278  11.755  18.937  0.00  0.00    +0.000 OA
ENDBRANCH  21  22
ENDBRANCH  18  21
ENDBRANCH   1  19
TORSDOF 3
ENDMDL
MODEL 9
REMARK VINA RESULT:      -7.6      1.092      1.186
REMARK  Name = 
REMARK  5 active torsions:
REMARK  status: ('A' for Active; 'I' for Inactive)
REMARK    1  A    between atoms: C_1  and  N_2
REMARK    2  A    between atoms: N_2  and  C_3
REMARK    3  A    between atoms: C_3  and  C_4
REMARK    4  A    between atoms: C_9  and  C_11
REMARK    5  A    between atoms: N_17  and  C_18
REMARK                            x       y       z     vdW  Elec       q    Type
REMARK                         _______ _______ _______ _____ _____    ______ ____
ROOT
ATOM      1  C   UNL     1       2.977   7.468  18.446  0.00  0.00    +0.000 A 
ATOM      2  C   UNL     1       2.498   6.879  19.607  0.00  0.00    +0.000 A 
ATOM      3  C   UNL     1       1.636   7.587  20.452  0.00  0.00    +0.000 A 
ATOM      4  C   UNL     1       1.253   8.923  20.194  0.00  0.00    +0.000 A 
ATOM      5  C   UNL     1       1.724   9.509  18.993  0.00  0.00    +0.000 A 
ATOM      6  C   UNL     1       2.510   8.738  18.113  0.00  0.00    +0.000 A 
ATOM      7  N   UNL     1       1.474  10.887  18.717  0.00  0.00    +0.000 N 
ATOM      8  C   UNL     1       2.128  11.613  17.642  0.00  0.00    +0.000 C 
ATOM      9  C   UNL     1       0.798  11.682  19.635  0.00  0.00    +0.000 C 
ATOM     10  O   UNL     1       0.804  12.911  19.556  0.00  0.00    +0.000 OA
ATOM     11  C   UNL     1      -0.066  10.946  20.664  0.00  0.00    +0.000 C 
ATOM     12  C   UNL     1      -0.278  11.872  21.865  0.00  0.00    +0.000 C 
ATOM     13  C   UNL     1      -1.248  11.247  22.843  0.00  0.00    +0.000 C 
ATOM     14  C   UNL     1      -0.807   9.863  23.281  0.00  0.00    +0.000 C 
ATOM     15  C   UNL     1       0.328   9.215  22.486  0.00  0.00    +0.000 C 
ATOM     16  N   UNL     1       0.431   9.623  21.082  0.00  0.00    +0.000 N 
ENDROOT
BRANCH   1  19
ATOM     17  C   UNL     1       4.683   4.742  16.373  0.00  0.00    +0.000 C 
ATOM     18  N   UNL     1       3.725   5.343  17.289  0.00  0.00    +0.000 N 
ATOM     19  C   UNL     1       3.924   6.698  17.590  0.00  0.00    +0.000 C 
ATOM     20  O   UNL     1       4.874   7.324  17.118  0.00  0.00    +0.000 OA
BRANCH  18  21
ATOM     21  C   UNL     1       2.578   4.508  17.665  0.00  0.00    +0.000 C 
BRANCH  21  22
ATOM     22  C   UNL     1       3.026   3.233  18.309  0.00  0.00    +0.000 A 
ATOM     23  C   UNL     1       2.918   1.892  17.996  0.00  0.00    +0.000 A 
ATOM     24  C   UNL     1       3.689   1.187  18.955  0.00  0.00    +0.000 A 
ATOM     25  C   UNL     1       4.192   2.137  19.812  0.00  0.00    +0.000 A 
ATOM     26  O   UNL     1       3.801   3.380  19.429  0.00  0.00    +0.000 OA
ENDBRANCH  21  22
ENDBRANCH  18  21
ENDBRANCH   1  19
TORSDOF 3
ENDMDL
