MODEL 1
REMARK VINA RESULT:      -7.9      0.000      0.000
REMARK  Name = 
REMARK  11 active torsions:
REMARK  status: ('A' for Active; 'I' for Inactive)
REMARK    1  A    between atoms: C_1  and  C_2
REMARK    2  A    between atoms: C_2  and  C_3
REMARK    3  A    between atoms: C_3  and  S_4
REMARK    4  A    between atoms: S_4  and  N_7
REMARK    5  A    between atoms: N_7  and  C_8
REMARK    6  A    between atoms: C_13  and  C_14
REMARK    7  A    between atoms: C_16  and  C_17
REMARK    8  A    between atoms: C_21  and  C_22
REMARK    9  A    between atoms: N_27  and  C_28
REMARK   10  A    between atoms: C_28  and  C_29
REMARK   11  A    between atoms: C_28  and  C_30
REMARK                            x       y       z     vdW  Elec       q    Type
REMARK                         _______ _______ _______ _____ _____    ______ ____
ROOT
ATOM      1  C   UNL     1       5.212   5.362  16.833  0.00  0.00    +0.000 A 
ATOM      2  N   UNL     1       4.963   4.526  15.762  0.00  0.00    +0.000 N 
ATOM      3  C   UNL     1       6.111   4.361  15.039  0.00  0.00    +0.000 A 
ATOM      4  N   UNL     1       7.106   5.013  15.589  0.00  0.00    +0.000 NA
ATOM      5  C   UNL     1       6.558   5.691  16.661  0.00  0.00    +0.000 A 
ATOM      6  H   UNL     1       4.066   4.127  15.526  0.00  0.00    +0.000 HD
ENDROOT
BRANCH   1  12
ATOM      7  C   UNL     1       2.977   5.420  19.961  0.00  0.00    +0.000 A 
ATOM      8  C   UNL     1       2.092   6.438  19.620  0.00  0.00    +0.000 A 
ATOM      9  C   UNL     1       2.290   7.128  18.437  0.00  0.00    +0.000 A 
ATOM     10  F   UNL     1       1.461   8.128  18.111  0.00  0.00    +0.000 F 
ATOM     11  C   UNL     1       3.333   6.800  17.577  0.00  0.00    +0.000 A 
ATOM     12  C   UNL     1       4.196   5.720  17.847  0.00  0.00    +0.000 A 
ATOM     13  C   UNL     1       4.018   5.045  19.076  0.00  0.00    +0.000 A 
ATOM     14 CL   UNL     1       5.083   3.763  19.582  0.00  0.00    +0.000 Cl
BRANCH   7  15
ATOM     15  N   UNL     1       2.747   4.726  21.206  0.00  0.00    +0.000 N 
ATOM     16  H   UNL     1       3.612   4.615  21.748  0.00  0.00    +0.000 HD
BRANCH  15  17
ATOM     17  S   UNL     1       2.086   3.162  21.060  0.00  0.00    +0.000 S 
ATOM     18  O   UNL     1       1.244   3.004  22.226  0.00  0.00    +0.000 OA
ATOM     19  O   UNL     1       3.129   2.218  20.727  0.00  0.00    +0.000 OA
BRANCH  17  20
ATOM     20  C   UNL     1       1.025   3.378  19.631  0.00  0.00    +0.000 C 
BRANCH  20  22
ATOM     21  C   UNL     1       2.198   2.623  17.527  0.00  0.00    +0.000 C 
ATOM     22  C   UNL     1       1.228   2.244  18.632  0.00  0.00    +0.000 C 
ENDBRANCH  20  22
ENDBRANCH  17  20
ENDBRANCH  15  17
ENDBRANCH   7  15
ENDBRANCH   1  12
BRANCH   5  23
ATOM     23  C   UNL     1       7.363   6.601  17.475  0.00  0.00    +0.000 A 
ATOM     24  C   UNL     1       7.890   6.158  18.667  0.00  0.00    +0.000 A 
ATOM     25  C   UNL     1       8.569   7.102  19.391  0.00  0.00    +0.000 A 
ATOM     26  N   UNL     1       8.736   8.373  18.984  0.00  0.00    +0.000 NA
ATOM     27  C   UNL     1       8.235   8.702  17.787  0.00  0.00    +0.000 A 
ATOM     28  N   UNL     1       8.416   9.969  17.265  0.00  0.00    +0.000 N 
ATOM     29  N   UNL     1       7.542   7.859  17.017  0.00  0.00    +0.000 NA
ATOM     30  H   UNL     1       7.783  10.076  16.481  0.00  0.00    +0.000 HD
BRANCH  28  31
ATOM     31  C   UNL     1       8.530  11.084  18.195  0.00  0.00    +0.000 C 
ATOM     32  C   UNL     1       9.984  11.224  18.642  0.00  0.00    +0.000 C 
ATOM     33  C   UNL     1       8.081  12.368  17.492  0.00  0.00    +0.000 C 
ENDBRANCH  28  31
ENDBRANCH   5  23
BRANCH   3  34
ATOM     34  C   UNL     1       6.210   3.544  13.761  0.00  0.00    +0.000 C 
ATOM     35  C   UNL     1       5.320   3.933  12.596  0.00  0.00    +0.000 C 
ATOM     36  C   UNL     1       6.782   4.210  12.526  0.00  0.00    +0.000 C 
ENDBRANCH   3  34
TORSDOF 8
ENDMDL
MODEL 2
REMARK VINA RESULT:      -7.6      5.768      7.848
REMARK  Name = 
REMARK  11 active torsions:
REMARK  status: ('A' for Active; 'I' for Inactive)
REMARK    1  A    between atoms: C_1  and  C_2
REMARK    2  A    between atoms: C_2  and  C_3
REMARK    3  A    between atoms: C_3  and  S_4
REMARK    4  A    between atoms: S_4  and  N_7
REMARK    5  A    between atoms: N_7  and  C_8
REMARK    6  A    between atoms: C_13  and  C_14
REMARK    7  A    between atoms: C_16  and  C_17
REMARK    8  A    between atoms: C_21  and  C_22
REMARK    9  A    between atoms: N_27  and  C_28
REMARK   10  A    between atoms: C_28  and  C_29
REMARK   11  A    between atoms: C_28  and  C_30
REMARK                            x       y       z     vdW  Elec       q    Type
REMARK                         _______ _______ _______ _____ _____    ______ ____
ROOT
ATOM      1  C   UNL     1      -0.723  10.603  18.869  0.00  0.00    +0.000 A 
ATOM      2  N   UNL     1      -1.714  10.097  18.051  0.00  0.00    +0.000 N 
ATOM      3  C   UNL     1      -2.243  11.109  17.299  0.00  0.00    +0.000 A 
ATOM      4  N   UNL     1      -1.637  12.243  17.553  0.00  0.00    +0.000 NA
ATOM      5  C   UNL     1      -0.740  11.966  18.566  0.00  0.00    +0.000 A 
ATOM      6  H   UNL     1      -2.028   9.137  18.034  0.00  0.00    +0.000 HD
ENDROOT
BRANCH   1  12
ATOM      7  C   UNL     1       1.798   8.085  20.313  0.00  0.00    +0.000 A 
ATOM      8  C   UNL     1       1.451   8.125  21.660  0.00  0.00    +0.000 A 
ATOM      9  C   UNL     1       0.477   9.017  22.073  0.00  0.00    +0.000 A 
ATOM     10  F   UNL     1       0.153   9.083  23.371  0.00  0.00    +0.000 F 
ATOM     11  C   UNL     1      -0.175   9.844  21.165  0.00  0.00    +0.000 A 
ATOM     12  C   UNL     1       0.088   9.770  19.784  0.00  0.00    +0.000 A 
ATOM     13  C   UNL     1       1.114   8.890  19.369  0.00  0.00    +0.000 A 
ATOM     14 CL   UNL     1       1.614   8.781  17.705  0.00  0.00    +0.000 Cl
BRANCH   7  15
ATOM     15  N   UNL     1       2.824   7.150  19.917  0.00  0.00    +0.000 N 
ATOM     16  H   UNL     1       3.317   7.457  19.071  0.00  0.00    +0.000 HD
BRANCH  15  17
ATOM     17  S   UNL     1       2.283   5.567  19.590  0.00  0.00    +0.000 S 
ATOM     18  O   UNL     1       1.945   5.572  18.183  0.00  0.00    +0.000 OA
ATOM     19  O   UNL     1       1.345   5.150  20.607  0.00  0.00    +0.000 OA
BRANCH  17  20
ATOM     20  C   UNL     1       3.805   4.643  19.795  0.00  0.00    +0.000 C 
BRANCH  20  22
ATOM     21  C   UNL     1       6.172   5.298  19.210  0.00  0.00    +0.000 C 
ATOM     22  C   UNL     1       4.789   4.969  18.675  0.00  0.00    +0.000 C 
ENDBRANCH  20  22
ENDBRANCH  17  20
ENDBRANCH  15  17
ENDBRANCH   7  15
ENDBRANCH   1  12
BRANCH   5  23
ATOM     23  C   UNL     1       0.070  13.022  19.173  0.00  0.00    +0.000 A 
ATOM     24  C   UNL     1      -0.261  13.498  20.421  0.00  0.00    +0.000 A 
ATOM     25  C   UNL     1       0.512  14.532  20.876  0.00  0.00    +0.000 A 
ATOM     26  N   UNL     1       1.538  15.056  20.180  0.00  0.00    +0.000 NA
ATOM     27  C   UNL     1       1.822  14.495  18.997  0.00  0.00    +0.000 A 
ATOM     28  N   UNL     1       2.897  14.931  18.246  0.00  0.00    +0.000 N 
ATOM     29  N   UNL     1       1.115  13.497  18.461  0.00  0.00    +0.000 NA
ATOM     30  H   UNL     1       2.802  14.545  17.314  0.00  0.00    +0.000 HD
BRANCH  28  31
ATOM     31  C   UNL     1       3.292  16.327  18.358  0.00  0.00    +0.000 C 
ATOM     32  C   UNL     1       4.808  16.413  18.530  0.00  0.00    +0.000 C 
ATOM     33  C   UNL     1       2.876  17.069  17.085  0.00  0.00    +0.000 C 
ENDBRANCH  28  31
ENDBRANCH   5  23
BRANCH   3  34
ATOM     34  C   UNL     1      -3.391  10.940  16.317  0.00  0.00    +0.000 C 
ATOM     35  C   UNL     1      -3.051  10.637  14.871  0.00  0.00    +0.000 C 
ATOM     36  C   UNL     1      -3.634   9.566  15.726  0.00  0.00    +0.000 C 
ENDBRANCH   3  34
TORSDOF 8
ENDMDL
MODEL 3
REMARK VINA RESULT:      -7.6      5.504      7.540
REMARK  Name = 
REMARK  11 active torsions:
REMARK  status: ('A' for Active; 'I' for Inactive)
REMARK    1  A    between atoms: C_1  and  C_2
REMARK    2  A    between atoms: C_2  and  C_3
REMARK    3  A    between atoms: C_3  and  S_4
REMARK    4  A    between atoms: S_4  and  N_7
REMARK    5  A    between atoms: N_7  and  C_8
REMARK    6  A    between atoms: C_13  and  C_14
REMARK    7  A    between atoms: C_16  and  C_17
REMARK    8  A    between atoms: C_21  and  C_22
REMARK    9  A    between atoms: N_27  and  C_28
REMARK   10  A    between atoms: C_28  and  C_29
REMARK   11  A    between atoms: C_28  and  C_30
REMARK                            x       y       z     vdW  Elec       q    Type
REMARK                         _______ _______ _______ _____ _____    ______ ____
ROOT
ATOM      1  C   UNL     1      -0.655  10.580  18.867  0.00  0.00    +0.000 A 
ATOM      2  N   UNL     1      -1.731  10.119  18.133  0.00  0.00    +0.000 N 
ATOM      3  C   UNL     1      -2.219  11.134  17.359  0.00  0.00    +0.000 A 
ATOM      4  N   UNL     1      -1.509  12.225  17.517  0.00  0.00    +0.000 NA
ATOM      5  C   UNL     1      -0.579  11.923  18.492  0.00  0.00    +0.000 A 
ATOM      6  H   UNL     1      -2.122   9.190  18.186  0.00  0.00    +0.000 HD
ENDROOT
BRANCH   1  12
ATOM      7  C   UNL     1       1.812   8.005  20.305  0.00  0.00    +0.000 A 
ATOM      8  C   UNL     1       1.466   8.050  21.652  0.00  0.00    +0.000 A 
ATOM      9  C   UNL     1       0.512   8.962  22.068  0.00  0.00    +0.000 A 
ATOM     10  F   UNL     1       0.191   9.033  23.366  0.00  0.00    +0.000 F 
ATOM     11  C   UNL     1      -0.122   9.805  21.162  0.00  0.00    +0.000 A 
ATOM     12  C   UNL     1       0.138   9.728  19.780  0.00  0.00    +0.000 A 
ATOM     13  C   UNL     1       1.144   8.827  19.363  0.00  0.00    +0.000 A 
ATOM     14 CL   UNL     1       1.641   8.710  17.698  0.00  0.00    +0.000 Cl
BRANCH   7  15
ATOM     15  N   UNL     1       2.817   7.049  19.906  0.00  0.00    +0.000 N 
ATOM     16  H   UNL     1       3.326   7.355  19.070  0.00  0.00    +0.000 HD
BRANCH  15  17
ATOM     17  S   UNL     1       2.238   5.485  19.552  0.00  0.00    +0.000 S 
ATOM     18  O   UNL     1       1.919   5.517  18.141  0.00  0.00    +0.000 OA
ATOM     19  O   UNL     1       1.275   5.081  20.551  0.00  0.00    +0.000 OA
BRANCH  17  20
ATOM     20  C   UNL     1       3.732   4.518  19.764  0.00  0.00    +0.000 C 
BRANCH  20  22
ATOM     21  C   UNL     1       2.827   2.313  18.932  0.00  0.00    +0.000 C 
ATOM     22  C   UNL     1       3.394   3.073  20.118  0.00  0.00    +0.000 C 
ENDBRANCH  20  22
ENDBRANCH  17  20
ENDBRANCH  15  17
ENDBRANCH   7  15
ENDBRANCH   1  12
BRANCH   5  23
ATOM     23  C   UNL     1       0.348  12.935  18.996  0.00  0.00    +0.000 A 
ATOM     24  C   UNL     1      -0.059  13.792  19.993  0.00  0.00    +0.000 A 
ATOM     25  C   UNL     1       0.853  14.749  20.350  0.00  0.00    +0.000 A 
ATOM     26  N   UNL     1       2.073  14.858  19.793  0.00  0.00    +0.000 NA
ATOM     27  C   UNL     1       2.405  13.949  18.867  0.00  0.00    +0.000 A 
ATOM     28  N   UNL     1       3.660  13.950  18.289  0.00  0.00    +0.000 N 
ATOM     29  N   UNL     1       1.578  12.991  18.439  0.00  0.00    +0.000 NA
ATOM     30  H   UNL     1       3.629  13.345  17.476  0.00  0.00    +0.000 HD
BRANCH  28  31
ATOM     31  C   UNL     1       4.352  15.224  18.153  0.00  0.00    +0.000 C 
ATOM     32  C   UNL     1       5.820  14.969  17.815  0.00  0.00    +0.000 C 
ATOM     33  C   UNL     1       3.696  16.031  17.029  0.00  0.00    +0.000 C 
ENDBRANCH  28  31
ENDBRANCH   5  23
BRANCH   3  34
ATOM     34  C   UNL     1      -3.433  11.014  16.451  0.00  0.00    +0.000 C 
ATOM     35  C   UNL     1      -3.195  10.795  14.969  0.00  0.00    +0.000 C 
ATOM     36  C   UNL     1      -3.714   9.675  15.802  0.00  0.00    +0.000 C 
ENDBRANCH   3  34
TORSDOF 8
ENDMDL
MODEL 4
REMARK VINA RESULT:      -7.5      5.669      7.681
REMARK  Name = 
REMARK  11 active torsions:
REMARK  status: ('A' for Active; 'I' for Inactive)
REMARK    1  A    between atoms: C_1  and  C_2
REMARK    2  A    between atoms: C_2  and  C_3
REMARK    3  A    between atoms: C_3  and  S_4
REMARK    4  A    between atoms: S_4  and  N_7
REMARK    5  A    between atoms: N_7  and  C_8
REMARK    6  A    between atoms: C_13  and  C_14
REMARK    7  A    between atoms: C_16  and  C_17
REMARK    8  A    between atoms: C_21  and  C_22
REMARK    9  A    between atoms: N_27  and  C_28
REMARK   10  A    between atoms: C_28  and  C_29
REMARK   11  A    between atoms: C_28  and  C_30
REMARK                            x       y       z     vdW  Elec       q    Type
REMARK                         _______ _______ _______ _____ _____    ______ ____
ROOT
ATOM      1  C   UNL     1      -0.696  10.559  18.782  0.00  0.00    +0.000 A 
ATOM      2  N   UNL     1      -1.678  10.065  17.946  0.00  0.00    +0.000 N 
ATOM      3  C   UNL     1      -2.189  11.086  17.194  0.00  0.00    +0.000 A 
ATOM      4  N   UNL     1      -1.580  12.215  17.464  0.00  0.00    +0.000 NA
ATOM      5  C   UNL     1      -0.699  11.925  18.488  0.00  0.00    +0.000 A 
ATOM      6  H   UNL     1      -1.998   9.108  17.918  0.00  0.00    +0.000 HD
ENDROOT
BRANCH   1  12
ATOM      7  C   UNL     1       1.868   8.103  20.256  0.00  0.00    +0.000 A 
ATOM      8  C   UNL     1       1.418   8.027  21.571  0.00  0.00    +0.000 A 
ATOM      9  C   UNL     1       0.360   8.828  21.962  0.00  0.00    +0.000 A 
ATOM     10  F   UNL     1      -0.065   8.785  23.231  0.00  0.00    +0.000 F 
ATOM     11  C   UNL     1      -0.274   9.676  21.060  0.00  0.00    +0.000 A 
ATOM     12  C   UNL     1       0.097   9.715  19.702  0.00  0.00    +0.000 A 
ATOM     13  C   UNL     1       1.206   8.929  19.315  0.00  0.00    +0.000 A 
ATOM     14 CL   UNL     1       1.836   8.967  17.692  0.00  0.00    +0.000 Cl
BRANCH   7  15
ATOM     15  N   UNL     1       2.980   7.261  19.883  0.00  0.00    +0.000 N 
ATOM     16  H   UNL     1       3.528   7.667  19.116  0.00  0.00    +0.000 HD
BRANCH  15  17
ATOM     17  S   UNL     1       2.567   5.687  19.375  0.00  0.00    +0.000 S 
ATOM     18  O   UNL     1       3.780   4.915  19.531  0.00  0.00    +0.000 OA
ATOM     19  O   UNL     1       1.847   5.749  18.123  0.00  0.00    +0.000 OA
BRANCH  17  20
ATOM     20  C   UNL     1       1.428   5.204  20.672  0.00  0.00    +0.000 C 
BRANCH  20  22
ATOM     21  C   UNL     1       1.641   2.845  21.545  0.00  0.00    +0.000 C 
ATOM     22  C   UNL     1       1.004   3.748  20.504  0.00  0.00    +0.000 C 
ENDBRANCH  20  22
ENDBRANCH  17  20
ENDBRANCH  15  17
ENDBRANCH   7  15
ENDBRANCH   1  12
BRANCH   5  23
ATOM     23  C   UNL     1       0.109  12.971  19.114  0.00  0.00    +0.000 A 
ATOM     24  C   UNL     1      -0.379  13.637  20.214  0.00  0.00    +0.000 A 
ATOM     25  C   UNL     1       0.417  14.646  20.687  0.00  0.00    +0.000 A 
ATOM     26  N   UNL     1       1.603  14.973  20.144  0.00  0.00    +0.000 NA
ATOM     27  C   UNL     1       2.025  14.236  19.108  0.00  0.00    +0.000 A 
ATOM     28  N   UNL     1       3.260  14.465  18.530  0.00  0.00    +0.000 N 
ATOM     29  N   UNL     1       1.311  13.247  18.564  0.00  0.00    +0.000 NA
ATOM     30  H   UNL     1       3.285  13.969  17.646  0.00  0.00    +0.000 HD
BRANCH  28  31
ATOM     31  C   UNL     1       3.789  15.820  18.556  0.00  0.00    +0.000 C 
ATOM     32  C   UNL     1       5.314  15.770  18.471  0.00  0.00    +0.000 C 
ATOM     33  C   UNL     1       3.232  16.598  17.361  0.00  0.00    +0.000 C 
ENDBRANCH  28  31
ENDBRANCH   5  23
BRANCH   3  34
ATOM     34  C   UNL     1      -3.324  10.931  16.194  0.00  0.00    +0.000 C 
ATOM     35  C   UNL     1      -2.972  10.532  14.774  0.00  0.00    +0.000 C 
ATOM     36  C   UNL     1      -3.634   9.544  15.670  0.00  0.00    +0.000 C 
ENDBRANCH   3  34
TORSDOF 8
ENDMDL
MODEL 5
REMARK VINA RESULT:      -7.5      4.015      6.981
REMARK  Name = 
REMARK  11 active torsions:
REMARK  status: ('A' for Active; 'I' for Inactive)
REMARK    1  A    between atoms: C_1  and  C_2
REMARK    2  A    between atoms: C_2  and  C_3
REMARK    3  A    between atoms: C_3  and  S_4
REMARK    4  A    between atoms: S_4  and  N_7
REMARK    5  A    between atoms: N_7  and  C_8
REMARK    6  A    between atoms: C_13  and  C_14
REMARK    7  A    between atoms: C_16  and  C_17
REMARK    8  A    between atoms: C_21  and  C_22
REMARK    9  A    between atoms: N_27  and  C_28
REMARK   10  A    between atoms: C_28  and  C_29
REMARK   11  A    between atoms: C_28  and  C_30
REMARK                            x       y       z     vdW  Elec       q    Type
REMARK                         _______ _______ _______ _____ _____    ______ ____
ROOT
ATOM      1  C   UNL     1       3.833   5.184  19.412  0.00  0.00    +0.000 A 
ATOM      2  N   UNL     1       3.500   4.145  20.259  0.00  0.00    +0.000 N 
ATOM      3  C   UNL     1       2.244   4.351  20.758  0.00  0.00    +0.000 A 
ATOM      4  N   UNL     1       1.721   5.448  20.265  0.00  0.00    +0.000 NA
ATOM      5  C   UNL     1       2.710   6.011  19.482  0.00  0.00    +0.000 A 
ATOM      6  H   UNL     1       4.101   3.371  20.503  0.00  0.00    +0.000 HD
ENDROOT
BRANCH   1  12
ATOM      7  C   UNL     1       6.622   4.695  16.810  0.00  0.00    +0.000 A 
ATOM      8  C   UNL     1       7.669   5.365  17.435  0.00  0.00    +0.000 A 
ATOM      9  C   UNL     1       7.427   6.020  18.629  0.00  0.00    +0.000 A 
ATOM     10  F   UNL     1       8.421   6.690  19.226  0.00  0.00    +0.000 F 
ATOM     11  C   UNL     1       6.170   5.993  19.223  0.00  0.00    +0.000 A 
ATOM     12  C   UNL     1       5.108   5.255  18.666  0.00  0.00    +0.000 A 
ATOM     13  C   UNL     1       5.346   4.622  17.423  0.00  0.00    +0.000 A 
ATOM     14 CL   UNL     1       4.090   3.768  16.572  0.00  0.00    +0.000 Cl
BRANCH   7  15
ATOM     15  N   UNL     1       6.906   4.029  15.561  0.00  0.00    +0.000 N 
ATOM     16  H   UNL     1       7.848   3.621  15.550  0.00  0.00    +0.000 HD
BRANCH  15  17
ATOM     17  S   UNL     1       6.808   5.010  14.171  0.00  0.00    +0.000 S 
ATOM     18  O   UNL     1       8.164   5.456  13.934  0.00  0.00    +0.000 OA
ATOM     19  O   UNL     1       5.704   5.934  14.299  0.00  0.00    +0.000 OA
BRANCH  17  20
ATOM     20  C   UNL     1       6.397   3.788  12.926  0.00  0.00    +0.000 C 
BRANCH  20  22
ATOM     21  C   UNL     1       4.486   3.093  11.430  0.00  0.00    +0.000 C 
ATOM     22  C   UNL     1       4.885   3.647  12.787  0.00  0.00    +0.000 C 
ENDBRANCH  20  22
ENDBRANCH  17  20
ENDBRANCH  15  17
ENDBRANCH   7  15
ENDBRANCH   1  12
BRANCH   5  23
ATOM     23  C   UNL     1       2.516   7.303  18.826  0.00  0.00    +0.000 A 
ATOM     24  C   UNL     1       3.192   7.581  17.660  0.00  0.00    +0.000 A 
ATOM     25  C   UNL     1       2.999   8.841  17.159  0.00  0.00    +0.000 A 
ATOM     26  N   UNL     1       2.200   9.756  17.735  0.00  0.00    +0.000 NA
ATOM     27  C   UNL     1       1.539   9.382  18.838  0.00  0.00    +0.000 A 
ATOM     28  N   UNL     1       0.649  10.239  19.458  0.00  0.00    +0.000 N 
ATOM     29  N   UNL     1       1.676   8.184  19.414  0.00  0.00    +0.000 NA
ATOM     30  H   UNL     1       0.438   9.859  20.374  0.00  0.00    +0.000 HD
BRANCH  28  31
ATOM     31  C   UNL     1       0.898  11.670  19.365  0.00  0.00    +0.000 C 
ATOM     32  C   UNL     1      -0.274  12.342  18.651  0.00  0.00    +0.000 C 
ATOM     33  C   UNL     1       1.040  12.246  20.777  0.00  0.00    +0.000 C 
ENDBRANCH  28  31
ENDBRANCH   5  23
BRANCH   3  34
ATOM     34  C   UNL     1       1.558   3.439  21.762  0.00  0.00    +0.000 C 
ATOM     35  C   UNL     1       0.945   2.150  21.250  0.00  0.00    +0.000 C 
ATOM     36  C   UNL     1       2.192   2.097  22.062  0.00  0.00    +0.000 C 
ENDBRANCH   3  34
TORSDOF 8
ENDMDL
MODEL 6
REMARK VINA RESULT:      -7.4      7.893     10.371
REMARK  Name = 
REMARK  11 active torsions:
REMARK  status: ('A' for Active; 'I' for Inactive)
REMARK    1  A    between atoms: C_1  and  C_2
REMARK    2  A    between atoms: C_2  and  C_3
REMARK    3  A    between atoms: C_3  and  S_4
REMARK    4  A    between atoms: S_4  and  N_7
REMARK    5  A    between atoms: N_7  and  C_8
REMARK    6  A    between atoms: C_13  and  C_14
REMARK    7  A    between atoms: C_16  and  C_17
REMARK    8  A    between atoms: C_21  and  C_22
REMARK    9  A    between atoms: N_27  and  C_28
REMARK   10  A    between atoms: C_28  and  C_29
REMARK   11  A    between atoms: C_28  and  C_30
REMARK                            x       y       z     vdW  Elec       q    Type
REMARK                         _______ _______ _______ _____ _____    ______ ____
ROOT
ATOM      1  C   UNL     1      -0.497  12.646  18.711  0.00  0.00    +0.000 A 
ATOM      2  N   UNL     1      -0.225  14.000  18.675  0.00  0.00    +0.000 N 
ATOM      3  C   UNL     1       1.033  14.222  19.159  0.00  0.00    +0.000 A 
ATOM      4  N   UNL     1       1.615  13.092  19.483  0.00  0.00    +0.000 NA
ATOM      5  C   UNL     1       0.664  12.113  19.275  0.00  0.00    +0.000 A 
ATOM      6  H   UNL     1      -0.866  14.719  18.373  0.00  0.00    +0.000 HD
ENDROOT
BRANCH   1  12
ATOM      7  C   UNL     1      -4.107  11.352  18.428  0.00  0.00    +0.000 A 
ATOM      8  C   UNL     1      -4.056  10.734  17.182  0.00  0.00    +0.000 A 
ATOM      9  C   UNL     1      -2.893  10.823  16.438  0.00  0.00    +0.000 A 
ATOM     10  F   UNL     1      -2.841  10.256  15.226  0.00  0.00    +0.000 F 
ATOM     11  C   UNL     1      -1.774  11.489  16.927  0.00  0.00    +0.000 A 
ATOM     12  C   UNL     1      -1.759  12.051  18.218  0.00  0.00    +0.000 A 
ATOM     13  C   UNL     1      -2.962  11.997  18.958  0.00  0.00    +0.000 A 
ATOM     14 CL   UNL     1      -3.113  12.747  20.523  0.00  0.00    +0.000 Cl
BRANCH   7  15
ATOM     15  N   UNL     1      -5.338  11.247  19.174  0.00  0.00    +0.000 N 
ATOM     16  H   UNL     1      -5.811  10.351  19.010  0.00  0.00    +0.000 HD
BRANCH  15  17
ATOM     17  S   UNL     1      -6.498  12.452  18.843  0.00  0.00    +0.000 S 
ATOM     18  O   UNL     1      -7.164  12.006  17.638  0.00  0.00    +0.000 OA
ATOM     19  O   UNL     1      -5.891  13.759  18.951  0.00  0.00    +0.000 OA
BRANCH  17  20
ATOM     20  C   UNL     1      -7.622  12.222  20.220  0.00  0.00    +0.000 C 
BRANCH  20  22
ATOM     21  C   UNL     1      -7.838  12.739  22.682  0.00  0.00    +0.000 C 
ATOM     22  C   UNL     1      -6.890  12.389  21.548  0.00  0.00    +0.000 C 
ENDBRANCH  20  22
ENDBRANCH  17  20
ENDBRANCH  15  17
ENDBRANCH   7  15
ENDBRANCH   1  12
BRANCH   5  23
ATOM     23  C   UNL     1       0.929  10.714  19.609  0.00  0.00    +0.000 A 
ATOM     24  C   UNL     1       0.677  10.261  20.883  0.00  0.00    +0.000 A 
ATOM     25  C   UNL     1       1.022   8.957  21.118  0.00  0.00    +0.000 A 
ATOM     26  N   UNL     1       1.557   8.149  20.185  0.00  0.00    +0.000 NA
ATOM     27  C   UNL     1       1.718   8.658  18.957  0.00  0.00    +0.000 A 
ATOM     28  N   UNL     1       2.203   7.879  17.923  0.00  0.00    +0.000 N 
ATOM     29  N   UNL     1       1.431   9.923  18.635  0.00  0.00    +0.000 NA
ATOM     30  H   UNL     1       2.457   8.497  17.161  0.00  0.00    +0.000 HD
BRANCH  28  31
ATOM     31  C   UNL     1       3.123   6.800  18.251  0.00  0.00    +0.000 C 
ATOM     32  C   UNL     1       2.419   5.458  18.061  0.00  0.00    +0.000 C 
ATOM     33  C   UNL     1       4.338   6.880  17.322  0.00  0.00    +0.000 C 
ENDBRANCH  28  31
ENDBRANCH   5  23
BRANCH   3  34
ATOM     34  C   UNL     1       1.662  15.597  19.317  0.00  0.00    +0.000 C 
ATOM     35  C   UNL     1       2.418  16.174  18.136  0.00  0.00    +0.000 C 
ATOM     36  C   UNL     1       1.093  16.744  18.508  0.00  0.00    +0.000 C 
ENDBRANCH   3  34
TORSDOF 8
ENDMDL
MODEL 7
REMARK VINA RESULT:      -7.3      5.061      7.264
REMARK  Name = 
REMARK  11 active torsions:
REMARK  status: ('A' for Active; 'I' for Inactive)
REMARK    1  A    between atoms: C_1  and  C_2
REMARK    2  A    between atoms: C_2  and  C_3
REMARK    3  A    between atoms: C_3  and  S_4
REMARK    4  A    between atoms: S_4  and  N_7
REMARK    5  A    between atoms: N_7  and  C_8
REMARK    6  A    between atoms: C_13  and  C_14
REMARK    7  A    between atoms: C_16  and  C_17
REMARK    8  A    between atoms: C_21  and  C_22
REMARK    9  A    between atoms: N_27  and  C_28
REMARK   10  A    between atoms: C_28  and  C_29
REMARK   11  A    between atoms: C_28  and  C_30
REMARK                            x       y       z     vdW  Elec       q    Type
REMARK                         _______ _______ _______ _____ _____    ______ ____
ROOT
ATOM      1  C   UNL     1      -0.216  10.349  18.851  0.00  0.00    +0.000 A 
ATOM      2  N   UNL     1      -1.546  10.172  18.521  0.00  0.00    +0.000 N 
ATOM      3  C   UNL     1      -2.181  11.382  18.535  0.00  0.00    +0.000 A 
ATOM      4  N   UNL     1      -1.341  12.346  18.826  0.00  0.00    +0.000 NA
ATOM      5  C   UNL     1      -0.137  11.723  19.088  0.00  0.00    +0.000 A 
ATOM      6  H   UNL     1      -1.990   9.286  18.333  0.00  0.00    +0.000 HD
ENDROOT
BRANCH   1  12
ATOM      7  C   UNL     1       1.935   7.351  19.934  0.00  0.00    +0.000 A 
ATOM      8  C   UNL     1       2.826   7.282  18.867  0.00  0.00    +0.000 A 
ATOM      9  C   UNL     1       2.657   8.144  17.798  0.00  0.00    +0.000 A 
ATOM     10  F   UNL     1       3.492   8.069  16.754  0.00  0.00    +0.000 F 
ATOM     11  C   UNL     1       1.638   9.091  17.789  0.00  0.00    +0.000 A 
ATOM     12  C   UNL     1       0.772   9.248  18.888  0.00  0.00    +0.000 A 
ATOM     13  C   UNL     1       0.918   8.338  19.959  0.00  0.00    +0.000 A 
ATOM     14 CL   UNL     1      -0.156   8.352  21.330  0.00  0.00    +0.000 Cl
BRANCH   7  15
ATOM     15  N   UNL     1       2.133   6.431  21.029  0.00  0.00    +0.000 N 
ATOM     16  H   UNL     1       2.915   6.714  21.630  0.00  0.00    +0.000 HD
BRANCH  15  17
ATOM     17  S   UNL     1       2.451   4.818  20.580  0.00  0.00    +0.000 S 
ATOM     18  O   UNL     1       2.206   4.043  21.777  0.00  0.00    +0.000 OA
ATOM     19  O   UNL     1       3.702   4.748  19.859  0.00  0.00    +0.000 OA
BRANCH  17  20
ATOM     20  C   UNL     1       1.107   4.517  19.434  0.00  0.00    +0.000 C 
BRANCH  20  22
ATOM     21  C   UNL     1       1.532   2.105  18.819  0.00  0.00    +0.000 C 
ATOM     22  C   UNL     1       1.538   3.546  18.339  0.00  0.00    +0.000 C 
ENDBRANCH  20  22
ENDBRANCH  17  20
ENDBRANCH  15  17
ENDBRANCH   7  15
ENDBRANCH   1  12
BRANCH   5  23
ATOM     23  C   UNL     1       1.031  12.483  19.531  0.00  0.00    +0.000 A 
ATOM     24  C   UNL     1       1.166  12.804  20.862  0.00  0.00    +0.000 A 
ATOM     25  C   UNL     1       2.255  13.577  21.169  0.00  0.00    +0.000 A 
ATOM     26  N   UNL     1       3.152  13.993  20.257  0.00  0.00    +0.000 NA
ATOM     27  C   UNL     1       2.970  13.589  18.993  0.00  0.00    +0.000 A 
ATOM     28  N   UNL     1       3.878  13.920  18.004  0.00  0.00    +0.000 N 
ATOM     29  N   UNL     1       1.930  12.853  18.593  0.00  0.00    +0.000 NA
ATOM     30  H   UNL     1       3.449  13.719  17.109  0.00  0.00    +0.000 HD
BRANCH  28  31
ATOM     31  C   UNL     1       4.607  15.173  18.134  0.00  0.00    +0.000 C 
ATOM     32  C   UNL     1       6.043  14.976  17.650  0.00  0.00    +0.000 C 
ATOM     33  C   UNL     1       3.919  16.243  17.282  0.00  0.00    +0.000 C 
ENDBRANCH  28  31
ENDBRANCH   5  23
BRANCH   3  34
ATOM     34  C   UNL     1      -3.665  11.576  18.269  0.00  0.00    +0.000 C 
ATOM     35  C   UNL     1      -4.147  11.492  16.833  0.00  0.00    +0.000 C 
ATOM     36  C   UNL     1      -4.468  10.388  17.780  0.00  0.00    +0.000 C 
ENDBRANCH   3  34
TORSDOF 8
ENDMDL
MODEL 8
REMARK VINA RESULT:      -7.2      5.081      7.304
REMARK  Name = 
REMARK  11 active torsions:
REMARK  status: ('A' for Active; 'I' for Inactive)
REMARK    1  A    between atoms: C_1  and  C_2
REMARK    2  A    between atoms: C_2  and  C_3
REMARK    3  A    between atoms: C_3  and  S_4
REMARK    4  A    between atoms: S_4  and  N_7
REMARK    5  A    between atoms: N_7  and  C_8
REMARK    6  A    between atoms: C_13  and  C_14
REMARK    7  A    between atoms: C_16  and  C_17
REMARK    8  A    between atoms: C_21  and  C_22
REMARK    9  A    between atoms: N_27  and  C_28
REMARK   10  A    between atoms: C_28  and  C_29
REMARK   11  A    between atoms: C_28  and  C_30
REMARK                            x       y       z     vdW  Elec       q    Type
REMARK                         _______ _______ _______ _____ _____    ______ ____
ROOT
ATOM      1  C   UNL     1      -0.196  10.370  18.818  0.00  0.00    +0.000 A 
ATOM      2  N   UNL     1      -1.523  10.191  18.479  0.00  0.00    +0.000 N 
ATOM      3  C   UNL     1      -2.163  11.398  18.498  0.00  0.00    +0.000 A 
ATOM      4  N   UNL     1      -1.328  12.363  18.800  0.00  0.00    +0.000 NA
ATOM      5  C   UNL     1      -0.123  11.743  19.065  0.00  0.00    +0.000 A 
ATOM      6  H   UNL     1      -1.964   9.304  18.283  0.00  0.00    +0.000 HD
ENDROOT
BRANCH   1  12
ATOM      7  C   UNL     1       1.971   7.383  19.898  0.00  0.00    +0.000 A 
ATOM      8  C   UNL     1       2.856   7.313  18.826  0.00  0.00    +0.000 A 
ATOM      9  C   UNL     1       2.677   8.170  17.755  0.00  0.00    +0.000 A 
ATOM     10  F   UNL     1       3.505   8.093  16.705  0.00  0.00    +0.000 F 
ATOM     11  C   UNL     1       1.655   9.113  17.749  0.00  0.00    +0.000 A 
ATOM     12  C   UNL     1       0.796   9.273  18.853  0.00  0.00    +0.000 A 
ATOM     13  C   UNL     1       0.952   8.367  19.927  0.00  0.00    +0.000 A 
ATOM     14 CL   UNL     1      -0.113   8.384  21.305  0.00  0.00    +0.000 Cl
BRANCH   7  15
ATOM     15  N   UNL     1       2.180   6.469  20.996  0.00  0.00    +0.000 N 
ATOM     16  H   UNL     1       3.085   6.621  21.455  0.00  0.00    +0.000 HD
BRANCH  15  17
ATOM     17  S   UNL     1       2.138   4.815  20.587  0.00  0.00    +0.000 S 
ATOM     18  O   UNL     1       1.062   4.695  19.627  0.00  0.00    +0.000 OA
ATOM     19  O   UNL     1       2.193   4.012  21.788  0.00  0.00    +0.000 OA
BRANCH  17  20
ATOM     20  C   UNL     1       3.691   4.647  19.708  0.00  0.00    +0.000 C 
BRANCH  20  22
ATOM     21  C   UNL     1       3.711   4.059  17.253  0.00  0.00    +0.000 C 
ATOM     22  C   UNL     1       3.608   3.530  18.673  0.00  0.00    +0.000 C 
ENDBRANCH  20  22
ENDBRANCH  17  20
ENDBRANCH  15  17
ENDBRANCH   7  15
ENDBRANCH   1  12
BRANCH   5  23
ATOM     23  C   UNL     1       1.040  12.504  19.519  0.00  0.00    +0.000 A 
ATOM     24  C   UNL     1       1.165  12.820  20.853  0.00  0.00    +0.000 A 
ATOM     25  C   UNL     1       2.249  13.593  21.170  0.00  0.00    +0.000 A 
ATOM     26  N   UNL     1       3.151  14.016  20.267  0.00  0.00    +0.000 NA
ATOM     27  C   UNL     1       2.980  13.617  18.999  0.00  0.00    +0.000 A 
ATOM     28  N   UNL     1       3.894  13.955  18.019  0.00  0.00    +0.000 N 
ATOM     29  N   UNL     1       1.944  12.880  18.589  0.00  0.00    +0.000 NA
ATOM     30  H   UNL     1       3.471  13.756  17.119  0.00  0.00    +0.000 HD
BRANCH  28  31
ATOM     31  C   UNL     1       4.619  15.209  18.160  0.00  0.00    +0.000 C 
ATOM     32  C   UNL     1       6.048  15.027  17.650  0.00  0.00    +0.000 C 
ATOM     33  C   UNL     1       3.913  16.290  17.337  0.00  0.00    +0.000 C 
ENDBRANCH  28  31
ENDBRANCH   5  23
BRANCH   3  34
ATOM     34  C   UNL     1      -3.646  11.588  18.224  0.00  0.00    +0.000 C 
ATOM     35  C   UNL     1      -4.130  11.444  16.794  0.00  0.00    +0.000 C 
ATOM     36  C   UNL     1      -4.456  10.385  17.789  0.00  0.00    +0.000 C 
ENDBRANCH   3  34
TORSDOF 8
ENDMDL
MODEL 9
REMARK VINA RESULT:      -7.2      6.046      9.306
REMARK  Name = 
REMARK  11 active torsions:
REMARK  status: ('A' for Active; 'I' for Inactive)
REMARK    1  A    between atoms: C_1  and  C_2
REMARK    2  A    between atoms: C_2  and  C_3
REMARK    3  A    between atoms: C_3  and  S_4
REMARK    4  A    between atoms: S_4  and  N_7
REMARK    5  A    between atoms: N_7  and  C_8
REMARK    6  A    between atoms: C_13  and  C_14
REMARK    7  A    between atoms: C_16  and  C_17
REMARK    8  A    between atoms: C_21  and  C_22
REMARK    9  A    between atoms: N_27  and  C_28
REMARK   10  A    between atoms: C_28  and  C_29
REMARK   11  A    between atoms: C_28  and  C_30
REMARK                            x       y       z     vdW  Elec       q    Type
REMARK                         _______ _______ _______ _____ _____    ______ ____
ROOT
ATOM      1  C   UNL     1       1.077  11.116  19.135  0.00  0.00    +0.000 A 
ATOM      2  N   UNL     1       1.877  12.155  19.569  0.00  0.00    +0.000 N 
ATOM      3  C   UNL     1       1.145  13.308  19.601  0.00  0.00    +0.000 A 
ATOM      4  N   UNL     1      -0.096  13.082  19.243  0.00  0.00    +0.000 NA
ATOM      5  C   UNL     1      -0.144  11.748  18.889  0.00  0.00    +0.000 A 
ATOM      6  H   UNL     1       2.859  12.085  19.793  0.00  0.00    +0.000 HD
ENDROOT
BRANCH   1  12
ATOM      7  C   UNL     1       1.881   7.424  19.849  0.00  0.00    +0.000 A 
ATOM      8  C   UNL     1       2.634   7.108  18.721  0.00  0.00    +0.000 A 
ATOM      9  C   UNL     1       2.789   8.062  17.732  0.00  0.00    +0.000 A 
ATOM     10  F   UNL     1       3.488   7.760  16.630  0.00  0.00    +0.000 F 
ATOM     11  C   UNL     1       2.235   9.331  17.861  0.00  0.00    +0.000 A 
ATOM     12  C   UNL     1       1.542   9.716  19.025  0.00  0.00    +0.000 A 
ATOM     13  C   UNL     1       1.347   8.726  20.015  0.00  0.00    +0.000 A 
ATOM     14 CL   UNL     1       0.415   9.037  21.453  0.00  0.00    +0.000 Cl
BRANCH   7  15
ATOM     15  N   UNL     1       1.731   6.403  20.858  0.00  0.00    +0.000 N 
ATOM     16  H   UNL     1       2.144   6.687  21.754  0.00  0.00    +0.000 HD
BRANCH  15  17
ATOM     17  S   UNL     1       2.430   4.895  20.482  0.00  0.00    +0.000 S 
ATOM     18  O   UNL     1       2.278   4.104  21.684  0.00  0.00    +0.000 OA
ATOM     19  O   UNL     1       3.712   5.093  19.846  0.00  0.00    +0.000 OA
BRANCH  17  20
ATOM     20  C   UNL     1       1.269   4.283  19.261  0.00  0.00    +0.000 C 
BRANCH  20  22
ATOM     21  C   UNL     1       2.349   2.207  18.314  0.00  0.00    +0.000 C 
ATOM     22  C   UNL     1       2.006   3.667  18.076  0.00  0.00    +0.000 C 
ENDBRANCH  20  22
ENDBRANCH  17  20
ENDBRANCH  15  17
ENDBRANCH   7  15
ENDBRANCH   1  12
BRANCH   5  23
ATOM     23  C   UNL     1      -1.365  11.147  18.355  0.00  0.00    +0.000 A 
ATOM     24  C   UNL     1      -1.273  10.105  17.461  0.00  0.00    +0.000 A 
ATOM     25  C   UNL     1      -2.466   9.655  16.963  0.00  0.00    +0.000 A 
ATOM     26  N   UNL     1      -3.659  10.166  17.317  0.00  0.00    +0.000 NA
ATOM     27  C   UNL     1      -3.658  11.143  18.234  0.00  0.00    +0.000 A 
ATOM     28  N   UNL     1      -4.843  11.682  18.699  0.00  0.00    +0.000 N 
ATOM     29  N   UNL     1      -2.546  11.662  18.761  0.00  0.00    +0.000 NA
ATOM     30  H   UNL     1      -4.620  12.535  19.198  0.00  0.00    +0.000 HD
BRANCH  28  31
ATOM     31  C   UNL     1      -5.985  11.707  17.798  0.00  0.00    +0.000 C 
ATOM     32  C   UNL     1      -7.220  11.185  18.532  0.00  0.00    +0.000 C 
ATOM     33  C   UNL     1      -6.229  13.147  17.340  0.00  0.00    +0.000 C 
ENDBRANCH  28  31
ENDBRANCH   5  23
BRANCH   3  34
ATOM     34  C   UNL     1       1.703  14.670  19.982  0.00  0.00    +0.000 C 
ATOM     35  C   UNL     1       2.455  15.453  18.923  0.00  0.00    +0.000 C 
ATOM     36  C   UNL     1       1.097  15.900  19.339  0.00  0.00    +0.000 C 
ENDBRANCH   3  34
TORSDOF 8
ENDMDL
