MODEL 1
REMARK VINA RESULT:      -7.2      0.000      0.000
REMARK  Name = 
REMARK  3 active torsions:
REMARK  status: ('A' for Active; 'I' for Inactive)
REMARK    1  A    between atoms: C_2  and  C_11
REMARK    2  A    between atoms: N_3  and  C_4
REMARK    3  A    between atoms: C_4  and  C_5
REMARK                            x       y       z     vdW  Elec       q    Type
REMARK                         _______ _______ _______ _____ _____    ______ ____
ROOT
ATOM      1  O   UNL     1       6.418   4.389  18.868  0.00  0.00    +0.000 OA
ATOM      2  C   UNL     1       5.480   4.379  18.075  0.00  0.00    +0.000 C 
ATOM      3  N   UNL     1       5.630   4.713  16.750  0.00  0.00    +0.000 N 
ATOM      4  H   UNL     1       4.850   4.652  16.109  0.00  0.00    +0.000 HD
ENDROOT
BRANCH   2   5
ATOM      5  C   UNL     1       4.065   3.966  18.467  0.00  0.00    +0.000 C 
ATOM      6  C   UNL     1       3.730   2.567  17.924  0.00  0.00    +0.000 C 
ATOM      7  C   UNL     1       2.270   2.232  18.038  0.00  0.00    +0.000 C 
ATOM      8  C   UNL     1       1.323   3.153  18.275  0.00  0.00    +0.000 C 
ATOM      9  C   UNL     1       1.617   4.618  18.407  0.00  0.00    +0.000 C 
ATOM     10  C   UNL     1       3.034   4.987  17.965  0.00  0.00    +0.000 C 
ENDBRANCH   2   5
BRANCH   3  11
ATOM     11  C   UNL     1       6.916   5.069  16.186  0.00  0.00    +0.000 C 
BRANCH  11  12
ATOM     12  C   UNL     1       6.990   4.789  14.705  0.00  0.00    +0.000 A 
ATOM     13  C   UNL     1       6.168   3.821  14.130  0.00  0.00    +0.000 A 
ATOM     14  C   UNL     1       6.235   3.608  12.757  0.00  0.00    +0.000 A 
ATOM     15  C   UNL     1       7.124   4.356  11.994  0.00  0.00    +0.000 A 
ATOM     16  C   UNL     1       7.921   5.283  12.643  0.00  0.00    +0.000 A 
ATOM     17  N   UNL     1       7.883   5.511  13.975  0.00  0.00    +0.000 NA
ENDBRANCH  11  12
ENDBRANCH   3  11
TORSDOF 3
ENDMDL
MODEL 2
REMARK VINA RESULT:      -7.0      0.857      1.425
REMARK  Name = 
REMARK  3 active torsions:
REMARK  status: ('A' for Active; 'I' for Inactive)
REMARK    1  A    between atoms: C_2  and  C_11
REMARK    2  A    between atoms: N_3  and  C_4
REMARK    3  A    between atoms: C_4  and  C_5
REMARK                            x       y       z     vdW  Elec       q    Type
REMARK                         _______ _______ _______ _____ _____    ______ ____
ROOT
ATOM      1  O   UNL     1       5.795   4.029  18.905  0.00  0.00    +0.000 OA
ATOM      2  C   UNL     1       4.918   4.331  18.099  0.00  0.00    +0.000 C 
ATOM      3  N   UNL     1       5.203   4.872  16.869  0.00  0.00    +0.000 N 
ATOM      4  H   UNL     1       4.465   5.071  16.206  0.00  0.00    +0.000 HD
ENDROOT
BRANCH   2   5
ATOM      5  C   UNL     1       3.434   4.110  18.365  0.00  0.00    +0.000 C 
ATOM      6  C   UNL     1       3.016   4.730  19.707  0.00  0.00    +0.000 C 
ATOM      7  C   UNL     1       1.644   4.302  20.146  0.00  0.00    +0.000 C 
ATOM      8  C   UNL     1       0.995   3.258  19.609  0.00  0.00    +0.000 C 
ATOM      9  C   UNL     1       1.588   2.382  18.545  0.00  0.00    +0.000 C 
ATOM     10  C   UNL     1       3.087   2.614  18.344  0.00  0.00    +0.000 C 
ENDBRANCH   2   5
BRANCH   3  11
ATOM     11  C   UNL     1       6.563   5.094  16.420  0.00  0.00    +0.000 C 
BRANCH  11  12
ATOM     12  C   UNL     1       6.740   4.785  14.953  0.00  0.00    +0.000 A 
ATOM     13  C   UNL     1       5.917   3.851  14.326  0.00  0.00    +0.000 A 
ATOM     14  C   UNL     1       6.081   3.612  12.965  0.00  0.00    +0.000 A 
ATOM     15  C   UNL     1       7.068   4.299  12.268  0.00  0.00    +0.000 A 
ATOM     16  C   UNL     1       7.859   5.194  12.967  0.00  0.00    +0.000 A 
ATOM     17  N   UNL     1       7.726   5.446  14.289  0.00  0.00    +0.000 NA
ENDBRANCH  11  12
ENDBRANCH   3  11
TORSDOF 3
ENDMDL
MODEL 3
REMARK VINA RESULT:      -6.8      2.776      3.880
REMARK  Name = 
REMARK  3 active torsions:
REMARK  status: ('A' for Active; 'I' for Inactive)
REMARK    1  A    between atoms: C_2  and  C_11
REMARK    2  A    between atoms: N_3  and  C_4
REMARK    3  A    between atoms: C_4  and  C_5
REMARK                            x       y       z     vdW  Elec       q    Type
REMARK                         _______ _______ _______ _____ _____    ______ ____
ROOT
ATOM      1  O   UNL     1       3.253   6.702  17.503  0.00  0.00    +0.000 OA
ATOM      2  C   UNL     1       3.263   5.506  17.781  0.00  0.00    +0.000 C 
ATOM      3  N   UNL     1       4.218   4.644  17.299  0.00  0.00    +0.000 N 
ATOM      4  H   UNL     1       4.229   3.672  17.579  0.00  0.00    +0.000 HD
ENDROOT
BRANCH   2   5
ATOM      5  C   UNL     1       2.240   4.860  18.710  0.00  0.00    +0.000 C 
ATOM      6  C   UNL     1       2.752   4.836  20.159  0.00  0.00    +0.000 C 
ATOM      7  C   UNL     1       1.916   3.968  21.058  0.00  0.00    +0.000 C 
ATOM      8  C   UNL     1       1.036   3.068  20.595  0.00  0.00    +0.000 C 
ATOM      9  C   UNL     1       0.824   2.802  19.134  0.00  0.00    +0.000 C 
ATOM     10  C   UNL     1       1.897   3.436  18.248  0.00  0.00    +0.000 C 
ENDBRANCH   2   5
BRANCH   3  11
ATOM     11  C   UNL     1       5.306   5.094  16.453  0.00  0.00    +0.000 C 
BRANCH  11  12
ATOM     12  C   UNL     1       6.344   5.874  17.222  0.00  0.00    +0.000 A 
ATOM     13  C   UNL     1       6.988   5.300  18.317  0.00  0.00    +0.000 A 
ATOM     14  C   UNL     1       7.965   6.032  18.985  0.00  0.00    +0.000 A 
ATOM     15  C   UNL     1       8.268   7.318  18.553  0.00  0.00    +0.000 A 
ATOM     16  C   UNL     1       7.569   7.824  17.470  0.00  0.00    +0.000 A 
ATOM     17  N   UNL     1       6.612   7.140  16.803  0.00  0.00    +0.000 NA
ENDBRANCH  11  12
ENDBRANCH   3  11
TORSDOF 3
ENDMDL
MODEL 4
REMARK VINA RESULT:      -6.8      1.214      1.348
REMARK  Name = 
REMARK  3 active torsions:
REMARK  status: ('A' for Active; 'I' for Inactive)
REMARK    1  A    between atoms: C_2  and  C_11
REMARK    2  A    between atoms: N_3  and  C_4
REMARK    3  A    between atoms: C_4  and  C_5
REMARK                            x       y       z     vdW  Elec       q    Type
REMARK                         _______ _______ _______ _____ _____    ______ ____
ROOT
ATOM      1  O   UNL     1       4.446   5.968  17.003  0.00  0.00    +0.000 OA
ATOM      2  C   UNL     1       4.702   4.815  17.341  0.00  0.00    +0.000 C 
ATOM      3  N   UNL     1       5.909   4.217  17.069  0.00  0.00    +0.000 N 
ATOM      4  H   UNL     1       6.110   3.282  17.397  0.00  0.00    +0.000 HD
ENDROOT
BRANCH   2   5
ATOM      5  C   UNL     1       3.725   3.942  18.121  0.00  0.00    +0.000 C 
ATOM      6  C   UNL     1       2.360   3.880  17.418  0.00  0.00    +0.000 C 
ATOM      7  C   UNL     1       1.288   3.271  18.277  0.00  0.00    +0.000 C 
ATOM      8  C   UNL     1       1.417   3.105  19.602  0.00  0.00    +0.000 C 
ATOM      9  C   UNL     1       2.626   3.550  20.371  0.00  0.00    +0.000 C 
ATOM     10  C   UNL     1       3.554   4.454  19.559  0.00  0.00    +0.000 C 
ENDBRANCH   2   5
BRANCH   3  11
ATOM     11  C   UNL     1       6.981   4.918  16.391  0.00  0.00    +0.000 C 
BRANCH  11  12
ATOM     12  C   UNL     1       6.975   4.674  14.902  0.00  0.00    +0.000 A 
ATOM     13  C   UNL     1       6.091   3.751  14.344  0.00  0.00    +0.000 A 
ATOM     14  C   UNL     1       6.086   3.572  12.964  0.00  0.00    +0.000 A 
ATOM     15  C   UNL     1       6.966   4.306  12.178  0.00  0.00    +0.000 A 
ATOM     16  C   UNL     1       7.826   5.187  12.810  0.00  0.00    +0.000 A 
ATOM     17  N   UNL     1       7.859   5.381  14.148  0.00  0.00    +0.000 NA
ENDBRANCH  11  12
ENDBRANCH   3  11
TORSDOF 3
ENDMDL
MODEL 5
REMARK VINA RESULT:      -6.8      1.343      1.480
REMARK  Name = 
REMARK  3 active torsions:
REMARK  status: ('A' for Active; 'I' for Inactive)
REMARK    1  A    between atoms: C_2  and  C_11
REMARK    2  A    between atoms: N_3  and  C_4
REMARK    3  A    between atoms: C_4  and  C_5
REMARK                            x       y       z     vdW  Elec       q    Type
REMARK                         _______ _______ _______ _____ _____    ______ ____
ROOT
ATOM      1  O   UNL     1       6.019   4.183  19.295  0.00  0.00    +0.000 OA
ATOM      2  C   UNL     1       4.911   4.417  18.820  0.00  0.00    +0.000 C 
ATOM      3  N   UNL     1       4.732   5.247  17.740  0.00  0.00    +0.000 N 
ATOM      4  H   UNL     1       3.813   5.388  17.341  0.00  0.00    +0.000 HD
ENDROOT
BRANCH   2   5
ATOM      5  C   UNL     1       3.628   3.791  19.356  0.00  0.00    +0.000 C 
ATOM      6  C   UNL     1       2.755   3.257  18.209  0.00  0.00    +0.000 C 
ATOM      7  C   UNL     1       1.368   2.889  18.654  0.00  0.00    +0.000 C 
ATOM      8  C   UNL     1       0.846   3.282  19.826  0.00  0.00    +0.000 C 
ATOM      9  C   UNL     1       1.575   4.165  20.794  0.00  0.00    +0.000 C 
ATOM     10  C   UNL     1       2.832   4.800  20.198  0.00  0.00    +0.000 C 
ENDBRANCH   2   5
BRANCH   3  11
ATOM     11  C   UNL     1       5.845   5.880  17.061  0.00  0.00    +0.000 C 
BRANCH  11  12
ATOM     12  C   UNL     1       6.125   5.256  15.715  0.00  0.00    +0.000 A 
ATOM     13  C   UNL     1       5.196   4.397  15.131  0.00  0.00    +0.000 A 
ATOM     14  C   UNL     1       5.466   3.864  13.874  0.00  0.00    +0.000 A 
ATOM     15  C   UNL     1       6.657   4.191  13.238  0.00  0.00    +0.000 A 
ATOM     16  C   UNL     1       7.538   5.035  13.893  0.00  0.00    +0.000 A 
ATOM     17  N   UNL     1       7.306   5.565  15.115  0.00  0.00    +0.000 NA
ENDBRANCH  11  12
ENDBRANCH   3  11
TORSDOF 3
ENDMDL
MODEL 6
REMARK VINA RESULT:      -6.8      2.664      3.807
REMARK  Name = 
REMARK  3 active torsions:
REMARK  status: ('A' for Active; 'I' for Inactive)
REMARK    1  A    between atoms: C_2  and  C_11
REMARK    2  A    between atoms: N_3  and  C_4
REMARK    3  A    between atoms: C_4  and  C_5
REMARK                            x       y       z     vdW  Elec       q    Type
REMARK                         _______ _______ _______ _____ _____    ______ ____
ROOT
ATOM      1  O   UNL     1       3.582   5.223  17.396  0.00  0.00    +0.000 OA
ATOM      2  C   UNL     1       3.868   4.105  17.816  0.00  0.00    +0.000 C 
ATOM      3  N   UNL     1       5.031   3.461  17.466  0.00  0.00    +0.000 N 
ATOM      4  H   UNL     1       5.263   2.559  17.861  0.00  0.00    +0.000 HD
ENDROOT
BRANCH   2   5
ATOM      5  C   UNL     1       2.985   3.332  18.789  0.00  0.00    +0.000 C 
ATOM      6  C   UNL     1       1.497   3.558  18.479  0.00  0.00    +0.000 C 
ATOM      7  C   UNL     1       0.592   3.053  19.567  0.00  0.00    +0.000 C 
ATOM      8  C   UNL     1       1.027   2.744  20.798  0.00  0.00    +0.000 C 
ATOM      9  C   UNL     1       2.453   2.913  21.231  0.00  0.00    +0.000 C 
ATOM     10  C   UNL     1       3.287   3.728  20.242  0.00  0.00    +0.000 C 
ENDBRANCH   2   5
BRANCH   3  11
ATOM     11  C   UNL     1       6.020   4.071  16.600  0.00  0.00    +0.000 C 
BRANCH  11  12
ATOM     12  C   UNL     1       6.794   5.164  17.296  0.00  0.00    +0.000 A 
ATOM     13  C   UNL     1       6.861   6.441  16.743  0.00  0.00    +0.000 A 
ATOM     14  C   UNL     1       7.554   7.437  17.425  0.00  0.00    +0.000 A 
ATOM     15  C   UNL     1       8.171   7.132  18.632  0.00  0.00    +0.000 A 
ATOM     16  C   UNL     1       8.076   5.835  19.105  0.00  0.00    +0.000 A 
ATOM     17  N   UNL     1       7.414   4.845  18.464  0.00  0.00    +0.000 NA
ENDBRANCH  11  12
ENDBRANCH   3  11
TORSDOF 3
ENDMDL
MODEL 7
REMARK VINA RESULT:      -6.8      3.105      6.679
REMARK  Name = 
REMARK  3 active torsions:
REMARK  status: ('A' for Active; 'I' for Inactive)
REMARK    1  A    between atoms: C_2  and  C_11
REMARK    2  A    between atoms: N_3  and  C_4
REMARK    3  A    between atoms: C_4  and  C_5
REMARK                            x       y       z     vdW  Elec       q    Type
REMARK                         _______ _______ _______ _____ _____    ______ ____
ROOT
ATOM      1  O   UNL     1       4.438   4.758  16.195  0.00  0.00    +0.000 OA
ATOM      2  C   UNL     1       5.187   4.600  17.155  0.00  0.00    +0.000 C 
ATOM      3  N   UNL     1       4.980   3.624  18.100  0.00  0.00    +0.000 N 
ATOM      4  H   UNL     1       5.637   3.486  18.856  0.00  0.00    +0.000 HD
ENDROOT
BRANCH   2   5
ATOM      5  C   UNL     1       6.436   5.444  17.382  0.00  0.00    +0.000 C 
ATOM      6  C   UNL     1       7.007   5.215  18.791  0.00  0.00    +0.000 C 
ATOM      7  C   UNL     1       8.061   6.220  19.163  0.00  0.00    +0.000 C 
ATOM      8  C   UNL     1       8.249   7.367  18.494  0.00  0.00    +0.000 C 
ATOM      9  C   UNL     1       7.400   7.788  17.332  0.00  0.00    +0.000 C 
ATOM     10  C   UNL     1       6.140   6.936  17.170  0.00  0.00    +0.000 C 
ENDBRANCH   2   5
BRANCH   3  11
ATOM     11  C   UNL     1       3.878   2.687  18.011  0.00  0.00    +0.000 C 
BRANCH  11  12
ATOM     12  C   UNL     1       2.943   2.788  19.192  0.00  0.00    +0.000 A 
ATOM     13  C   UNL     1       1.601   3.114  19.002  0.00  0.00    +0.000 A 
ATOM     14  C   UNL     1       0.756   3.167  20.106  0.00  0.00    +0.000 A 
ATOM     15  C   UNL     1       1.271   2.905  21.370  0.00  0.00    +0.000 A 
ATOM     16  C   UNL     1       2.619   2.609  21.478  0.00  0.00    +0.000 A 
ATOM     17  N   UNL     1       3.466   2.554  20.425  0.00  0.00    +0.000 NA
ENDBRANCH  11  12
ENDBRANCH   3  11
TORSDOF 3
ENDMDL
MODEL 8
REMARK VINA RESULT:      -6.7      2.709      3.919
REMARK  Name = 
REMARK  3 active torsions:
REMARK  status: ('A' for Active; 'I' for Inactive)
REMARK    1  A    between atoms: C_2  and  C_11
REMARK    2  A    between atoms: N_3  and  C_4
REMARK    3  A    between atoms: C_4  and  C_5
REMARK                            x       y       z     vdW  Elec       q    Type
REMARK                         _______ _______ _______ _____ _____    ______ ____
ROOT
ATOM      1  O   UNL     1       3.622   6.302  17.296  0.00  0.00    +0.000 OA
ATOM      2  C   UNL     1       3.454   5.108  17.533  0.00  0.00    +0.000 C 
ATOM      3  N   UNL     1       4.348   4.144  17.134  0.00  0.00    +0.000 N 
ATOM      4  H   UNL     1       4.208   3.173  17.381  0.00  0.00    +0.000 HD
ENDROOT
BRANCH   2   5
ATOM      5  C   UNL     1       2.259   4.577  18.316  0.00  0.00    +0.000 C 
ATOM      6  C   UNL     1       2.344   4.985  19.795  0.00  0.00    +0.000 C 
ATOM      7  C   UNL     1       1.351   4.260  20.659  0.00  0.00    +0.000 C 
ATOM      8  C   UNL     1       0.699   3.159  20.258  0.00  0.00    +0.000 C 
ATOM      9  C   UNL     1       0.923   2.511  18.924  0.00  0.00    +0.000 C 
ATOM     10  C   UNL     1       2.155   3.049  18.196  0.00  0.00    +0.000 C 
ENDBRANCH   2   5
BRANCH   3  11
ATOM     11  C   UNL     1       5.574   4.472  16.434  0.00  0.00    +0.000 C 
BRANCH  11  12
ATOM     12  C   UNL     1       6.506   5.312  17.274  0.00  0.00    +0.000 A 
ATOM     13  C   UNL     1       6.875   6.588  16.852  0.00  0.00    +0.000 A 
ATOM     14  C   UNL     1       7.708   7.352  17.663  0.00  0.00    +0.000 A 
ATOM     15  C   UNL     1       8.161   6.822  18.865  0.00  0.00    +0.000 A 
ATOM     16  C   UNL     1       7.767   5.539  19.203  0.00  0.00    +0.000 A 
ATOM     17  N   UNL     1       6.961   4.771  18.435  0.00  0.00    +0.000 NA
ENDBRANCH  11  12
ENDBRANCH   3  11
TORSDOF 3
ENDMDL
MODEL 9
REMARK VINA RESULT:      -6.7      1.523      1.994
REMARK  Name = 
REMARK  3 active torsions:
REMARK  status: ('A' for Active; 'I' for Inactive)
REMARK    1  A    between atoms: C_2  and  C_11
REMARK    2  A    between atoms: N_3  and  C_4
REMARK    3  A    between atoms: C_4  and  C_5
REMARK                            x       y       z     vdW  Elec       q    Type
REMARK                         _______ _______ _______ _____ _____    ______ ____
ROOT
ATOM      1  O   UNL     1       4.069   6.746  17.655  0.00  0.00    +0.000 OA
ATOM      2  C   UNL     1       3.929   5.553  17.913  0.00  0.00    +0.000 C 
ATOM      3  N   UNL     1       4.934   4.635  17.727  0.00  0.00    +0.000 N 
ATOM      4  H   UNL     1       4.807   3.667  17.989  0.00  0.00    +0.000 HD
ENDROOT
BRANCH   2   5
ATOM      5  C   UNL     1       2.643   4.975  18.492  0.00  0.00    +0.000 C 
ATOM      6  C   UNL     1       2.622   5.104  20.023  0.00  0.00    +0.000 C 
ATOM      7  C   UNL     1       1.520   4.306  20.661  0.00  0.00    +0.000 C 
ATOM      8  C   UNL     1       0.845   3.342  20.016  0.00  0.00    +0.000 C 
ATOM      9  C   UNL     1       1.149   2.931  18.606  0.00  0.00    +0.000 C 
ATOM     10  C   UNL     1       2.467   3.504  18.084  0.00  0.00    +0.000 C 
ENDBRANCH   2   5
BRANCH   3  11
ATOM     11  C   UNL     1       6.247   5.016  17.244  0.00  0.00    +0.000 C 
BRANCH  11  12
ATOM     12  C   UNL     1       6.414   4.751  15.768  0.00  0.00    +0.000 A 
ATOM     13  C   UNL     1       5.521   3.917  15.097  0.00  0.00    +0.000 A 
ATOM     14  C   UNL     1       5.680   3.718  13.729  0.00  0.00    +0.000 A 
ATOM     15  C   UNL     1       6.730   4.345  13.068  0.00  0.00    +0.000 A 
ATOM     16  C   UNL     1       7.586   5.141  13.809  0.00  0.00    +0.000 A 
ATOM     17  N   UNL     1       7.460   5.351  15.139  0.00  0.00    +0.000 NA
ENDBRANCH  11  12
ENDBRANCH   3  11
TORSDOF 3
ENDMDL
