MODEL 1
REMARK VINA RESULT:      -7.9      0.000      0.000
REMARK  Name = 
REMARK  9 active torsions:
REMARK  status: ('A' for Active; 'I' for Inactive)
REMARK    1  A    between atoms: C_1  and  N_2
REMARK    2  A    between atoms: C_4  and  N_5
REMARK    3  A    between atoms: C_6  and  C_8
REMARK    4  A    between atoms: C_8  and  C_9
REMARK    5  A    between atoms: C_9  and  C_10
REMARK    6  A    between atoms: C_12  and  C_13
REMARK    7  A    between atoms: C_16  and  O_17
REMARK    8  A    between atoms: C_22  and  C_23
REMARK    9  A    between atoms: C_23  and  O_25
REMARK                            x       y       z     vdW  Elec       q    Type
REMARK                         _______ _______ _______ _____ _____    ______ ____
ROOT
ATOM      1  C   UNL     1       8.251   9.150  17.520  0.00  0.00    +0.000 C 
ENDROOT
BRANCH   1   3
ATOM      2  N   UNL     1       6.371   7.654  16.992  0.00  0.00    +0.000 N 
ATOM      3  C   UNL     1       7.524   7.832  17.744  0.00  0.00    +0.000 C 
ATOM      4  O   UNL     1       7.981   7.010  18.539  0.00  0.00    +0.000 OA
ATOM      5  H   UNL     1       6.135   8.308  16.248  0.00  0.00    +0.000 HD
BRANCH   2   9
ATOM      6  C   UNL     1       2.541   4.758  18.023  0.00  0.00    +0.000 C 
ATOM      7  N   UNL     1       3.833   5.191  17.542  0.00  0.00    +0.000 N 
ATOM      8  C   UNL     1       4.273   6.478  17.542  0.00  0.00    +0.000 A 
ATOM      9  C   UNL     1       5.573   6.511  17.087  0.00  0.00    +0.000 A 
ATOM     10  C   UNL     1       5.927   5.158  16.745  0.00  0.00    +0.000 A 
ATOM     11  C   UNL     1       4.812   4.375  17.044  0.00  0.00    +0.000 A 
BRANCH  10  12
ATOM     12  C   UNL     1       7.202   4.688  16.221  0.00  0.00    +0.000 C 
ATOM     13  O   UNL     1       7.509   4.794  15.040  0.00  0.00    +0.000 OA
BRANCH  12  14
ATOM     14  O   UNL     1       8.047   4.136  17.130  0.00  0.00    +0.000 OA
ATOM     15  H   UNL     1       7.590   3.732  17.888  0.00  0.00    +0.000 HD
ENDBRANCH  12  14
ENDBRANCH  10  12
ENDBRANCH   2   9
ENDBRANCH   1   3
BRANCH   1  16
ATOM     16  C   UNL     1       8.830   9.603  18.864  0.00  0.00    +0.000 C 
BRANCH  16  17
ATOM     17  C   UNL     1       9.580  10.875  18.827  0.00  0.00    +0.000 A 
ATOM     18  N   UNL     1       9.175  12.048  18.399  0.00  0.00    +0.000 NA
ATOM     19  C   UNL     1      10.337  12.800  18.424  0.00  0.00    +0.000 A 
ATOM     20  N   UNL     1      11.404  12.118  18.882  0.00  0.00    +0.000 NA
ATOM     21  O   UNL     1      10.905  10.841  19.136  0.00  0.00    +0.000 OA
BRANCH  19  22
ATOM     22  C   UNL     1      10.366  14.192  17.956  0.00  0.00    +0.000 A 
ATOM     23  C   UNL     1      11.534  14.713  17.395  0.00  0.00    +0.000 A 
ATOM     24  C   UNL     1      11.560  16.043  16.974  0.00  0.00    +0.000 A 
ATOM     25  C   UNL     1      10.418  16.813  17.129  0.00  0.00    +0.000 A 
ATOM     26  C   UNL     1       9.294  16.227  17.691  0.00  0.00    +0.000 A 
ATOM     27  N   UNL     1       9.241  14.940  18.108  0.00  0.00    +0.000 NA
BRANCH  25  28
ATOM     28  O   UNL     1      10.375  18.118  16.747  0.00  0.00    +0.000 OA
ATOM     29  H   UNL     1       9.909  18.184  15.898  0.00  0.00    +0.000 HD
ENDBRANCH  25  28
ENDBRANCH  19  22
ENDBRANCH  16  17
ENDBRANCH   1  16
TORSDOF 8
ENDMDL
MODEL 2
REMARK VINA RESULT:      -7.8      0.964      1.236
REMARK  Name = 
REMARK  9 active torsions:
REMARK  status: ('A' for Active; 'I' for Inactive)
REMARK    1  A    between atoms: C_1  and  N_2
REMARK    2  A    between atoms: C_4  and  N_5
REMARK    3  A    between atoms: C_6  and  C_8
REMARK    4  A    between atoms: C_8  and  C_9
REMARK    5  A    between atoms: C_9  and  C_10
REMARK    6  A    between atoms: C_12  and  C_13
REMARK    7  A    between atoms: C_16  and  O_17
REMARK    8  A    between atoms: C_22  and  C_23
REMARK    9  A    between atoms: C_23  and  O_25
REMARK                            x       y       z     vdW  Elec       q    Type
REMARK                         _______ _______ _______ _____ _____    ______ ____
ROOT
ATOM      1  C   UNL     1       7.938   8.750  17.520  0.00  0.00    +0.000 C 
ENDROOT
BRANCH   1   3
ATOM      2  N   UNL     1       6.085   7.241  16.941  0.00  0.00    +0.000 N 
ATOM      3  C   UNL     1       7.219   7.424  17.719  0.00  0.00    +0.000 C 
ATOM      4  O   UNL     1       7.667   6.601  18.518  0.00  0.00    +0.000 OA
ATOM      5  H   UNL     1       5.859   7.898  16.197  0.00  0.00    +0.000 HD
BRANCH   2   9
ATOM      6  C   UNL     1       2.335   4.261  18.029  0.00  0.00    +0.000 C 
ATOM      7  N   UNL     1       3.591   4.734  17.492  0.00  0.00    +0.000 N 
ATOM      8  C   UNL     1       4.029   6.019  17.551  0.00  0.00    +0.000 A 
ATOM      9  C   UNL     1       5.295   6.090  17.010  0.00  0.00    +0.000 A 
ATOM     10  C   UNL     1       5.624   4.767  16.551  0.00  0.00    +0.000 A 
ATOM     11  C   UNL     1       4.533   3.959  16.870  0.00  0.00    +0.000 A 
BRANCH  10  12
ATOM     12  C   UNL     1       6.860   4.341  15.908  0.00  0.00    +0.000 C 
ATOM     13  O   UNL     1       6.959   4.207  14.694  0.00  0.00    +0.000 OA
BRANCH  12  14
ATOM     14  O   UNL     1       7.911   4.114  16.738  0.00  0.00    +0.000 OA
ATOM     15  H   UNL     1       8.749   3.962  16.267  0.00  0.00    +0.000 HD
ENDBRANCH  12  14
ENDBRANCH  10  12
ENDBRANCH   2   9
ENDBRANCH   1   3
BRANCH   1  16
ATOM     16  C   UNL     1       8.813   9.001  18.753  0.00  0.00    +0.000 C 
BRANCH  16  17
ATOM     17  C   UNL     1       9.093  10.422  19.044  0.00  0.00    +0.000 A 
ATOM     18  N   UNL     1       9.249  11.413  18.197  0.00  0.00    +0.000 NA
ATOM     19  C   UNL     1       9.675  12.447  19.012  0.00  0.00    +0.000 A 
ATOM     20  N   UNL     1       9.744  12.108  20.313  0.00  0.00    +0.000 NA
ATOM     21  O   UNL     1       9.372  10.763  20.331  0.00  0.00    +0.000 OA
BRANCH  19  22
ATOM     22  C   UNL     1      10.037  13.762  18.465  0.00  0.00    +0.000 A 
ATOM     23  C   UNL     1       9.412  14.913  18.952  0.00  0.00    +0.000 A 
ATOM     24  C   UNL     1       9.744  16.156  18.411  0.00  0.00    +0.000 A 
ATOM     25  C   UNL     1      10.690  16.209  17.399  0.00  0.00    +0.000 A 
ATOM     26  C   UNL     1      11.271  15.026  16.970  0.00  0.00    +0.000 A 
ATOM     27  N   UNL     1      10.967  13.808  17.476  0.00  0.00    +0.000 NA
BRANCH  25  28
ATOM     28  O   UNL     1      11.056  17.386  16.821  0.00  0.00    +0.000 OA
ATOM     29  H   UNL     1      11.043  18.086  17.495  0.00  0.00    +0.000 HD
ENDBRANCH  25  28
ENDBRANCH  19  22
ENDBRANCH  16  17
ENDBRANCH   1  16
TORSDOF 8
ENDMDL
MODEL 3
REMARK VINA RESULT:      -7.7      2.180     10.022
REMARK  Name = 
REMARK  9 active torsions:
REMARK  status: ('A' for Active; 'I' for Inactive)
REMARK    1  A    between atoms: C_1  and  N_2
REMARK    2  A    between atoms: C_4  and  N_5
REMARK    3  A    between atoms: C_6  and  C_8
REMARK    4  A    between atoms: C_8  and  C_9
REMARK    5  A    between atoms: C_9  and  C_10
REMARK    6  A    between atoms: C_12  and  C_13
REMARK    7  A    between atoms: C_16  and  O_17
REMARK    8  A    between atoms: C_22  and  C_23
REMARK    9  A    between atoms: C_23  and  O_25
REMARK                            x       y       z     vdW  Elec       q    Type
REMARK                         _______ _______ _______ _____ _____    ______ ____
ROOT
ATOM      1  C   UNL     1       8.845   8.949  18.511  0.00  0.00    +0.000 C 
ENDROOT
BRANCH   1   3
ATOM      2  N   UNL     1       8.879  11.341  17.938  0.00  0.00    +0.000 N 
ATOM      3  C   UNL     1       9.048  10.395  18.940  0.00  0.00    +0.000 C 
ATOM      4  O   UNL     1       9.327  10.651  20.111  0.00  0.00    +0.000 OA
ATOM      5  H   UNL     1       8.503  11.070  17.031  0.00  0.00    +0.000 HD
BRANCH   2   9
ATOM      6  C   UNL     1       7.939  15.949  19.353  0.00  0.00    +0.000 C 
ATOM      7  N   UNL     1       8.630  14.805  18.803  0.00  0.00    +0.000 N 
ATOM      8  C   UNL     1       8.169  13.526  18.838  0.00  0.00    +0.000 A 
ATOM      9  C   UNL     1       9.045  12.712  18.153  0.00  0.00    +0.000 A 
ATOM     10  C   UNL     1      10.131  13.548  17.714  0.00  0.00    +0.000 A 
ATOM     11  C   UNL     1       9.828  14.839  18.143  0.00  0.00    +0.000 A 
BRANCH  10  12
ATOM     12  C   UNL     1      11.300  13.140  16.946  0.00  0.00    +0.000 C 
ATOM     13  O   UNL     1      12.096  12.302  17.353  0.00  0.00    +0.000 OA
BRANCH  12  14
ATOM     14  O   UNL     1      11.450  13.735  15.735  0.00  0.00    +0.000 OA
ATOM     15  H   UNL     1      11.755  13.126  15.040  0.00  0.00    +0.000 HD
ENDBRANCH  12  14
ENDBRANCH  10  12
ENDBRANCH   2   9
ENDBRANCH   1   3
BRANCH   1  16
ATOM     16  C   UNL     1       7.604   8.894  17.614  0.00  0.00    +0.000 C 
BRANCH  16  17
ATOM     17  C   UNL     1       7.101   7.536  17.322  0.00  0.00    +0.000 A 
ATOM     18  N   UNL     1       6.055   6.927  17.829  0.00  0.00    +0.000 NA
ATOM     19  C   UNL     1       6.186   5.638  17.344  0.00  0.00    +0.000 A 
ATOM     20  N   UNL     1       7.256   5.476  16.543  0.00  0.00    +0.000 NA
ATOM     21  O   UNL     1       7.869   6.729  16.540  0.00  0.00    +0.000 OA
BRANCH  19  22
ATOM     22  C   UNL     1       5.246   4.573  17.717  0.00  0.00    +0.000 A 
ATOM     23  C   UNL     1       4.192   4.244  16.861  0.00  0.00    +0.000 A 
ATOM     24  C   UNL     1       3.289   3.247  17.234  0.00  0.00    +0.000 A 
ATOM     25  C   UNL     1       3.467   2.611  18.452  0.00  0.00    +0.000 A 
ATOM     26  C   UNL     1       4.537   2.987  19.248  0.00  0.00    +0.000 A 
ATOM     27  N   UNL     1       5.428   3.950  18.911  0.00  0.00    +0.000 NA
BRANCH  25  28
ATOM     28  O   UNL     1       2.621   1.636  18.882  0.00  0.00    +0.000 OA
ATOM     29  H   UNL     1       1.821   1.645  18.330  0.00  0.00    +0.000 HD
ENDBRANCH  25  28
ENDBRANCH  19  22
ENDBRANCH  16  17
ENDBRANCH   1  16
TORSDOF 8
ENDMDL
MODEL 4
REMARK VINA RESULT:      -7.7      7.191      9.403
REMARK  Name = 
REMARK  9 active torsions:
REMARK  status: ('A' for Active; 'I' for Inactive)
REMARK    1  A    between atoms: C_1  and  N_2
REMARK    2  A    between atoms: C_4  and  N_5
REMARK    3  A    between atoms: C_6  and  C_8
REMARK    4  A    between atoms: C_8  and  C_9
REMARK    5  A    between atoms: C_9  and  C_10
REMARK    6  A    between atoms: C_12  and  C_13
REMARK    7  A    between atoms: C_16  and  O_17
REMARK    8  A    between atoms: C_22  and  C_23
REMARK    9  A    between atoms: C_23  and  O_25
REMARK                            x       y       z     vdW  Elec       q    Type
REMARK                         _______ _______ _______ _____ _____    ______ ____
ROOT
ATOM      1  C   UNL     1       1.554   3.062  21.393  0.00  0.00    +0.000 C 
ENDROOT
BRANCH   1   3
ATOM      2  N   UNL     1       1.871   5.494  21.204  0.00  0.00    +0.000 N 
ATOM      3  C   UNL     1       1.331   4.355  20.623  0.00  0.00    +0.000 C 
ATOM      4  O   UNL     1       0.719   4.332  19.554  0.00  0.00    +0.000 OA
ATOM      5  H   UNL     1       2.491   5.417  22.008  0.00  0.00    +0.000 HD
BRANCH   2   9
ATOM      6  C   UNL     1       0.278  10.076  20.436  0.00  0.00    +0.000 C 
ATOM      7  N   UNL     1       1.034   8.852  20.292  0.00  0.00    +0.000 N 
ATOM      8  C   UNL     1       0.942   7.778  21.122  0.00  0.00    +0.000 A 
ATOM      9  C   UNL     1       1.745   6.767  20.640  0.00  0.00    +0.000 A 
ATOM     10  C   UNL     1       2.400   7.280  19.466  0.00  0.00    +0.000 A 
ATOM     11  C   UNL     1       1.927   8.580  19.292  0.00  0.00    +0.000 A 
BRANCH  10  12
ATOM     12  C   UNL     1       3.344   6.578  18.608  0.00  0.00    +0.000 C 
ATOM     13  O   UNL     1       3.129   6.372  17.420  0.00  0.00    +0.000 OA
BRANCH  12  14
ATOM     14  O   UNL     1       4.497   6.175  19.203  0.00  0.00    +0.000 OA
ATOM     15  H   UNL     1       5.144   5.800  18.579  0.00  0.00    +0.000 HD
ENDBRANCH  12  14
ENDBRANCH  10  12
ENDBRANCH   2   9
ENDBRANCH   1   3
BRANCH   1  16
ATOM     16  C   UNL     1       3.027   2.669  21.236  0.00  0.00    +0.000 C 
BRANCH  16  17
ATOM     17  C   UNL     1       3.530   2.663  19.847  0.00  0.00    +0.000 A 
ATOM     18  N   UNL     1       4.504   3.374  19.330  0.00  0.00    +0.000 NA
ATOM     19  C   UNL     1       4.398   3.099  17.977  0.00  0.00    +0.000 A 
ATOM     20  N   UNL     1       3.416   2.227  17.686  0.00  0.00    +0.000 NA
ATOM     21  O   UNL     1       2.832   1.949  18.922  0.00  0.00    +0.000 OA
BRANCH  19  22
ATOM     22  C   UNL     1       5.272   3.743  16.988  0.00  0.00    +0.000 A 
ATOM     23  C   UNL     1       4.982   3.632  15.626  0.00  0.00    +0.000 A 
ATOM     24  C   UNL     1       5.829   4.227  14.691  0.00  0.00    +0.000 A 
ATOM     25  C   UNL     1       6.943   4.915  15.147  0.00  0.00    +0.000 A 
ATOM     26  C   UNL     1       7.166   4.987  16.513  0.00  0.00    +0.000 A 
ATOM     27  N   UNL     1       6.361   4.419  17.441  0.00  0.00    +0.000 NA
BRANCH  25  28
ATOM     28  O   UNL     1       7.816   5.513  14.291  0.00  0.00    +0.000 OA
ATOM     29  H   UNL     1       8.720   5.241  14.521  0.00  0.00    +0.000 HD
ENDBRANCH  25  28
ENDBRANCH  19  22
ENDBRANCH  16  17
ENDBRANCH   1  16
TORSDOF 8
ENDMDL
MODEL 5
REMARK VINA RESULT:      -7.7      6.885      7.960
REMARK  Name = 
REMARK  9 active torsions:
REMARK  status: ('A' for Active; 'I' for Inactive)
REMARK    1  A    between atoms: C_1  and  N_2
REMARK    2  A    between atoms: C_4  and  N_5
REMARK    3  A    between atoms: C_6  and  C_8
REMARK    4  A    between atoms: C_8  and  C_9
REMARK    5  A    between atoms: C_9  and  C_10
REMARK    6  A    between atoms: C_12  and  C_13
REMARK    7  A    between atoms: C_16  and  O_17
REMARK    8  A    between atoms: C_22  and  C_23
REMARK    9  A    between atoms: C_23  and  O_25
REMARK                            x       y       z     vdW  Elec       q    Type
REMARK                         _______ _______ _______ _____ _____    ______ ____
ROOT
ATOM      1  C   UNL     1       2.362   4.890  18.682  0.00  0.00    +0.000 C 
ENDROOT
BRANCH   1   3
ATOM      2  N   UNL     1       4.129   5.204  17.000  0.00  0.00    +0.000 N 
ATOM      3  C   UNL     1       3.450   4.295  17.800  0.00  0.00    +0.000 C 
ATOM      4  O   UNL     1       3.679   3.086  17.844  0.00  0.00    +0.000 OA
ATOM      5  H   UNL     1       3.990   6.205  17.125  0.00  0.00    +0.000 HD
BRANCH   2   9
ATOM      6  C   UNL     1       6.379   3.783  12.872  0.00  0.00    +0.000 C 
ATOM      7  N   UNL     1       6.175   4.191  14.243  0.00  0.00    +0.000 N 
ATOM      8  C   UNL     1       4.984   4.585  14.770  0.00  0.00    +0.000 A 
ATOM      9  C   UNL     1       5.145   4.826  16.117  0.00  0.00    +0.000 A 
ATOM     10  C   UNL     1       6.536   4.608  16.415  0.00  0.00    +0.000 A 
ATOM     11  C   UNL     1       7.135   4.217  15.218  0.00  0.00    +0.000 A 
BRANCH  10  12
ATOM     12  C   UNL     1       7.188   4.737  17.711  0.00  0.00    +0.000 C 
ATOM     13  O   UNL     1       6.711   5.395  18.627  0.00  0.00    +0.000 OA
BRANCH  12  14
ATOM     14  O   UNL     1       8.360   4.064  17.853  0.00  0.00    +0.000 OA
ATOM     15  H   UNL     1       8.867   3.993  17.026  0.00  0.00    +0.000 HD
ENDBRANCH  12  14
ENDBRANCH  10  12
ENDBRANCH   2   9
ENDBRANCH   1   3
BRANCH   1  16
ATOM     16  C   UNL     1       2.966   6.078  19.438  0.00  0.00    +0.000 C 
BRANCH  16  17
ATOM     17  C   UNL     1       2.534   7.408  18.963  0.00  0.00    +0.000 A 
ATOM     18  N   UNL     1       1.760   8.278  19.568  0.00  0.00    +0.000 NA
ATOM     19  C   UNL     1       1.550   9.234  18.589  0.00  0.00    +0.000 A 
ATOM     20  N   UNL     1       2.199   8.971  17.439  0.00  0.00    +0.000 NA
ATOM     21  O   UNL     1       2.839   7.756  17.683  0.00  0.00    +0.000 OA
BRANCH  19  22
ATOM     22  C   UNL     1       0.670  10.388  18.813  0.00  0.00    +0.000 A 
ATOM     23  C   UNL     1      -0.704  10.195  18.972  0.00  0.00    +0.000 A 
ATOM     24  C   UNL     1      -1.536  11.299  19.163  0.00  0.00    +0.000 A 
ATOM     25  C   UNL     1      -0.969  12.563  19.186  0.00  0.00    +0.000 A 
ATOM     26  C   UNL     1       0.403  12.678  19.025  0.00  0.00    +0.000 A 
ATOM     27  N   UNL     1       1.233  11.625  18.839  0.00  0.00    +0.000 NA
BRANCH  25  28
ATOM     28  O   UNL     1      -1.721  13.684  19.360  0.00  0.00    +0.000 OA
ATOM     29  H   UNL     1      -1.214  14.455  19.056  0.00  0.00    +0.000 HD
ENDBRANCH  25  28
ENDBRANCH  19  22
ENDBRANCH  16  17
ENDBRANCH   1  16
TORSDOF 8
ENDMDL
MODEL 6
REMARK VINA RESULT:      -7.7      7.196      9.002
REMARK  Name = 
REMARK  9 active torsions:
REMARK  status: ('A' for Active; 'I' for Inactive)
REMARK    1  A    between atoms: C_1  and  N_2
REMARK    2  A    between atoms: C_4  and  N_5
REMARK    3  A    between atoms: C_6  and  C_8
REMARK    4  A    between atoms: C_8  and  C_9
REMARK    5  A    between atoms: C_9  and  C_10
REMARK    6  A    between atoms: C_12  and  C_13
REMARK    7  A    between atoms: C_16  and  O_17
REMARK    8  A    between atoms: C_22  and  C_23
REMARK    9  A    between atoms: C_23  and  O_25
REMARK                            x       y       z     vdW  Elec       q    Type
REMARK                         _______ _______ _______ _____ _____    ______ ____
ROOT
ATOM      1  C   UNL     1       2.327   3.232  21.352  0.00  0.00    +0.000 C 
ENDROOT
BRANCH   1   3
ATOM      2  N   UNL     1       2.442   5.656  20.955  0.00  0.00    +0.000 N 
ATOM      3  C   UNL     1       1.738   4.484  20.719  0.00  0.00    +0.000 C 
ATOM      4  O   UNL     1       0.713   4.401  20.041  0.00  0.00    +0.000 OA
ATOM      5  H   UNL     1       3.358   5.627  21.397  0.00  0.00    +0.000 HD
BRANCH   2   9
ATOM      6  C   UNL     1       0.294  10.068  20.742  0.00  0.00    +0.000 C 
ATOM      7  N   UNL     1       1.068   8.908  20.363  0.00  0.00    +0.000 N 
ATOM      8  C   UNL     1       1.339   7.853  21.177  0.00  0.00    +0.000 A 
ATOM      9  C   UNL     1       2.032   6.899  20.463  0.00  0.00    +0.000 A 
ATOM     10  C   UNL     1       2.233   7.434  19.143  0.00  0.00    +0.000 A 
ATOM     11  C   UNL     1       1.618   8.686  19.130  0.00  0.00    +0.000 A 
BRANCH  10  12
ATOM     12  C   UNL     1       2.915   6.791  18.027  0.00  0.00    +0.000 C 
ATOM     13  O   UNL     1       3.888   7.288  17.474  0.00  0.00    +0.000 OA
BRANCH  12  14
ATOM     14  O   UNL     1       2.415   5.588  17.643  0.00  0.00    +0.000 OA
ATOM     15  H   UNL     1       2.003   5.090  18.371  0.00  0.00    +0.000 HD
ENDBRANCH  12  14
ENDBRANCH  10  12
ENDBRANCH   2   9
ENDBRANCH   1   3
BRANCH   1  16
ATOM     16  C   UNL     1       3.030   2.433  20.251  0.00  0.00    +0.000 C 
BRANCH  16  17
ATOM     17  C   UNL     1       4.034   3.187  19.473  0.00  0.00    +0.000 A 
ATOM     18  N   UNL     1       4.144   3.294  18.170  0.00  0.00    +0.000 NA
ATOM     19  C   UNL     1       5.356   3.946  18.018  0.00  0.00    +0.000 A 
ATOM     20  N   UNL     1       5.947   4.253  19.188  0.00  0.00    +0.000 NA
ATOM     21  O   UNL     1       5.078   3.738  20.150  0.00  0.00    +0.000 OA
BRANCH  19  22
ATOM     22  C   UNL     1       5.921   4.226  16.691  0.00  0.00    +0.000 A 
ATOM     23  C   UNL     1       7.061   5.024  16.575  0.00  0.00    +0.000 A 
ATOM     24  C   UNL     1       7.578   5.304  15.309  0.00  0.00    +0.000 A 
ATOM     25  C   UNL     1       6.938   4.779  14.198  0.00  0.00    +0.000 A 
ATOM     26  C   UNL     1       5.813   3.992  14.390  0.00  0.00    +0.000 A 
ATOM     27  N   UNL     1       5.290   3.705  15.606  0.00  0.00    +0.000 NA
BRANCH  25  28
ATOM     28  O   UNL     1       7.383   5.018  12.934  0.00  0.00    +0.000 OA
ATOM     29  H   UNL     1       7.585   5.964  12.844  0.00  0.00    +0.000 HD
ENDBRANCH  25  28
ENDBRANCH  19  22
ENDBRANCH  16  17
ENDBRANCH   1  16
TORSDOF 8
ENDMDL
MODEL 7
REMARK VINA RESULT:      -7.6      6.981      8.696
REMARK  Name = 
REMARK  9 active torsions:
REMARK  status: ('A' for Active; 'I' for Inactive)
REMARK    1  A    between atoms: C_1  and  N_2
REMARK    2  A    between atoms: C_4  and  N_5
REMARK    3  A    between atoms: C_6  and  C_8
REMARK    4  A    between atoms: C_8  and  C_9
REMARK    5  A    between atoms: C_9  and  C_10
REMARK    6  A    between atoms: C_12  and  C_13
REMARK    7  A    between atoms: C_16  and  O_17
REMARK    8  A    between atoms: C_22  and  C_23
REMARK    9  A    between atoms: C_23  and  O_25
REMARK                            x       y       z     vdW  Elec       q    Type
REMARK                         _______ _______ _______ _____ _____    ______ ____
ROOT
ATOM      1  C   UNL     1       1.774   4.296  18.984  0.00  0.00    +0.000 C 
ENDROOT
BRANCH   1   3
ATOM      2  N   UNL     1       3.723   5.009  17.664  0.00  0.00    +0.000 N 
ATOM      3  C   UNL     1       3.040   3.936  18.221  0.00  0.00    +0.000 C 
ATOM      4  O   UNL     1       3.397   2.760  18.148  0.00  0.00    +0.000 OA
ATOM      5  H   UNL     1       3.454   5.964  17.890  0.00  0.00    +0.000 HD
BRANCH   2   9
ATOM      6  C   UNL     1       6.710   3.998  13.899  0.00  0.00    +0.000 C 
ATOM      7  N   UNL     1       6.256   4.410  15.207  0.00  0.00    +0.000 N 
ATOM      8  C   UNL     1       4.953   4.515  15.582  0.00  0.00    +0.000 A 
ATOM      9  C   UNL     1       4.894   4.857  16.916  0.00  0.00    +0.000 A 
ATOM     10  C   UNL     1       6.252   5.014  17.365  0.00  0.00    +0.000 A 
ATOM     11  C   UNL     1       7.062   4.728  16.267  0.00  0.00    +0.000 A 
BRANCH  10  12
ATOM     12  C   UNL     1       6.701   5.370  18.704  0.00  0.00    +0.000 C 
ATOM     13  O   UNL     1       6.095   5.031  19.714  0.00  0.00    +0.000 OA
BRANCH  12  14
ATOM     14  O   UNL     1       7.849   6.093  18.772  0.00  0.00    +0.000 OA
ATOM     15  H   UNL     1       7.985   6.523  19.634  0.00  0.00    +0.000 HD
ENDBRANCH  12  14
ENDBRANCH  10  12
ENDBRANCH   2   9
ENDBRANCH   1   3
BRANCH   1  16
ATOM     16  C   UNL     1       2.189   4.982  20.289  0.00  0.00    +0.000 C 
BRANCH  16  17
ATOM     17  C   UNL     1       1.944   6.438  20.337  0.00  0.00    +0.000 A 
ATOM     18  N   UNL     1       1.329   7.132  21.266  0.00  0.00    +0.000 NA
ATOM     19  C   UNL     1       1.231   8.389  20.694  0.00  0.00    +0.000 A 
ATOM     20  N   UNL     1       1.795   8.466  19.474  0.00  0.00    +0.000 NA
ATOM     21  O   UNL     1       2.255   7.171  19.232  0.00  0.00    +0.000 OA
BRANCH  19  22
ATOM     22  C   UNL     1       0.542   9.494  21.373  0.00  0.00    +0.000 A 
ATOM     23  C   UNL     1      -0.215   9.241  22.520  0.00  0.00    +0.000 A 
ATOM     24  C   UNL     1      -0.886  10.291  23.147  0.00  0.00    +0.000 A 
ATOM     25  C   UNL     1      -0.781  11.564  22.606  0.00  0.00    +0.000 A 
ATOM     26  C   UNL     1      -0.010  11.740  21.469  0.00  0.00    +0.000 A 
ATOM     27  N   UNL     1       0.651  10.739  20.841  0.00  0.00    +0.000 NA
BRANCH  25  28
ATOM     28  O   UNL     1      -1.415  12.633  23.161  0.00  0.00    +0.000 OA
ATOM     29  H   UNL     1      -0.787  13.115  23.724  0.00  0.00    +0.000 HD
ENDBRANCH  25  28
ENDBRANCH  19  22
ENDBRANCH  16  17
ENDBRANCH   1  16
TORSDOF 8
ENDMDL
MODEL 8
REMARK VINA RESULT:      -7.6      7.833     11.441
REMARK  Name = 
REMARK  9 active torsions:
REMARK  status: ('A' for Active; 'I' for Inactive)
REMARK    1  A    between atoms: C_1  and  N_2
REMARK    2  A    between atoms: C_4  and  N_5
REMARK    3  A    between atoms: C_6  and  C_8
REMARK    4  A    between atoms: C_8  and  C_9
REMARK    5  A    between atoms: C_9  and  C_10
REMARK    6  A    between atoms: C_12  and  C_13
REMARK    7  A    between atoms: C_16  and  O_17
REMARK    8  A    between atoms: C_22  and  C_23
REMARK    9  A    between atoms: C_23  and  O_25
REMARK                            x       y       z     vdW  Elec       q    Type
REMARK                         _______ _______ _______ _____ _____    ______ ____
ROOT
ATOM      1  C   UNL     1       0.384   9.595  17.735  0.00  0.00    +0.000 C 
ENDROOT
BRANCH   1   3
ATOM      2  N   UNL     1       0.269  10.841  19.852  0.00  0.00    +0.000 N 
ATOM      3  C   UNL     1      -0.446  10.326  18.780  0.00  0.00    +0.000 C 
ATOM      4  O   UNL     1      -1.663  10.436  18.626  0.00  0.00    +0.000 OA
ATOM      5  H   UNL     1       1.287  10.843  19.840  0.00  0.00    +0.000 HD
BRANCH   2   9
ATOM      6  C   UNL     1      -1.817  14.466  22.427  0.00  0.00    +0.000 C 
ATOM      7  N   UNL     1      -1.295  13.163  22.082  0.00  0.00    +0.000 N 
ATOM      8  C   UNL     1      -0.824  12.813  20.855  0.00  0.00    +0.000 A 
ATOM      9  C   UNL     1      -0.337  11.525  20.910  0.00  0.00    +0.000 A 
ATOM     10  C   UNL     1      -0.572  11.049  22.248  0.00  0.00    +0.000 A 
ATOM     11  C   UNL     1      -1.170  12.103  22.938  0.00  0.00    +0.000 A 
BRANCH  10  12
ATOM     12  C   UNL     1      -0.227   9.742  22.789  0.00  0.00    +0.000 C 
ATOM     13  O   UNL     1       0.275   9.599  23.898  0.00  0.00    +0.000 OA
BRANCH  12  14
ATOM     14  O   UNL     1      -0.511   8.678  21.994  0.00  0.00    +0.000 OA
ATOM     15  H   UNL     1      -0.483   7.826  22.464  0.00  0.00    +0.000 HD
ENDBRANCH  12  14
ENDBRANCH  10  12
ENDBRANCH   2   9
ENDBRANCH   1   3
BRANCH   1  16
ATOM     16  C   UNL     1       1.807   9.449  18.282  0.00  0.00    +0.000 C 
BRANCH  16  17
ATOM     17  C   UNL     1       2.114   8.137  18.888  0.00  0.00    +0.000 A 
ATOM     18  N   UNL     1       2.576   7.056  18.304  0.00  0.00    +0.000 NA
ATOM     19  C   UNL     1       2.483   6.104  19.304  0.00  0.00    +0.000 A 
ATOM     20  N   UNL     1       2.012   6.595  20.465  0.00  0.00    +0.000 NA
ATOM     21  O   UNL     1       1.756   7.937  20.186  0.00  0.00    +0.000 OA
BRANCH  19  22
ATOM     22  C   UNL     1       2.842   4.700  19.068  0.00  0.00    +0.000 A 
ATOM     23  C   UNL     1       2.783   3.781  20.119  0.00  0.00    +0.000 A 
ATOM     24  C   UNL     1       3.148   2.453  19.892  0.00  0.00    +0.000 A 
ATOM     25  C   UNL     1       3.564   2.085  18.622  0.00  0.00    +0.000 A 
ATOM     26  C   UNL     1       3.593   3.050  17.628  0.00  0.00    +0.000 A 
ATOM     27  N   UNL     1       3.245   4.344  17.820  0.00  0.00    +0.000 NA
BRANCH  25  28
ATOM     28  O   UNL     1       3.941   0.810  18.332  0.00  0.00    +0.000 OA
ATOM     29  H   UNL     1       4.520   0.821  17.552  0.00  0.00    +0.000 HD
ENDBRANCH  25  28
ENDBRANCH  19  22
ENDBRANCH  16  17
ENDBRANCH   1  16
TORSDOF 8
ENDMDL
MODEL 9
REMARK VINA RESULT:      -7.5      2.661     10.283
REMARK  Name = 
REMARK  9 active torsions:
REMARK  status: ('A' for Active; 'I' for Inactive)
REMARK    1  A    between atoms: C_1  and  N_2
REMARK    2  A    between atoms: C_4  and  N_5
REMARK    3  A    between atoms: C_6  and  C_8
REMARK    4  A    between atoms: C_8  and  C_9
REMARK    5  A    between atoms: C_9  and  C_10
REMARK    6  A    between atoms: C_12  and  C_13
REMARK    7  A    between atoms: C_16  and  O_17
REMARK    8  A    between atoms: C_22  and  C_23
REMARK    9  A    between atoms: C_23  and  O_25
REMARK                            x       y       z     vdW  Elec       q    Type
REMARK                         _______ _______ _______ _____ _____    ______ ____
ROOT
ATOM      1  C   UNL     1       8.509   8.041  18.538  0.00  0.00    +0.000 C 
ENDROOT
BRANCH   1   3
ATOM      2  N   UNL     1       9.664  10.161  19.010  0.00  0.00    +0.000 N 
ATOM      3  C   UNL     1       8.597   9.550  18.366  0.00  0.00    +0.000 C 
ATOM      4  O   UNL     1       7.759  10.137  17.680  0.00  0.00    +0.000 OA
ATOM      5  H   UNL     1      10.400   9.599  19.434  0.00  0.00    +0.000 HD
BRANCH   2   9
ATOM      6  C   UNL     1      10.908  14.602  17.323  0.00  0.00    +0.000 C 
ATOM      7  N   UNL     1      10.438  13.562  18.209  0.00  0.00    +0.000 N 
ATOM      8  C   UNL     1      10.270  12.258  17.860  0.00  0.00    +0.000 A 
ATOM      9  C   UNL     1       9.885  11.540  18.972  0.00  0.00    +0.000 A 
ATOM     10  C   UNL     1       9.768  12.481  20.054  0.00  0.00    +0.000 A 
ATOM     11  C   UNL     1      10.120  13.725  19.531  0.00  0.00    +0.000 A 
BRANCH  10  12
ATOM     12  C   UNL     1       9.389  12.195  21.431  0.00  0.00    +0.000 C 
ATOM     13  O   UNL     1       9.190  13.078  22.257  0.00  0.00    +0.000 OA
BRANCH  12  14
ATOM     14  O   UNL     1       9.252  10.881  21.747  0.00  0.00    +0.000 OA
ATOM     15  H   UNL     1      10.012  10.337  21.475  0.00  0.00    +0.000 HD
ENDBRANCH  12  14
ENDBRANCH  10  12
ENDBRANCH   2   9
ENDBRANCH   1   3
BRANCH   1  16
ATOM     16  C   UNL     1       7.528   7.504  17.491  0.00  0.00    +0.000 C 
BRANCH  16  17
ATOM     17  C   UNL     1       6.722   6.344  17.923  0.00  0.00    +0.000 A 
ATOM     18  N   UNL     1       5.421   6.266  18.074  0.00  0.00    +0.000 NA
ATOM     19  C   UNL     1       5.256   5.028  18.672  0.00  0.00    +0.000 A 
ATOM     20  N   UNL     1       6.413   4.364  18.849  0.00  0.00    +0.000 NA
ATOM     21  O   UNL     1       7.384   5.240  18.366  0.00  0.00    +0.000 OA
BRANCH  19  22
ATOM     22  C   UNL     1       3.933   4.542  19.086  0.00  0.00    +0.000 A 
ATOM     23  C   UNL     1       3.087   5.372  19.825  0.00  0.00    +0.000 A 
ATOM     24  C   UNL     1       1.842   4.895  20.235  0.00  0.00    +0.000 A 
ATOM     25  C   UNL     1       1.481   3.601  19.895  0.00  0.00    +0.000 A 
ATOM     26  C   UNL     1       2.370   2.836  19.156  0.00  0.00    +0.000 A 
ATOM     27  N   UNL     1       3.584   3.273  18.746  0.00  0.00    +0.000 NA
BRANCH  25  28
ATOM     28  O   UNL     1       0.285   3.068  20.267  0.00  0.00    +0.000 OA
ATOM     29  H   UNL     1       0.182   3.164  21.228  0.00  0.00    +0.000 HD
ENDBRANCH  25  28
ENDBRANCH  19  22
ENDBRANCH  16  17
ENDBRANCH   1  16
TORSDOF 8
ENDMDL
