MODEL 1
REMARK VINA RESULT:      -8.2      0.000      0.000
REMARK  Name = 
REMARK  4 active torsions:
REMARK  status: ('A' for Active; 'I' for Inactive)
REMARK    1  A    between atoms: N_9  and  C_10
REMARK    2  A    between atoms: C_10  and  C_11
REMARK    3  A    between atoms: C_14  and  C_15
REMARK    4  A    between atoms: C_15  and  O_16
REMARK                            x       y       z     vdW  Elec       q    Type
REMARK                         _______ _______ _______ _____ _____    ______ ____
ROOT
ATOM      1  N   UNL     1       6.614   5.165  14.385  0.00  0.00    +0.000 N 
ATOM      2  C   UNL     1       6.540   5.271  15.757  0.00  0.00    +0.000 A 
ATOM      3  N   UNL     1       7.335   6.190  16.323  0.00  0.00    +0.000 NA
ATOM      4  C   UNL     1       7.323   6.279  17.665  0.00  0.00    +0.000 A 
ATOM      5 CL   UNL     1       8.318   7.425  18.418  0.00  0.00    +0.000 Cl
ATOM      6  C   UNL     1       6.524   5.470  18.443  0.00  0.00    +0.000 A 
ATOM      7  N   UNL     1       6.306   5.300  19.784  0.00  0.00    +0.000 NA
ATOM      8  N   UNL     1       5.394   4.344  19.932  0.00  0.00    +0.000 NA
ATOM      9  N   UNL     1       5.018   3.944  18.698  0.00  0.00    +0.000 N 
ATOM     10  C   UNL     1       5.725   4.598  17.728  0.00  0.00    +0.000 A 
ATOM     11  N   UNL     1       5.679   4.457  16.391  0.00  0.00    +0.000 NA
ATOM     12  H   UNL     1       6.982   6.013  13.975  0.00  0.00    +0.000 HD
ATOM     13  H   UNL     1       5.771   4.776  13.989  0.00  0.00    +0.000 HD
ENDROOT
BRANCH   9  14
ATOM     14  C   UNL     1       3.990   2.943  18.527  0.00  0.00    +0.000 C 
BRANCH  14  15
ATOM     15  C   UNL     1       2.642   3.505  18.042  0.00  0.00    +0.000 C 
ATOM     16  C   UNL     1       1.455   2.563  18.254  0.00  0.00    +0.000 C 
ATOM     17  C   UNL     1       0.969   2.822  19.676  0.00  0.00    +0.000 C 
ATOM     18  C   UNL     1       1.433   4.241  20.045  0.00  0.00    +0.000 C 
ATOM     19  C   UNL     1       2.210   4.751  18.824  0.00  0.00    +0.000 C 
BRANCH  18  20
ATOM     20  C   UNL     1       2.257   4.284  21.337  0.00  0.00    +0.000 C 
BRANCH  20  21
ATOM     21  O   UNL     1       2.239   3.023  21.991  0.00  0.00    +0.000 OA
ATOM     22  H   UNL     1       1.648   3.097  22.756  0.00  0.00    +0.000 HD
ENDBRANCH  20  21
ENDBRANCH  18  20
ENDBRANCH  14  15
ENDBRANCH   9  14
TORSDOF 4
ENDMDL
MODEL 2
REMARK VINA RESULT:      -7.7      2.025      3.150
REMARK  Name = 
REMARK  4 active torsions:
REMARK  status: ('A' for Active; 'I' for Inactive)
REMARK    1  A    between atoms: N_9  and  C_10
REMARK    2  A    between atoms: C_10  and  C_11
REMARK    3  A    between atoms: C_14  and  C_15
REMARK    4  A    between atoms: C_15  and  O_16
REMARK                            x       y       z     vdW  Elec       q    Type
REMARK                         _______ _______ _______ _____ _____    ______ ____
ROOT
ATOM      1  N   UNL     1       8.520   5.429  19.943  0.00  0.00    +0.000 N 
ATOM      2  C   UNL     1       7.487   5.252  19.049  0.00  0.00    +0.000 A 
ATOM      3  N   UNL     1       7.836   5.113  17.762  0.00  0.00    +0.000 NA
ATOM      4  C   UNL     1       6.845   4.992  16.860  0.00  0.00    +0.000 A 
ATOM      5 CL   UNL     1       7.247   4.820  15.223  0.00  0.00    +0.000 Cl
ATOM      6  C   UNL     1       5.518   4.999  17.229  0.00  0.00    +0.000 A 
ATOM      7  N   UNL     1       4.316   4.923  16.577  0.00  0.00    +0.000 NA
ATOM      8  N   UNL     1       3.352   4.982  17.490  0.00  0.00    +0.000 NA
ATOM      9  N   UNL     1       3.942   5.057  18.702  0.00  0.00    +0.000 N 
ATOM     10  C   UNL     1       5.303   5.107  18.589  0.00  0.00    +0.000 A 
ATOM     11  N   UNL     1       6.239   5.225  19.548  0.00  0.00    +0.000 NA
ATOM     12  H   UNL     1       9.391   5.084  19.564  0.00  0.00    +0.000 HD
ATOM     13  H   UNL     1       8.266   5.144  20.878  0.00  0.00    +0.000 HD
ENDROOT
BRANCH   9  14
ATOM     14  C   UNL     1       3.148   5.080  19.910  0.00  0.00    +0.000 C 
BRANCH  14  15
ATOM     15  C   UNL     1       3.260   3.800  20.758  0.00  0.00    +0.000 C 
ATOM     16  C   UNL     1       2.108   3.596  21.743  0.00  0.00    +0.000 C 
ATOM     17  C   UNL     1       1.009   2.891  20.956  0.00  0.00    +0.000 C 
ATOM     18  C   UNL     1       1.701   2.178  19.782  0.00  0.00    +0.000 C 
ATOM     19  C   UNL     1       3.191   2.526  19.910  0.00  0.00    +0.000 C 
BRANCH  18  20
ATOM     20  C   UNL     1       1.114   2.563  18.419  0.00  0.00    +0.000 C 
BRANCH  20  21
ATOM     21  O   UNL     1       2.101   2.480  17.401  0.00  0.00    +0.000 OA
ATOM     22  H   UNL     1       2.921   2.857  17.756  0.00  0.00    +0.000 HD
ENDBRANCH  20  21
ENDBRANCH  18  20
ENDBRANCH  14  15
ENDBRANCH   9  14
TORSDOF 4
ENDMDL
MODEL 3
REMARK VINA RESULT:      -7.5      1.840      2.876
REMARK  Name = 
REMARK  4 active torsions:
REMARK  status: ('A' for Active; 'I' for Inactive)
REMARK    1  A    between atoms: N_9  and  C_10
REMARK    2  A    between atoms: C_10  and  C_11
REMARK    3  A    between atoms: C_14  and  C_15
REMARK    4  A    between atoms: C_15  and  O_16
REMARK                            x       y       z     vdW  Elec       q    Type
REMARK                         _______ _______ _______ _____ _____    ______ ____
ROOT
ATOM      1  N   UNL     1       8.557   5.158  20.440  0.00  0.00    +0.000 N 
ATOM      2  C   UNL     1       7.904   5.663  19.337  0.00  0.00    +0.000 A 
ATOM      3  N   UNL     1       8.261   6.895  18.950  0.00  0.00    +0.000 NA
ATOM      4  C   UNL     1       7.602   7.434  17.908  0.00  0.00    +0.000 A 
ATOM      5 CL   UNL     1       8.023   8.992  17.393  0.00  0.00    +0.000 Cl
ATOM      6  C   UNL     1       6.601   6.756  17.247  0.00  0.00    +0.000 A 
ATOM      7  N   UNL     1       5.754   7.024  16.206  0.00  0.00    +0.000 NA
ATOM      8  N   UNL     1       4.989   5.954  16.016  0.00  0.00    +0.000 NA
ATOM      9  N   UNL     1       5.377   5.012  16.903  0.00  0.00    +0.000 N 
ATOM     10  C   UNL     1       6.364   5.481  17.724  0.00  0.00    +0.000 A 
ATOM     11  N   UNL     1       6.984   4.874  18.753  0.00  0.00    +0.000 NA
ATOM     12  H   UNL     1       9.440   5.629  20.585  0.00  0.00    +0.000 HD
ATOM     13  H   UNL     1       8.551   4.149  20.455  0.00  0.00    +0.000 HD
ENDROOT
BRANCH   9  14
ATOM     14  C   UNL     1       4.762   3.704  16.908  0.00  0.00    +0.000 C 
BRANCH  14  15
ATOM     15  C   UNL     1       3.253   3.721  17.208  0.00  0.00    +0.000 C 
ATOM     16  C   UNL     1       2.611   2.334  17.284  0.00  0.00    +0.000 C 
ATOM     17  C   UNL     1       2.817   1.859  18.718  0.00  0.00    +0.000 C 
ATOM     18  C   UNL     1       3.005   3.123  19.574  0.00  0.00    +0.000 C 
ATOM     19  C   UNL     1       2.936   4.300  18.591  0.00  0.00    +0.000 C 
BRANCH  18  20
ATOM     20  C   UNL     1       4.303   3.104  20.390  0.00  0.00    +0.000 C 
BRANCH  20  21
ATOM     21  O   UNL     1       5.254   2.224  19.809  0.00  0.00    +0.000 OA
ATOM     22  H   UNL     1       5.489   2.578  18.938  0.00  0.00    +0.000 HD
ENDBRANCH  20  21
ENDBRANCH  18  20
ENDBRANCH  14  15
ENDBRANCH   9  14
TORSDOF 4
ENDMDL
MODEL 4
REMARK VINA RESULT:      -7.5      1.741      2.519
REMARK  Name = 
REMARK  4 active torsions:
REMARK  status: ('A' for Active; 'I' for Inactive)
REMARK    1  A    between atoms: N_9  and  C_10
REMARK    2  A    between atoms: C_10  and  C_11
REMARK    3  A    between atoms: C_14  and  C_15
REMARK    4  A    between atoms: C_15  and  O_16
REMARK                            x       y       z     vdW  Elec       q    Type
REMARK                         _______ _______ _______ _____ _____    ______ ____
ROOT
ATOM      1  N   UNL     1       7.679   7.932  17.436  0.00  0.00    +0.000 N 
ATOM      2  C   UNL     1       7.055   6.743  17.128  0.00  0.00    +0.000 A 
ATOM      3  N   UNL     1       7.393   6.185  15.957  0.00  0.00    +0.000 NA
ATOM      4  C   UNL     1       6.760   5.050  15.605  0.00  0.00    +0.000 A 
ATOM      5 CL   UNL     1       7.156   4.318  14.130  0.00  0.00    +0.000 Cl
ATOM      6  C   UNL     1       5.806   4.467  16.410  0.00  0.00    +0.000 A 
ATOM      7  N   UNL     1       4.993   3.368  16.333  0.00  0.00    +0.000 NA
ATOM      8  N   UNL     1       4.267   3.318  17.446  0.00  0.00    +0.000 NA
ATOM      9  N   UNL     1       4.647   4.352  18.227  0.00  0.00    +0.000 N 
ATOM     10  C   UNL     1       5.587   5.125  17.606  0.00  0.00    +0.000 A 
ATOM     11  N   UNL     1       6.183   6.255  18.027  0.00  0.00    +0.000 NA
ATOM     12  H   UNL     1       8.541   8.034  16.919  0.00  0.00    +0.000 HD
ATOM     13  H   UNL     1       7.702   8.102  18.431  0.00  0.00    +0.000 HD
ENDROOT
BRANCH   9  14
ATOM     14  C   UNL     1       4.070   4.536  19.540  0.00  0.00    +0.000 C 
BRANCH  14  15
ATOM     15  C   UNL     1       2.732   5.295  19.537  0.00  0.00    +0.000 C 
ATOM     16  C   UNL     1       1.771   4.870  18.426  0.00  0.00    +0.000 C 
ATOM     17  C   UNL     1       1.006   3.671  18.975  0.00  0.00    +0.000 C 
ATOM     18  C   UNL     1       1.067   3.778  20.507  0.00  0.00    +0.000 C 
ATOM     19  C   UNL     1       1.904   5.031  20.799  0.00  0.00    +0.000 C 
BRANCH  18  20
ATOM     20  C   UNL     1       1.630   2.517  21.173  0.00  0.00    +0.000 C 
BRANCH  20  21
ATOM     21  O   UNL     1       2.457   2.854  22.277  0.00  0.00    +0.000 OA
ATOM     22  H   UNL     1       2.611   3.811  22.248  0.00  0.00    +0.000 HD
ENDBRANCH  20  21
ENDBRANCH  18  20
ENDBRANCH  14  15
ENDBRANCH   9  14
TORSDOF 4
ENDMDL
MODEL 5
REMARK VINA RESULT:      -7.5      1.877      2.797
REMARK  Name = 
REMARK  4 active torsions:
REMARK  status: ('A' for Active; 'I' for Inactive)
REMARK    1  A    between atoms: N_9  and  C_10
REMARK    2  A    between atoms: C_10  and  C_11
REMARK    3  A    between atoms: C_14  and  C_15
REMARK    4  A    between atoms: C_15  and  O_16
REMARK                            x       y       z     vdW  Elec       q    Type
REMARK                         _______ _______ _______ _____ _____    ______ ____
ROOT
ATOM      1  N   UNL     1       7.888   7.793  17.855  0.00  0.00    +0.000 N 
ATOM      2  C   UNL     1       7.236   6.672  17.390  0.00  0.00    +0.000 A 
ATOM      3  N   UNL     1       7.500   6.316  16.125  0.00  0.00    +0.000 NA
ATOM      4  C   UNL     1       6.836   5.256  15.627  0.00  0.00    +0.000 A 
ATOM      5 CL   UNL     1       7.140   4.779  14.031  0.00  0.00    +0.000 Cl
ATOM      6  C   UNL     1       5.924   4.548  16.378  0.00  0.00    +0.000 A 
ATOM      7  N   UNL     1       5.096   3.478  16.167  0.00  0.00    +0.000 NA
ATOM      8  N   UNL     1       4.434   3.244  17.296  0.00  0.00    +0.000 NA
ATOM      9  N   UNL     1       4.869   4.134  18.215  0.00  0.00    +0.000 N 
ATOM     10  C   UNL     1       5.780   4.998  17.677  0.00  0.00    +0.000 A 
ATOM     11  N   UNL     1       6.411   6.042  18.245  0.00  0.00    +0.000 NA
ATOM     12  H   UNL     1       8.721   7.979  17.313  0.00  0.00    +0.000 HD
ATOM     13  H   UNL     1       7.970   7.795  18.861  0.00  0.00    +0.000 HD
ENDROOT
BRANCH   9  14
ATOM     14  C   UNL     1       4.370   4.097  19.572  0.00  0.00    +0.000 C 
BRANCH  14  15
ATOM     15  C   UNL     1       3.178   5.036  19.827  0.00  0.00    +0.000 C 
ATOM     16  C   UNL     1       2.443   5.477  18.560  0.00  0.00    +0.000 C 
ATOM     17  C   UNL     1       1.424   4.381  18.269  0.00  0.00    +0.000 C 
ATOM     18  C   UNL     1       1.154   3.669  19.605  0.00  0.00    +0.000 C 
ATOM     19  C   UNL     1       2.061   4.361  20.631  0.00  0.00    +0.000 C 
BRANCH  18  20
ATOM     20  C   UNL     1       1.384   2.155  19.532  0.00  0.00    +0.000 C 
BRANCH  20  21
ATOM     21  O   UNL     1       1.969   1.790  18.291  0.00  0.00    +0.000 OA
ATOM     22  H   UNL     1       2.125   2.605  17.789  0.00  0.00    +0.000 HD
ENDBRANCH  20  21
ENDBRANCH  18  20
ENDBRANCH  14  15
ENDBRANCH   9  14
TORSDOF 4
ENDMDL
MODEL 6
REMARK VINA RESULT:      -7.4      1.424      1.796
REMARK  Name = 
REMARK  4 active torsions:
REMARK  status: ('A' for Active; 'I' for Inactive)
REMARK    1  A    between atoms: N_9  and  C_10
REMARK    2  A    between atoms: C_10  and  C_11
REMARK    3  A    between atoms: C_14  and  C_15
REMARK    4  A    between atoms: C_15  and  O_16
REMARK                            x       y       z     vdW  Elec       q    Type
REMARK                         _______ _______ _______ _____ _____    ______ ____
ROOT
ATOM      1  N   UNL     1       6.648   3.797  14.023  0.00  0.00    +0.000 N 
ATOM      2  C   UNL     1       6.220   4.475  15.144  0.00  0.00    +0.000 A 
ATOM      3  N   UNL     1       7.056   5.403  15.628  0.00  0.00    +0.000 NA
ATOM      4  C   UNL     1       6.688   6.043  16.753  0.00  0.00    +0.000 A 
ATOM      5 CL   UNL     1       7.721   7.221  17.399  0.00  0.00    +0.000 Cl
ATOM      6  C   UNL     1       5.496   5.772  17.390  0.00  0.00    +0.000 A 
ATOM      7  N   UNL     1       4.864   6.214  18.521  0.00  0.00    +0.000 NA
ATOM      8  N   UNL     1       3.706   5.568  18.621  0.00  0.00    +0.000 NA
ATOM      9  N   UNL     1       3.598   4.758  17.546  0.00  0.00    +0.000 N 
ATOM     10  C   UNL     1       4.714   4.824  16.760  0.00  0.00    +0.000 A 
ATOM     11  N   UNL     1       5.011   4.149  15.634  0.00  0.00    +0.000 NA
ATOM     12  H   UNL     1       7.353   4.325  13.527  0.00  0.00    +0.000 HD
ATOM     13  H   UNL     1       5.878   3.421  13.490  0.00  0.00    +0.000 HD
ENDROOT
BRANCH   9  14
ATOM     14  C   UNL     1       2.411   3.957  17.340  0.00  0.00    +0.000 C 
BRANCH  14  15
ATOM     15  C   UNL     1       2.538   2.509  17.844  0.00  0.00    +0.000 C 
ATOM     16  C   UNL     1       3.746   2.260  18.748  0.00  0.00    +0.000 C 
ATOM     17  C   UNL     1       3.295   2.633  20.156  0.00  0.00    +0.000 C 
ATOM     18  C   UNL     1       1.762   2.509  20.170  0.00  0.00    +0.000 C 
ATOM     19  C   UNL     1       1.369   2.096  18.745  0.00  0.00    +0.000 C 
BRANCH  18  20
ATOM     20  C   UNL     1       1.063   3.792  20.634  0.00  0.00    +0.000 C 
BRANCH  20  21
ATOM     21  O   UNL     1       2.012   4.770  21.033  0.00  0.00    +0.000 OA
ATOM     22  H   UNL     1       2.825   4.614  20.528  0.00  0.00    +0.000 HD
ENDBRANCH  20  21
ENDBRANCH  18  20
ENDBRANCH  14  15
ENDBRANCH   9  14
TORSDOF 4
ENDMDL
MODEL 7
REMARK VINA RESULT:      -7.4      1.531      2.583
REMARK  Name = 
REMARK  4 active torsions:
REMARK  status: ('A' for Active; 'I' for Inactive)
REMARK    1  A    between atoms: N_9  and  C_10
REMARK    2  A    between atoms: C_10  and  C_11
REMARK    3  A    between atoms: C_14  and  C_15
REMARK    4  A    between atoms: C_15  and  O_16
REMARK                            x       y       z     vdW  Elec       q    Type
REMARK                         _______ _______ _______ _____ _____    ______ ____
ROOT
ATOM      1  N   UNL     1       8.597   5.134  20.667  0.00  0.00    +0.000 N 
ATOM      2  C   UNL     1       7.840   5.563  19.599  0.00  0.00    +0.000 A 
ATOM      3  N   UNL     1       8.226   6.709  19.022  0.00  0.00    +0.000 NA
ATOM      4  C   UNL     1       7.473   7.179  18.011  0.00  0.00    +0.000 A 
ATOM      5 CL   UNL     1       7.926   8.628  17.259  0.00  0.00    +0.000 Cl
ATOM      6  C   UNL     1       6.350   6.515  17.567  0.00  0.00    +0.000 A 
ATOM      7  N   UNL     1       5.393   6.732  16.613  0.00  0.00    +0.000 NA
ATOM      8  N   UNL     1       4.538   5.714  16.652  0.00  0.00    +0.000 NA
ATOM      9  N   UNL     1       4.976   4.851  17.594  0.00  0.00    +0.000 N 
ATOM     10  C   UNL     1       6.092   5.326  18.222  0.00  0.00    +0.000 A 
ATOM     11  N   UNL     1       6.800   4.792  19.234  0.00  0.00    +0.000 NA
ATOM     12  H   UNL     1       9.521   5.544  20.644  0.00  0.00    +0.000 HD
ATOM     13  H   UNL     1       8.526   4.137  20.807  0.00  0.00    +0.000 HD
ENDROOT
BRANCH   9  14
ATOM     14  C   UNL     1       4.280   3.607  17.836  0.00  0.00    +0.000 C 
BRANCH  14  15
ATOM     15  C   UNL     1       2.795   3.630  17.435  0.00  0.00    +0.000 C 
ATOM     16  C   UNL     1       2.028   2.355  17.788  0.00  0.00    +0.000 C 
ATOM     17  C   UNL     1       1.566   2.534  19.231  0.00  0.00    +0.000 C 
ATOM     18  C   UNL     1       1.524   4.049  19.491  0.00  0.00    +0.000 C 
ATOM     19  C   UNL     1       2.001   4.704  18.187  0.00  0.00    +0.000 C 
BRANCH  18  20
ATOM     20  C   UNL     1       2.356   4.470  20.708  0.00  0.00    +0.000 C 
BRANCH  20  21
ATOM     21  O   UNL     1       3.080   5.662  20.438  0.00  0.00    +0.000 OA
ATOM     22  H   UNL     1       4.005   5.415  20.281  0.00  0.00    +0.000 HD
ENDBRANCH  20  21
ENDBRANCH  18  20
ENDBRANCH  14  15
ENDBRANCH   9  14
TORSDOF 4
ENDMDL
MODEL 8
REMARK VINA RESULT:      -7.1      1.828      2.988
REMARK  Name = 
REMARK  4 active torsions:
REMARK  status: ('A' for Active; 'I' for Inactive)
REMARK    1  A    between atoms: N_9  and  C_10
REMARK    2  A    between atoms: C_10  and  C_11
REMARK    3  A    between atoms: C_14  and  C_15
REMARK    4  A    between atoms: C_15  and  O_16
REMARK                            x       y       z     vdW  Elec       q    Type
REMARK                         _______ _______ _______ _____ _____    ______ ____
ROOT
ATOM      1  N   UNL     1       8.602   5.113  20.688  0.00  0.00    +0.000 N 
ATOM      2  C   UNL     1       7.752   5.563  19.701  0.00  0.00    +0.000 A 
ATOM      3  N   UNL     1       8.178   6.614  18.987  0.00  0.00    +0.000 NA
ATOM      4  C   UNL     1       7.345   7.108  18.053  0.00  0.00    +0.000 A 
ATOM      5 CL   UNL     1       7.845   8.440  17.134  0.00  0.00    +0.000 Cl
ATOM      6  C   UNL     1       6.102   6.560  17.820  0.00  0.00    +0.000 A 
ATOM      7  N   UNL     1       5.048   6.831  16.990  0.00  0.00    +0.000 NA
ATOM      8  N   UNL     1       4.099   5.931  17.226  0.00  0.00    +0.000 NA
ATOM      9  N   UNL     1       4.568   5.082  18.166  0.00  0.00    +0.000 N 
ATOM     10  C   UNL     1       5.810   5.456  18.598  0.00  0.00    +0.000 A 
ATOM     11  N   UNL     1       6.591   4.903  19.544  0.00  0.00    +0.000 NA
ATOM     12  H   UNL     1       9.554   5.404  20.507  0.00  0.00    +0.000 HD
ATOM     13  H   UNL     1       8.440   4.143  20.916  0.00  0.00    +0.000 HD
ENDROOT
BRANCH   9  14
ATOM     14  C   UNL     1       3.779   3.950  18.599  0.00  0.00    +0.000 C 
BRANCH  14  15
ATOM     15  C   UNL     1       3.436   3.962  20.099  0.00  0.00    +0.000 C 
ATOM     16  C   UNL     1       2.521   5.111  20.526  0.00  0.00    +0.000 C 
ATOM     17  C   UNL     1       1.098   4.621  20.278  0.00  0.00    +0.000 C 
ATOM     18  C   UNL     1       1.154   3.085  20.300  0.00  0.00    +0.000 C 
ATOM     19  C   UNL     1       2.630   2.730  20.527  0.00  0.00    +0.000 C 
BRANCH  18  20
ATOM     20  C   UNL     1       0.577   2.448  19.030  0.00  0.00    +0.000 C 
BRANCH  20  21
ATOM     21  O   UNL     1       1.456   1.457  18.517  0.00  0.00    +0.000 OA
ATOM     22  H   UNL     1       0.921   0.815  18.026  0.00  0.00    +0.000 HD
ENDBRANCH  20  21
ENDBRANCH  18  20
ENDBRANCH  14  15
ENDBRANCH   9  14
TORSDOF 4
ENDMDL
MODEL 9
REMARK VINA RESULT:      -7.1      3.399      5.612
REMARK  Name = 
REMARK  4 active torsions:
REMARK  status: ('A' for Active; 'I' for Inactive)
REMARK    1  A    between atoms: N_9  and  C_10
REMARK    2  A    between atoms: C_10  and  C_11
REMARK    3  A    between atoms: C_14  and  C_15
REMARK    4  A    between atoms: C_15  and  O_16
REMARK                            x       y       z     vdW  Elec       q    Type
REMARK                         _______ _______ _______ _____ _____    ______ ____
ROOT
ATOM      1  N   UNL     1       4.010   0.815  18.141  0.00  0.00    +0.000 N 
ATOM      2  C   UNL     1       3.590   1.997  18.712  0.00  0.00    +0.000 A 
ATOM      3  N   UNL     1       2.859   1.887  19.830  0.00  0.00    +0.000 NA
ATOM      4  C   UNL     1       2.390   3.022  20.378  0.00  0.00    +0.000 A 
ATOM      5 CL   UNL     1       1.458   2.924  21.790  0.00  0.00    +0.000 Cl
ATOM      6  C   UNL     1       2.648   4.259  19.830  0.00  0.00    +0.000 A 
ATOM      7  N   UNL     1       2.311   5.554  20.120  0.00  0.00    +0.000 NA
ATOM      8  N   UNL     1       2.873   6.338  19.206  0.00  0.00    +0.000 NA
ATOM      9  N   UNL     1       3.585   5.548  18.374  0.00  0.00    +0.000 N 
ATOM     10  C   UNL     1       3.448   4.229  18.703  0.00  0.00    +0.000 A 
ATOM     11  N   UNL     1       3.957   3.138  18.103  0.00  0.00    +0.000 NA
ATOM     12  H   UNL     1       4.013   0.066  18.820  0.00  0.00    +0.000 HD
ATOM     13  H   UNL     1       4.835   0.940  17.573  0.00  0.00    +0.000 HD
ENDROOT
BRANCH   9  14
ATOM     14  C   UNL     1       4.363   6.120  17.297  0.00  0.00    +0.000 C 
BRANCH  14  15
ATOM     15  C   UNL     1       5.768   6.588  17.718  0.00  0.00    +0.000 C 
ATOM     16  C   UNL     1       6.458   5.671  18.729  0.00  0.00    +0.000 C 
ATOM     17  C   UNL     1       7.145   4.587  17.905  0.00  0.00    +0.000 C 
ATOM     18  C   UNL     1       7.364   5.178  16.503  0.00  0.00    +0.000 C 
ATOM     19  C   UNL     1       6.760   6.588  16.550  0.00  0.00    +0.000 C 
BRANCH  18  20
ATOM     20  C   UNL     1       6.766   4.311  15.388  0.00  0.00    +0.000 C 
BRANCH  20  21
ATOM     21  O   UNL     1       5.929   3.299  15.929  0.00  0.00    +0.000 OA
ATOM     22  H   UNL     1       5.916   3.411  16.892  0.00  0.00    +0.000 HD
ENDBRANCH  20  21
ENDBRANCH  18  20
ENDBRANCH  14  15
ENDBRANCH   9  14
TORSDOF 4
ENDMDL
