MODEL 1
REMARK VINA RESULT:      -7.2      0.000      0.000
REMARK  Name = 
REMARK  4 active torsions:
REMARK  status: ('A' for Active; 'I' for Inactive)
REMARK    1  A    between atoms: C_1  and  O_2
REMARK    2  A    between atoms: O_2  and  C_3
REMARK    3  A    between atoms: C_8  and  N_9
REMARK    4  A    between atoms: C_15  and  C_16
REMARK                            x       y       z     vdW  Elec       q    Type
REMARK                         _______ _______ _______ _____ _____    ______ ____
ROOT
ATOM      1  N   UNL     1       1.817   9.778  17.658  0.00  0.00    +0.000 NA
ATOM      2  C   UNL     1       2.205   8.675  18.203  0.00  0.00    +0.000 C 
ATOM      3  N   UNL     1       1.630   7.993  19.234  0.00  0.00    +0.000 N 
ATOM      4  C   UNL     1       2.185   6.810  19.624  0.00  0.00    +0.000 C 
ATOM      5  O   UNL     1       1.764   6.098  20.519  0.00  0.00    +0.000 OA
ATOM      6  C   UNL     1       3.371   6.524  18.776  0.00  0.00    +0.000 C 
ATOM      7  C   UNL     1       4.063   5.385  18.908  0.00  0.00    +0.000 C 
ATOM      8  S   UNL     1       3.628   7.814  17.657  0.00  0.00    +0.000 S 
ATOM      9  H   UNL     1       0.783   8.343  19.666  0.00  0.00    +0.000 HD
ENDROOT
BRANCH   1  15
ATOM     10  C   UNL     1      -3.142  12.443  20.003  0.00  0.00    +0.000 A 
ATOM     11  C   UNL     1      -3.683  11.636  19.005  0.00  0.00    +0.000 A 
ATOM     12  C   UNL     1      -2.856  10.838  18.212  0.00  0.00    +0.000 A 
ATOM     13  C   UNL     1      -1.465  10.857  18.418  0.00  0.00    +0.000 A 
ATOM     14  N   UNL     1      -0.553  10.099  17.721  0.00  0.00    +0.000 NA
ATOM     15  C   UNL     1       0.677  10.343  18.130  0.00  0.00    +0.000 A 
ATOM     16  S   UNL     1       0.782  11.523  19.387  0.00  0.00    +0.000 S 
ATOM     17  C   UNL     1      -0.934  11.694  19.394  0.00  0.00    +0.000 A 
ATOM     18  C   UNL     1      -1.754  12.503  20.195  0.00  0.00    +0.000 A 
BRANCH  10  20
ATOM     19  C   UNL     1      -3.552  13.158  22.216  0.00  0.00    +0.000 C 
ATOM     20  O   UNL     1      -3.882  13.244  20.832  0.00  0.00    +0.000 OA
ENDBRANCH  10  20
ENDBRANCH   1  15
BRANCH   7  21
ATOM     21  C   UNL     1       5.212   5.008  18.087  0.00  0.00    +0.000 A 
ATOM     22  C   UNL     1       6.506   5.059  18.618  0.00  0.00    +0.000 A 
ATOM     23  C   UNL     1       7.603   4.719  17.824  0.00  0.00    +0.000 A 
ATOM     24  C   UNL     1       7.409   4.326  16.500  0.00  0.00    +0.000 A 
ATOM     25  C   UNL     1       6.119   4.268  15.975  0.00  0.00    +0.000 A 
ATOM     26 CL   UNL     1       5.882   3.780  14.342  0.00  0.00    +0.000 Cl
ATOM     27  C   UNL     1       5.019   4.606  16.761  0.00  0.00    +0.000 A 
ENDBRANCH   7  21
TORSDOF 3
ENDMDL
MODEL 2
REMARK VINA RESULT:      -7.2      2.967      3.648
REMARK  Name = 
REMARK  4 active torsions:
REMARK  status: ('A' for Active; 'I' for Inactive)
REMARK    1  A    between atoms: C_1  and  O_2
REMARK    2  A    between atoms: O_2  and  C_3
REMARK    3  A    between atoms: C_8  and  N_9
REMARK    4  A    between atoms: C_15  and  C_16
REMARK                            x       y       z     vdW  Elec       q    Type
REMARK                         _______ _______ _______ _____ _____    ______ ____
ROOT
ATOM      1  N   UNL     1       0.633   9.352  21.873  0.00  0.00    +0.000 NA
ATOM      2  C   UNL     1       1.100   9.051  20.709  0.00  0.00    +0.000 C 
ATOM      3  N   UNL     1       1.138   9.824  19.588  0.00  0.00    +0.000 N 
ATOM      4  C   UNL     1       1.726   9.319  18.465  0.00  0.00    +0.000 C 
ATOM      5  O   UNL     1       1.839   9.909  17.405  0.00  0.00    +0.000 OA
ATOM      6  C   UNL     1       2.218   7.946  18.749  0.00  0.00    +0.000 C 
ATOM      7  C   UNL     1       2.896   7.246  17.831  0.00  0.00    +0.000 C 
ATOM      8  S   UNL     1       1.816   7.492  20.366  0.00  0.00    +0.000 S 
ATOM      9  H   UNL     1       0.776  10.770  19.609  0.00  0.00    +0.000 HD
ENDROOT
BRANCH   1  15
ATOM     10  C   UNL     1      -1.845  14.851  22.777  0.00  0.00    +0.000 A 
ATOM     11  C   UNL     1      -0.740  15.151  21.985  0.00  0.00    +0.000 A 
ATOM     12  C   UNL     1       0.115  14.137  21.547  0.00  0.00    +0.000 A 
ATOM     13  C   UNL     1      -0.139  12.804  21.917  0.00  0.00    +0.000 A 
ATOM     14  N   UNL     1       0.613  11.720  21.528  0.00  0.00    +0.000 NA
ATOM     15  C   UNL     1       0.135  10.604  22.044  0.00  0.00    +0.000 A 
ATOM     16  S   UNL     1      -1.257  10.825  23.042  0.00  0.00    +0.000 S 
ATOM     17  C   UNL     1      -1.226  12.522  22.739  0.00  0.00    +0.000 A 
ATOM     18  C   UNL     1      -2.090  13.533  23.188  0.00  0.00    +0.000 A 
BRANCH  10  20
ATOM     19  C   UNL     1      -3.932  15.251  23.810  0.00  0.00    +0.000 C 
ATOM     20  O   UNL     1      -2.739  15.782  23.238  0.00  0.00    +0.000 OA
ENDBRANCH  10  20
ENDBRANCH   1  15
BRANCH   7  21
ATOM     21  C   UNL     1       3.451   5.911  18.043  0.00  0.00    +0.000 A 
ATOM     22  C   UNL     1       4.787   5.755  18.430  0.00  0.00    +0.000 A 
ATOM     23  C   UNL     1       5.320   4.477  18.609  0.00  0.00    +0.000 A 
ATOM     24  C   UNL     1       4.520   3.353  18.404  0.00  0.00    +0.000 A 
ATOM     25  C   UNL     1       3.188   3.511  18.026  0.00  0.00    +0.000 A 
ATOM     26 CL   UNL     1       2.201   2.122  17.777  0.00  0.00    +0.000 Cl
ATOM     27  C   UNL     1       2.648   4.782  17.845  0.00  0.00    +0.000 A 
ENDBRANCH   7  21
TORSDOF 3
ENDMDL
MODEL 3
REMARK VINA RESULT:      -7.1      0.993      1.500
REMARK  Name = 
REMARK  4 active torsions:
REMARK  status: ('A' for Active; 'I' for Inactive)
REMARK    1  A    between atoms: C_1  and  O_2
REMARK    2  A    between atoms: O_2  and  C_3
REMARK    3  A    between atoms: C_8  and  N_9
REMARK    4  A    between atoms: C_15  and  C_16
REMARK                            x       y       z     vdW  Elec       q    Type
REMARK                         _______ _______ _______ _____ _____    ______ ____
ROOT
ATOM      1  N   UNL     1       1.823   9.854  18.007  0.00  0.00    +0.000 NA
ATOM      2  C   UNL     1       2.212   8.706  18.449  0.00  0.00    +0.000 C 
ATOM      3  N   UNL     1       1.704   7.982  19.485  0.00  0.00    +0.000 N 
ATOM      4  C   UNL     1       2.243   6.758  19.753  0.00  0.00    +0.000 C 
ATOM      5  O   UNL     1       1.873   6.006  20.638  0.00  0.00    +0.000 OA
ATOM      6  C   UNL     1       3.337   6.485  18.786  0.00  0.00    +0.000 C 
ATOM      7  C   UNL     1       3.992   5.317  18.788  0.00  0.00    +0.000 C 
ATOM      8  S   UNL     1       3.547   7.833  17.727  0.00  0.00    +0.000 S 
ATOM      9  H   UNL     1       0.913   8.333  20.011  0.00  0.00    +0.000 HD
ENDROOT
BRANCH   1  15
ATOM     10  C   UNL     1      -3.141  12.405  20.467  0.00  0.00    +0.000 A 
ATOM     11  C   UNL     1      -2.197  12.556  21.480  0.00  0.00    +0.000 A 
ATOM     12  C   UNL     1      -0.892  12.090  21.308  0.00  0.00    +0.000 A 
ATOM     13  C   UNL     1      -0.531  11.456  20.106  0.00  0.00    +0.000 A 
ATOM     14  N   UNL     1       0.725  10.981  19.810  0.00  0.00    +0.000 NA
ATOM     15  C   UNL     1       0.752  10.428  18.613  0.00  0.00    +0.000 A 
ATOM     16  S   UNL     1      -0.766  10.451  17.790  0.00  0.00    +0.000 S 
ATOM     17  C   UNL     1      -1.493  11.280  19.116  0.00  0.00    +0.000 A 
ATOM     18  C   UNL     1      -2.809  11.740  19.277  0.00  0.00    +0.000 A 
BRANCH  10  20
ATOM     19  C   UNL     1      -5.238  12.595  19.395  0.00  0.00    +0.000 C 
ATOM     20  O   UNL     1      -4.436  12.843  20.548  0.00  0.00    +0.000 OA
ENDBRANCH  10  20
ENDBRANCH   1  15
BRANCH   7  21
ATOM     21  C   UNL     1       5.049   4.952  17.846  0.00  0.00    +0.000 A 
ATOM     22  C   UNL     1       6.380   4.886  18.271  0.00  0.00    +0.000 A 
ATOM     23  C   UNL     1       7.390   4.559  17.363  0.00  0.00    +0.000 A 
ATOM     24  C   UNL     1       7.071   4.296  16.031  0.00  0.00    +0.000 A 
ATOM     25  C   UNL     1       5.743   4.355  15.612  0.00  0.00    +0.000 A 
ATOM     26 CL   UNL     1       5.350   4.027  13.968  0.00  0.00    +0.000 Cl
ATOM     27  C   UNL     1       4.729   4.680  16.511  0.00  0.00    +0.000 A 
ENDBRANCH   7  21
TORSDOF 3
ENDMDL
MODEL 4
REMARK VINA RESULT:      -7.1      2.428      3.306
REMARK  Name = 
REMARK  4 active torsions:
REMARK  status: ('A' for Active; 'I' for Inactive)
REMARK    1  A    between atoms: C_1  and  O_2
REMARK    2  A    between atoms: O_2  and  C_3
REMARK    3  A    between atoms: C_8  and  N_9
REMARK    4  A    between atoms: C_15  and  C_16
REMARK                            x       y       z     vdW  Elec       q    Type
REMARK                         _______ _______ _______ _____ _____    ______ ____
ROOT
ATOM      1  N   UNL     1       2.763   8.637  17.453  0.00  0.00    +0.000 NA
ATOM      2  C   UNL     1       3.435   7.537  17.480  0.00  0.00    +0.000 C 
ATOM      3  N   UNL     1       3.542   6.636  18.497  0.00  0.00    +0.000 N 
ATOM      4  C   UNL     1       4.275   5.504  18.293  0.00  0.00    +0.000 C 
ATOM      5  O   UNL     1       4.438   4.616  19.111  0.00  0.00    +0.000 OA
ATOM      6  C   UNL     1       4.826   5.522  16.914  0.00  0.00    +0.000 C 
ATOM      7  C   UNL     1       5.533   4.492  16.432  0.00  0.00    +0.000 C 
ATOM      8  S   UNL     1       4.376   6.984  16.112  0.00  0.00    +0.000 S 
ATOM      9  H   UNL     1       3.048   6.790  19.368  0.00  0.00    +0.000 HD
ENDROOT
BRANCH   1  15
ATOM     10  C   UNL     1      -0.535  10.341  22.292  0.00  0.00    +0.000 A 
ATOM     11  C   UNL     1      -0.157   9.044  22.633  0.00  0.00    +0.000 A 
ATOM     12  C   UNL     1       0.631   8.284  21.765  0.00  0.00    +0.000 A 
ATOM     13  C   UNL     1       1.038   8.831  20.535  0.00  0.00    +0.000 A 
ATOM     14  N   UNL     1       1.834   8.192  19.612  0.00  0.00    +0.000 NA
ATOM     15  C   UNL     1       2.034   8.953  18.554  0.00  0.00    +0.000 A 
ATOM     16  S   UNL     1       1.248  10.489  18.629  0.00  0.00    +0.000 S 
ATOM     17  C   UNL     1       0.624  10.114  20.192  0.00  0.00    +0.000 A 
ATOM     18  C   UNL     1      -0.171  10.886  21.053  0.00  0.00    +0.000 A 
BRANCH  10  20
ATOM     19  C   UNL     1      -1.938  12.237  22.417  0.00  0.00    +0.000 C 
ATOM     20  O   UNL     1      -1.294  11.157  23.089  0.00  0.00    +0.000 OA
ENDBRANCH  10  20
ENDBRANCH   1  15
BRANCH   7  21
ATOM     21  C   UNL     1       6.071   4.411  15.076  0.00  0.00    +0.000 A 
ATOM     22  C   UNL     1       7.240   5.103  14.739  0.00  0.00    +0.000 A 
ATOM     23  C   UNL     1       7.739   5.042  13.436  0.00  0.00    +0.000 A 
ATOM     24  C   UNL     1       7.074   4.287  12.470  0.00  0.00    +0.000 A 
ATOM     25  C   UNL     1       5.915   3.592  12.810  0.00  0.00    +0.000 A 
ATOM     26 CL   UNL     1       5.097   2.659  11.617  0.00  0.00    +0.000 Cl
ATOM     27  C   UNL     1       5.410   3.648  14.108  0.00  0.00    +0.000 A 
ENDBRANCH   7  21
TORSDOF 3
ENDMDL
MODEL 5
REMARK VINA RESULT:      -7.0      2.834      3.698
REMARK  Name = 
REMARK  4 active torsions:
REMARK  status: ('A' for Active; 'I' for Inactive)
REMARK    1  A    between atoms: C_1  and  O_2
REMARK    2  A    between atoms: O_2  and  C_3
REMARK    3  A    between atoms: C_8  and  N_9
REMARK    4  A    between atoms: C_15  and  C_16
REMARK                            x       y       z     vdW  Elec       q    Type
REMARK                         _______ _______ _______ _____ _____    ______ ____
ROOT
ATOM      1  N   UNL     1       0.671   9.320  21.808  0.00  0.00    +0.000 NA
ATOM      2  C   UNL     1       1.128   9.097  20.623  0.00  0.00    +0.000 C 
ATOM      3  N   UNL     1       1.120   9.928  19.543  0.00  0.00    +0.000 N 
ATOM      4  C   UNL     1       1.706   9.502  18.387  0.00  0.00    +0.000 C 
ATOM      5  O   UNL     1       1.780  10.150  17.358  0.00  0.00    +0.000 OA
ATOM      6  C   UNL     1       2.252   8.136  18.591  0.00  0.00    +0.000 C 
ATOM      7  C   UNL     1       2.939   7.509  17.628  0.00  0.00    +0.000 C 
ATOM      8  S   UNL     1       1.894   7.584  20.188  0.00  0.00    +0.000 S 
ATOM      9  H   UNL     1       0.725  10.857  19.619  0.00  0.00    +0.000 HD
ENDROOT
BRANCH   1  15
ATOM     10  C   UNL     1      -1.985  14.670  23.038  0.00  0.00    +0.000 A 
ATOM     11  C   UNL     1      -0.908  15.051  22.241  0.00  0.00    +0.000 A 
ATOM     12  C   UNL     1      -0.026  14.092  21.736  0.00  0.00    +0.000 A 
ATOM     13  C   UNL     1      -0.224  12.734  22.042  0.00  0.00    +0.000 A 
ATOM     14  N   UNL     1       0.558  11.699  21.585  0.00  0.00    +0.000 NA
ATOM     15  C   UNL     1       0.132  10.542  22.052  0.00  0.00    +0.000 A 
ATOM     16  S   UNL     1      -1.246  10.661  23.086  0.00  0.00    +0.000 S 
ATOM     17  C   UNL     1      -1.283  12.371  22.869  0.00  0.00    +0.000 A 
ATOM     18  C   UNL     1      -2.174  13.325  23.385  0.00  0.00    +0.000 A 
BRANCH  10  20
ATOM     19  C   UNL     1      -3.173  15.381  24.952  0.00  0.00    +0.000 C 
ATOM     20  O   UNL     1      -2.902  15.543  23.561  0.00  0.00    +0.000 OA
ENDBRANCH  10  20
ENDBRANCH   1  15
BRANCH   7  21
ATOM     21  C   UNL     1       3.544   6.186  17.761  0.00  0.00    +0.000 A 
ATOM     22  C   UNL     1       2.737   5.049  17.876  0.00  0.00    +0.000 A 
ATOM     23  C   UNL     1       3.319   3.788  18.026  0.00  0.00    +0.000 A 
ATOM     24  C   UNL     1       4.707   3.661  18.059  0.00  0.00    +0.000 A 
ATOM     25  C   UNL     1       5.510   4.794  17.936  0.00  0.00    +0.000 A 
ATOM     26 CL   UNL     1       7.223   4.635  17.974  0.00  0.00    +0.000 Cl
ATOM     27  C   UNL     1       4.937   6.056  17.786  0.00  0.00    +0.000 A 
ENDBRANCH   7  21
TORSDOF 3
ENDMDL
MODEL 6
REMARK VINA RESULT:      -7.0      4.309     10.172
REMARK  Name = 
REMARK  4 active torsions:
REMARK  status: ('A' for Active; 'I' for Inactive)
REMARK    1  A    between atoms: C_1  and  O_2
REMARK    2  A    between atoms: O_2  and  C_3
REMARK    3  A    between atoms: C_8  and  N_9
REMARK    4  A    between atoms: C_15  and  C_16
REMARK                            x       y       z     vdW  Elec       q    Type
REMARK                         _______ _______ _______ _____ _____    ______ ____
ROOT
ATOM      1  N   UNL     1       1.166   8.215  21.587  0.00  0.00    +0.000 NA
ATOM      2  C   UNL     1       0.527   9.237  21.128  0.00  0.00    +0.000 C 
ATOM      3  N   UNL     1       0.358   9.617  19.830  0.00  0.00    +0.000 N 
ATOM      4  C   UNL     1      -0.403  10.717  19.565  0.00  0.00    +0.000 C 
ATOM      5  O   UNL     1      -0.644  11.153  18.452  0.00  0.00    +0.000 OA
ATOM      6  C   UNL     1      -0.901  11.285  20.843  0.00  0.00    +0.000 C 
ATOM      7  C   UNL     1      -1.730  12.337  20.862  0.00  0.00    +0.000 C 
ATOM      8  S   UNL     1      -0.290  10.375  22.178  0.00  0.00    +0.000 S 
ATOM      9  H   UNL     1       0.755   9.061  19.082  0.00  0.00    +0.000 HD
ENDROOT
BRANCH   1  15
ATOM     10  C   UNL     1       3.624   4.198  17.712  0.00  0.00    +0.000 A 
ATOM     11  C   UNL     1       4.001   5.417  17.153  0.00  0.00    +0.000 A 
ATOM     12  C   UNL     1       3.625   6.620  17.756  0.00  0.00    +0.000 A 
ATOM     13  C   UNL     1       2.856   6.598  18.932  0.00  0.00    +0.000 A 
ATOM     14  N   UNL     1       2.448   7.711  19.631  0.00  0.00    +0.000 NA
ATOM     15  C   UNL     1       1.730   7.372  20.684  0.00  0.00    +0.000 A 
ATOM     16  S   UNL     1       1.507   5.670  20.869  0.00  0.00    +0.000 S 
ATOM     17  C   UNL     1       2.456   5.374  19.461  0.00  0.00    +0.000 A 
ATOM     18  C   UNL     1       2.823   4.159  18.862  0.00  0.00    +0.000 A 
BRANCH  10  20
ATOM     19  C   UNL     1       3.471   1.850  17.917  0.00  0.00    +0.000 C 
ATOM     20  O   UNL     1       3.960   2.976  17.192  0.00  0.00    +0.000 OA
ENDBRANCH  10  20
ENDBRANCH   1  15
BRANCH   7  21
ATOM     21  C   UNL     1      -2.299  12.929  22.071  0.00  0.00    +0.000 A 
ATOM     22  C   UNL     1      -1.542  13.813  22.848  0.00  0.00    +0.000 A 
ATOM     23  C   UNL     1      -2.081  14.360  24.015  0.00  0.00    +0.000 A 
ATOM     24  C   UNL     1      -3.376  14.025  24.406  0.00  0.00    +0.000 A 
ATOM     25  C   UNL     1      -4.132  13.150  23.628  0.00  0.00    +0.000 A 
ATOM     26 CL   UNL     1      -5.732  12.740  24.111  0.00  0.00    +0.000 Cl
ATOM     27  C   UNL     1      -3.602  12.600  22.462  0.00  0.00    +0.000 A 
ENDBRANCH   7  21
TORSDOF 3
ENDMDL
MODEL 7
REMARK VINA RESULT:      -6.9      4.284     10.204
REMARK  Name = 
REMARK  4 active torsions:
REMARK  status: ('A' for Active; 'I' for Inactive)
REMARK    1  A    between atoms: C_1  and  O_2
REMARK    2  A    between atoms: O_2  and  C_3
REMARK    3  A    between atoms: C_8  and  N_9
REMARK    4  A    between atoms: C_15  and  C_16
REMARK                            x       y       z     vdW  Elec       q    Type
REMARK                         _______ _______ _______ _____ _____    ______ ____
ROOT
ATOM      1  N   UNL     1       1.075   7.968  21.257  0.00  0.00    +0.000 NA
ATOM      2  C   UNL     1       0.717   9.173  20.965  0.00  0.00    +0.000 C 
ATOM      3  N   UNL     1       0.996   9.889  19.840  0.00  0.00    +0.000 N 
ATOM      4  C   UNL     1       0.472  11.142  19.716  0.00  0.00    +0.000 C 
ATOM      5  O   UNL     1       0.632  11.879  18.759  0.00  0.00    +0.000 OA
ATOM      6  C   UNL     1      -0.335  11.454  20.923  0.00  0.00    +0.000 C 
ATOM      7  C   UNL     1      -1.016  12.602  21.028  0.00  0.00    +0.000 C 
ATOM      8  S   UNL     1      -0.263  10.142  22.044  0.00  0.00    +0.000 S 
ATOM      9  H   UNL     1       1.546   9.475  19.096  0.00  0.00    +0.000 HD
ENDROOT
BRANCH   1  15
ATOM     10  C   UNL     1       4.293   4.665  17.267  0.00  0.00    +0.000 A 
ATOM     11  C   UNL     1       4.465   5.960  16.785  0.00  0.00    +0.000 A 
ATOM     12  C   UNL     1       3.871   7.043  17.437  0.00  0.00    +0.000 A 
ATOM     13  C   UNL     1       3.087   6.822  18.583  0.00  0.00    +0.000 A 
ATOM     14  N   UNL     1       2.474   7.806  19.323  0.00  0.00    +0.000 NA
ATOM     15  C   UNL     1       1.800   7.289  20.332  0.00  0.00    +0.000 A 
ATOM     16  S   UNL     1       1.872   5.566  20.421  0.00  0.00    +0.000 S 
ATOM     17  C   UNL     1       2.894   5.519  19.033  0.00  0.00    +0.000 A 
ATOM     18  C   UNL     1       3.482   4.422  18.385  0.00  0.00    +0.000 A 
BRANCH  10  20
ATOM     19  C   UNL     1       5.868   3.803  15.732  0.00  0.00    +0.000 C 
ATOM     20  O   UNL     1       4.850   3.550  16.697  0.00  0.00    +0.000 OA
ENDBRANCH  10  20
ENDBRANCH   1  15
BRANCH   7  21
ATOM     21  C   UNL     1      -1.867  12.968  22.159  0.00  0.00    +0.000 A 
ATOM     22  C   UNL     1      -3.176  12.481  22.244  0.00  0.00    +0.000 A 
ATOM     23  C   UNL     1      -3.993  12.850  23.315  0.00  0.00    +0.000 A 
ATOM     24  C   UNL     1      -3.503  13.704  24.302  0.00  0.00    +0.000 A 
ATOM     25  C   UNL     1      -2.197  14.182  24.220  0.00  0.00    +0.000 A 
ATOM     26 CL   UNL     1      -1.593  15.235  25.441  0.00  0.00    +0.000 Cl
ATOM     27  C   UNL     1      -1.374  13.819  23.155  0.00  0.00    +0.000 A 
ENDBRANCH   7  21
TORSDOF 3
ENDMDL
MODEL 8
REMARK VINA RESULT:      -6.8      1.937      2.571
REMARK  Name = 
REMARK  4 active torsions:
REMARK  status: ('A' for Active; 'I' for Inactive)
REMARK    1  A    between atoms: C_1  and  O_2
REMARK    2  A    between atoms: O_2  and  C_3
REMARK    3  A    between atoms: C_8  and  N_9
REMARK    4  A    between atoms: C_15  and  C_16
REMARK                            x       y       z     vdW  Elec       q    Type
REMARK                         _______ _______ _______ _____ _____    ______ ____
ROOT
ATOM      1  N   UNL     1       0.875  10.671  18.094  0.00  0.00    +0.000 NA
ATOM      2  C   UNL     1       1.250   9.647  18.783  0.00  0.00    +0.000 C 
ATOM      3  N   UNL     1       0.984   9.363  20.089  0.00  0.00    +0.000 N 
ATOM      4  C   UNL     1       1.445   8.189  20.609  0.00  0.00    +0.000 C 
ATOM      5  O   UNL     1       1.264   7.808  21.752  0.00  0.00    +0.000 OA
ATOM      6  C   UNL     1       2.182   7.445  19.556  0.00  0.00    +0.000 C 
ATOM      7  C   UNL     1       2.683   6.225  19.786  0.00  0.00    +0.000 C 
ATOM      8  S   UNL     1       2.224   8.366  18.095  0.00  0.00    +0.000 S 
ATOM      9  H   UNL     1       0.417   9.994  20.642  0.00  0.00    +0.000 HD
ENDROOT
BRANCH   1  15
ATOM     10  C   UNL     1      -2.424  14.980  20.877  0.00  0.00    +0.000 A 
ATOM     11  C   UNL     1      -3.289  13.888  20.894  0.00  0.00    +0.000 A 
ATOM     12  C   UNL     1      -2.900  12.667  20.338  0.00  0.00    +0.000 A 
ATOM     13  C   UNL     1      -1.628  12.543  19.750  0.00  0.00    +0.000 A 
ATOM     14  N   UNL     1      -1.124  11.390  19.196  0.00  0.00    +0.000 NA
ATOM     15  C   UNL     1       0.088  11.588  18.713  0.00  0.00    +0.000 A 
ATOM     16  S   UNL     1       0.670  13.203  18.905  0.00  0.00    +0.000 S 
ATOM     17  C   UNL     1      -0.789  13.652  19.708  0.00  0.00    +0.000 A 
ATOM     18  C   UNL     1      -1.169  14.885  20.259  0.00  0.00    +0.000 A 
BRANCH  10  20
ATOM     19  C   UNL     1      -1.648  17.145  21.417  0.00  0.00    +0.000 C 
ATOM     20  O   UNL     1      -2.721  16.207  21.410  0.00  0.00    +0.000 OA
ENDBRANCH  10  20
ENDBRANCH   1  15
BRANCH   7  21
ATOM     21  C   UNL     1       3.383   5.410  18.794  0.00  0.00    +0.000 A 
ATOM     22  C   UNL     1       2.663   4.566  17.941  0.00  0.00    +0.000 A 
ATOM     23  C   UNL     1       3.336   3.771  17.010  0.00  0.00    +0.000 A 
ATOM     24  C   UNL     1       4.728   3.820  16.929  0.00  0.00    +0.000 A 
ATOM     25  C   UNL     1       5.442   4.668  17.775  0.00  0.00    +0.000 A 
ATOM     26 CL   UNL     1       7.159   4.729  17.671  0.00  0.00    +0.000 Cl
ATOM     27  C   UNL     1       4.778   5.464  18.706  0.00  0.00    +0.000 A 
ENDBRANCH   7  21
TORSDOF 3
ENDMDL
MODEL 9
REMARK VINA RESULT:      -6.8      1.671      2.486
REMARK  Name = 
REMARK  4 active torsions:
REMARK  status: ('A' for Active; 'I' for Inactive)
REMARK    1  A    between atoms: C_1  and  O_2
REMARK    2  A    between atoms: O_2  and  C_3
REMARK    3  A    between atoms: C_8  and  N_9
REMARK    4  A    between atoms: C_15  and  C_16
REMARK                            x       y       z     vdW  Elec       q    Type
REMARK                         _______ _______ _______ _____ _____    ______ ____
ROOT
ATOM      1  N   UNL     1       0.532  10.556  18.207  0.00  0.00    +0.000 NA
ATOM      2  C   UNL     1       1.058   9.541  18.805  0.00  0.00    +0.000 C 
ATOM      3  N   UNL     1       0.875   9.130  20.091  0.00  0.00    +0.000 N 
ATOM      4  C   UNL     1       1.499   7.990  20.506  0.00  0.00    +0.000 C 
ATOM      5  O   UNL     1       1.408   7.506  21.621  0.00  0.00    +0.000 OA
ATOM      6  C   UNL     1       2.288   7.428  19.381  0.00  0.00    +0.000 C 
ATOM      7  C   UNL     1       2.948   6.269  19.503  0.00  0.00    +0.000 C 
ATOM      8  S   UNL     1       2.162   8.451  17.995  0.00  0.00    +0.000 S 
ATOM      9  H   UNL     1       0.252   9.640  20.705  0.00  0.00    +0.000 HD
ENDROOT
BRANCH   1  15
ATOM     10  C   UNL     1      -3.619  13.879  21.193  0.00  0.00    +0.000 A 
ATOM     11  C   UNL     1      -2.433  14.256  21.818  0.00  0.00    +0.000 A 
ATOM     12  C   UNL     1      -1.214  13.706  21.416  0.00  0.00    +0.000 A 
ATOM     13  C   UNL     1      -1.186  12.759  20.376  0.00  0.00    +0.000 A 
ATOM     14  N   UNL     1      -0.049  12.169  19.875  0.00  0.00    +0.000 NA
ATOM     15  C   UNL     1      -0.343  11.316  18.914  0.00  0.00    +0.000 A 
ATOM     16  S   UNL     1      -2.032  11.183  18.579  0.00  0.00    +0.000 S 
ATOM     17  C   UNL     1      -2.382  12.365  19.784  0.00  0.00    +0.000 A 
ATOM     18  C   UNL     1      -3.614  12.907  20.182  0.00  0.00    +0.000 A 
BRANCH  10  20
ATOM     19  C   UNL     1      -5.945  13.483  21.315  0.00  0.00    +0.000 C 
ATOM     20  O   UNL     1      -4.854  14.377  21.517  0.00  0.00    +0.000 OA
ENDBRANCH  10  20
ENDBRANCH   1  15
BRANCH   7  21
ATOM     21  C   UNL     1       3.710   5.626  18.435  0.00  0.00    +0.000 A 
ATOM     22  C   UNL     1       3.179   4.526  17.752  0.00  0.00    +0.000 A 
ATOM     23  C   UNL     1       3.919   3.900  16.747  0.00  0.00    +0.000 A 
ATOM     24  C   UNL     1       5.191   4.373  16.422  0.00  0.00    +0.000 A 
ATOM     25  C   UNL     1       5.715   5.473  17.098  0.00  0.00    +0.000 A 
ATOM     26 CL   UNL     1       7.283   6.057  16.693  0.00  0.00    +0.000 Cl
ATOM     27  C   UNL     1       4.983   6.104  18.102  0.00  0.00    +0.000 A 
ENDBRANCH   7  21
TORSDOF 3
ENDMDL
