MODEL 1
REMARK VINA RESULT:      -8.2      0.000      0.000
REMARK  Name = 
REMARK  7 active torsions:
REMARK  status: ('A' for Active; 'I' for Inactive)
REMARK    1  A    between atoms: C_1  and  S_2
REMARK    2  A    between atoms: S_2  and  N_5
REMARK    3  A    between atoms: N_12  and  C_13
REMARK    4  A    between atoms: C_13  and  C_14
REMARK    5  A    between atoms: C_14  and  C_15
REMARK    6  A    between atoms: N_17  and  C_18
REMARK    7  A    between atoms: C_18  and  C_19
REMARK                            x       y       z     vdW  Elec       q    Type
REMARK                         _______ _______ _______ _____ _____    ______ ____
ROOT
ATOM      1  C   UNL     1       2.412   7.209  19.042  0.00  0.00    +0.000 C 
ENDROOT
BRANCH   1   9
ATOM      2  N   UNL     1       4.986   4.058  18.145  0.00  0.00    +0.000 NA
ATOM      3  C   UNL     1       4.571   3.209  19.282  0.00  0.00    +0.000 C 
ATOM      4  C   UNL     1       3.239   3.624  19.945  0.00  0.00    +0.000 C 
ATOM      5  C   UNL     1       2.019   3.112  19.158  0.00  0.00    +0.000 C 
ATOM      6  C   UNL     1       1.579   4.105  18.085  0.00  0.00    +0.000 C 
ATOM      7  C   UNL     1       2.695   5.101  17.729  0.00  0.00    +0.000 C 
ATOM      8  C   UNL     1       3.926   4.349  17.138  0.00  0.00    +0.000 C 
ATOM      9  N   UNL     1       3.079   5.909  18.902  0.00  0.00    +0.000 NA
ATOM     10  C   UNL     1       3.078   5.141  20.161  0.00  0.00    +0.000 C 
BRANCH   2  12
ATOM     11  C   UNL     1       7.574   4.548  17.601  0.00  0.00    +0.000 C 
ATOM     12  S   UNL     1       6.165   5.260  18.424  0.00  0.00    +0.000 S 
ATOM     13  O   UNL     1       6.491   5.310  19.831  0.00  0.00    +0.000 OA
ATOM     14  O   UNL     1       5.810   6.454  17.679  0.00  0.00    +0.000 OA
ENDBRANCH   2  12
ENDBRANCH   1   9
BRANCH   1  15
ATOM     15  C   UNL     1       2.577   8.102  17.809  0.00  0.00    +0.000 C 
BRANCH  15  16
ATOM     16  C   UNL     1       1.936   9.453  18.042  0.00  0.00    +0.000 C 
ATOM     17  O   UNL     1       2.429  10.493  17.619  0.00  0.00    +0.000 OA
ATOM     18  N   UNL     1       0.803   9.413  18.822  0.00  0.00    +0.000 N 
ATOM     19  H   UNL     1       0.313   8.532  18.915  0.00  0.00    +0.000 HD
BRANCH  18  20
ATOM     20  C   UNL     1       0.068  10.620  19.140  0.00  0.00    +0.000 C 
BRANCH  20  21
ATOM     21  C   UNL     1      -1.253  10.672  18.428  0.00  0.00    +0.000 A 
ATOM     22  C   UNL     1      -1.508   9.859  17.311  0.00  0.00    +0.000 A 
ATOM     23  C   UNL     1      -2.757   9.875  16.686  0.00  0.00    +0.000 A 
ATOM     24  C   UNL     1      -3.771  10.703  17.164  0.00  0.00    +0.000 A 
ATOM     25  C   UNL     1      -3.533  11.516  18.273  0.00  0.00    +0.000 A 
ATOM     26  C   UNL     1      -2.285  11.494  18.891  0.00  0.00    +0.000 A 
ATOM     27  F   UNL     1      -2.086  12.279  19.961  0.00  0.00    +0.000 F 
ENDBRANCH  20  21
ENDBRANCH  18  20
ENDBRANCH  15  16
ENDBRANCH   1  15
TORSDOF 6
ENDMDL
MODEL 2
REMARK VINA RESULT:      -7.9      1.072      1.180
REMARK  Name = 
REMARK  7 active torsions:
REMARK  status: ('A' for Active; 'I' for Inactive)
REMARK    1  A    between atoms: C_1  and  S_2
REMARK    2  A    between atoms: S_2  and  N_5
REMARK    3  A    between atoms: N_12  and  C_13
REMARK    4  A    between atoms: C_13  and  C_14
REMARK    5  A    between atoms: C_14  and  C_15
REMARK    6  A    between atoms: N_17  and  C_18
REMARK    7  A    between atoms: C_18  and  C_19
REMARK                            x       y       z     vdW  Elec       q    Type
REMARK                         _______ _______ _______ _____ _____    ______ ____
ROOT
ATOM      1  C   UNL     1       2.367   7.198  19.010  0.00  0.00    +0.000 C 
ENDROOT
BRANCH   1   9
ATOM      2  N   UNL     1       4.960   4.043  18.179  0.00  0.00    +0.000 NA
ATOM      3  C   UNL     1       4.543   3.213  19.329  0.00  0.00    +0.000 C 
ATOM      4  C   UNL     1       3.207   3.633  19.979  0.00  0.00    +0.000 C 
ATOM      5  C   UNL     1       1.993   3.101  19.197  0.00  0.00    +0.000 C 
ATOM      6  C   UNL     1       1.553   4.073  18.105  0.00  0.00    +0.000 C 
ATOM      7  C   UNL     1       2.665   5.068  17.736  0.00  0.00    +0.000 C 
ATOM      8  C   UNL     1       3.902   4.311  17.163  0.00  0.00    +0.000 C 
ATOM      9  N   UNL     1       3.041   5.899  18.895  0.00  0.00    +0.000 NA
ATOM     10  C   UNL     1       3.039   5.153  20.168  0.00  0.00    +0.000 C 
BRANCH   2  12
ATOM     11  C   UNL     1       7.541   4.545  17.617  0.00  0.00    +0.000 C 
ATOM     12  S   UNL     1       6.131   5.255  18.441  0.00  0.00    +0.000 S 
ATOM     13  O   UNL     1       6.466   5.319  19.845  0.00  0.00    +0.000 OA
ATOM     14  O   UNL     1       5.765   6.440  17.688  0.00  0.00    +0.000 OA
ENDBRANCH   2  12
ENDBRANCH   1   9
BRANCH   1  15
ATOM     15  C   UNL     1       1.727   7.420  20.382  0.00  0.00    +0.000 C 
BRANCH  15  16
ATOM     16  C   UNL     1       1.116   8.803  20.465  0.00  0.00    +0.000 C 
ATOM     17  O   UNL     1       0.676   9.261  21.514  0.00  0.00    +0.000 OA
ATOM     18  N   UNL     1       1.039   9.459  19.259  0.00  0.00    +0.000 N 
ATOM     19  H   UNL     1       1.639   9.151  18.504  0.00  0.00    +0.000 HD
BRANCH  18  20
ATOM     20  C   UNL     1       0.481  10.793  19.164  0.00  0.00    +0.000 C 
BRANCH  20  21
ATOM     21  C   UNL     1      -0.889  10.780  18.550  0.00  0.00    +0.000 A 
ATOM     22  C   UNL     1      -1.192   9.938  17.468  0.00  0.00    +0.000 A 
ATOM     23  C   UNL     1      -2.482   9.893  16.936  0.00  0.00    +0.000 A 
ATOM     24  C   UNL     1      -3.490  10.692  17.474  0.00  0.00    +0.000 A 
ATOM     25  C   UNL     1      -3.205  11.535  18.549  0.00  0.00    +0.000 A 
ATOM     26  C   UNL     1      -1.916  11.571  19.074  0.00  0.00    +0.000 A 
ATOM     27  F   UNL     1      -1.670  12.384  20.113  0.00  0.00    +0.000 F 
ENDBRANCH  20  21
ENDBRANCH  18  20
ENDBRANCH  15  16
ENDBRANCH   1  15
TORSDOF 6
ENDMDL
MODEL 3
REMARK VINA RESULT:      -7.6      1.525      1.896
REMARK  Name = 
REMARK  7 active torsions:
REMARK  status: ('A' for Active; 'I' for Inactive)
REMARK    1  A    between atoms: C_1  and  S_2
REMARK    2  A    between atoms: S_2  and  N_5
REMARK    3  A    between atoms: N_12  and  C_13
REMARK    4  A    between atoms: C_13  and  C_14
REMARK    5  A    between atoms: C_14  and  C_15
REMARK    6  A    between atoms: N_17  and  C_18
REMARK    7  A    between atoms: C_18  and  C_19
REMARK                            x       y       z     vdW  Elec       q    Type
REMARK                         _______ _______ _______ _____ _____    ______ ____
ROOT
ATOM      1  C   UNL     1       2.263   7.045  19.180  0.00  0.00    +0.000 C 
ENDROOT
BRANCH   1   9
ATOM      2  N   UNL     1       4.929   4.027  18.108  0.00  0.00    +0.000 NA
ATOM      3  C   UNL     1       4.568   3.120  19.219  0.00  0.00    +0.000 C 
ATOM      4  C   UNL     1       3.236   3.460  19.923  0.00  0.00    +0.000 C 
ATOM      5  C   UNL     1       2.019   2.934  19.140  0.00  0.00    +0.000 C 
ATOM      6  C   UNL     1       1.522   3.952  18.117  0.00  0.00    +0.000 C 
ATOM      7  C   UNL     1       2.594   5.001  17.780  0.00  0.00    +0.000 C 
ATOM      8  C   UNL     1       3.838   4.318  17.135  0.00  0.00    +0.000 C 
ATOM      9  N   UNL     1       2.973   5.777  18.976  0.00  0.00    +0.000 NA
ATOM     10  C   UNL     1       3.026   4.960  20.203  0.00  0.00    +0.000 C 
BRANCH   2  12
ATOM     11  C   UNL     1       7.513   4.587  17.616  0.00  0.00    +0.000 C 
ATOM     12  S   UNL     1       6.069   5.260  18.412  0.00  0.00    +0.000 S 
ATOM     13  O   UNL     1       6.368   5.315  19.825  0.00  0.00    +0.000 OA
ATOM     14  O   UNL     1       5.698   6.445  17.662  0.00  0.00    +0.000 OA
ENDBRANCH   2  12
ENDBRANCH   1   9
BRANCH   1  15
ATOM     15  C   UNL     1       1.881   7.286  20.643  0.00  0.00    +0.000 C 
BRANCH  15  16
ATOM     16  C   UNL     1       1.140   8.598  20.788  0.00  0.00    +0.000 C 
ATOM     17  O   UNL     1       0.363   8.812  21.714  0.00  0.00    +0.000 OA
ATOM     18  N   UNL     1       1.362   9.489  19.763  0.00  0.00    +0.000 N 
ATOM     19  H   UNL     1       2.187   9.366  19.189  0.00  0.00    +0.000 HD
BRANCH  18  20
ATOM     20  C   UNL     1       0.729  10.792  19.750  0.00  0.00    +0.000 C 
BRANCH  20  21
ATOM     21  C   UNL     1      -0.575  10.769  19.005  0.00  0.00    +0.000 A 
ATOM     22  C   UNL     1      -1.672  11.532  19.437  0.00  0.00    +0.000 A 
ATOM     23  C   UNL     1      -2.863  11.547  18.710  0.00  0.00    +0.000 A 
ATOM     24  C   UNL     1      -2.981  10.797  17.541  0.00  0.00    +0.000 A 
ATOM     25  C   UNL     1      -1.901  10.033  17.099  0.00  0.00    +0.000 A 
ATOM     26  C   UNL     1      -0.715  10.026  17.829  0.00  0.00    +0.000 A 
ATOM     27  F   UNL     1       0.312   9.290  17.376  0.00  0.00    +0.000 F 
ENDBRANCH  20  21
ENDBRANCH  18  20
ENDBRANCH  15  16
ENDBRANCH   1  15
TORSDOF 6
ENDMDL
MODEL 4
REMARK VINA RESULT:      -7.5      4.961      7.961
REMARK  Name = 
REMARK  7 active torsions:
REMARK  status: ('A' for Active; 'I' for Inactive)
REMARK    1  A    between atoms: C_1  and  S_2
REMARK    2  A    between atoms: S_2  and  N_5
REMARK    3  A    between atoms: N_12  and  C_13
REMARK    4  A    between atoms: C_13  and  C_14
REMARK    5  A    between atoms: C_14  and  C_15
REMARK    6  A    between atoms: N_17  and  C_18
REMARK    7  A    between atoms: C_18  and  C_19
REMARK                            x       y       z     vdW  Elec       q    Type
REMARK                         _______ _______ _______ _____ _____    ______ ____
ROOT
ATOM      1  C   UNL     1       7.307   4.982  18.142  0.00  0.00    +0.000 C 
ENDROOT
BRANCH   1   9
ATOM      2  N   UNL     1       3.321   3.780  18.321  0.00  0.00    +0.000 NA
ATOM      3  C   UNL     1       2.836   5.002  18.997  0.00  0.00    +0.000 C 
ATOM      4  C   UNL     1       3.810   6.199  18.943  0.00  0.00    +0.000 C 
ATOM      5  C   UNL     1       3.730   6.948  17.601  0.00  0.00    +0.000 C 
ATOM      6  C   UNL     1       4.688   6.363  16.568  0.00  0.00    +0.000 C 
ATOM      7  C   UNL     1       5.122   4.933  16.929  0.00  0.00    +0.000 C 
ATOM      8  C   UNL     1       3.888   3.981  16.957  0.00  0.00    +0.000 C 
ATOM      9  N   UNL     1       5.843   4.906  18.215  0.00  0.00    +0.000 NA
ATOM     10  C   UNL     1       5.283   5.837  19.213  0.00  0.00    +0.000 C 
BRANCH   2  12
ATOM     11  C   UNL     1       2.888   2.560  20.678  0.00  0.00    +0.000 C 
ATOM     12  S   UNL     1       3.991   2.538  19.280  0.00  0.00    +0.000 S 
ATOM     13  O   UNL     1       5.287   2.945  19.774  0.00  0.00    +0.000 OA
ATOM     14  O   UNL     1       3.792   1.264  18.616  0.00  0.00    +0.000 OA
ENDBRANCH   2  12
ENDBRANCH   1   9
BRANCH   1  15
ATOM     15  C   UNL     1       7.886   6.149  18.946  0.00  0.00    +0.000 C 
BRANCH  15  16
ATOM     16  C   UNL     1       8.009   7.383  18.076  0.00  0.00    +0.000 C 
ATOM     17  O   UNL     1       7.819   7.351  16.865  0.00  0.00    +0.000 OA
ATOM     18  N   UNL     1       8.415   8.511  18.751  0.00  0.00    +0.000 N 
ATOM     19  H   UNL     1       8.301   8.538  19.757  0.00  0.00    +0.000 HD
BRANCH  18  20
ATOM     20  C   UNL     1       8.582   9.776  18.066  0.00  0.00    +0.000 C 
BRANCH  20  21
ATOM     21  C   UNL     1       9.682  10.597  18.674  0.00  0.00    +0.000 A 
ATOM     22  C   UNL     1      10.729  11.106  17.887  0.00  0.00    +0.000 A 
ATOM     23  C   UNL     1      11.720  11.911  18.450  0.00  0.00    +0.000 A 
ATOM     24  C   UNL     1      11.684  12.221  19.809  0.00  0.00    +0.000 A 
ATOM     25  C   UNL     1      10.651  11.724  20.604  0.00  0.00    +0.000 A 
ATOM     26  C   UNL     1       9.666  10.922  20.033  0.00  0.00    +0.000 A 
ATOM     27  F   UNL     1       8.679  10.464  20.819  0.00  0.00    +0.000 F 
ENDBRANCH  20  21
ENDBRANCH  18  20
ENDBRANCH  15  16
ENDBRANCH   1  15
TORSDOF 6
ENDMDL
MODEL 5
REMARK VINA RESULT:      -7.4      2.420      3.612
REMARK  Name = 
REMARK  7 active torsions:
REMARK  status: ('A' for Active; 'I' for Inactive)
REMARK    1  A    between atoms: C_1  and  S_2
REMARK    2  A    between atoms: S_2  and  N_5
REMARK    3  A    between atoms: N_12  and  C_13
REMARK    4  A    between atoms: C_13  and  C_14
REMARK    5  A    between atoms: C_14  and  C_15
REMARK    6  A    between atoms: N_17  and  C_18
REMARK    7  A    between atoms: C_18  and  C_19
REMARK                            x       y       z     vdW  Elec       q    Type
REMARK                         _______ _______ _______ _____ _____    ______ ____
ROOT
ATOM      1  C   UNL     1       2.737   7.161  19.136  0.00  0.00    +0.000 C 
ENDROOT
BRANCH   1   9
ATOM      2  N   UNL     1       3.576   3.123  19.733  0.00  0.00    +0.000 NA
ATOM      3  C   UNL     1       3.071   2.679  18.416  0.00  0.00    +0.000 C 
ATOM      4  C   UNL     1       2.892   3.808  17.379  0.00  0.00    +0.000 C 
ATOM      5  C   UNL     1       4.222   4.188  16.704  0.00  0.00    +0.000 C 
ATOM      6  C   UNL     1       4.962   5.274  17.482  0.00  0.00    +0.000 C 
ATOM      7  C   UNL     1       4.474   5.374  18.936  0.00  0.00    +0.000 C 
ATOM      8  C   UNL     1       4.750   4.041  19.695  0.00  0.00    +0.000 C 
ATOM      9  N   UNL     1       3.045   5.733  18.994  0.00  0.00    +0.000 NA
ATOM     10  C   UNL     1       2.243   5.090  17.936  0.00  0.00    +0.000 C 
BRANCH   2  12
ATOM     11  C   UNL     1       0.946   2.811  20.204  0.00  0.00    +0.000 C 
ATOM     12  S   UNL     1       2.453   3.326  21.002  0.00  0.00    +0.000 S 
ATOM     13  O   UNL     1       2.299   4.732  21.300  0.00  0.00    +0.000 OA
ATOM     14  O   UNL     1       2.727   2.350  22.039  0.00  0.00    +0.000 OA
ENDBRANCH   2  12
ENDBRANCH   1   9
BRANCH   1  15
ATOM     15  C   UNL     1       2.494   7.856  17.795  0.00  0.00    +0.000 C 
BRANCH  15  16
ATOM     16  C   UNL     1       1.849   9.209  18.007  0.00  0.00    +0.000 C 
ATOM     17  O   UNL     1       2.367  10.250  17.616  0.00  0.00    +0.000 OA
ATOM     18  N   UNL     1       0.680   9.169  18.732  0.00  0.00    +0.000 N 
ATOM     19  H   UNL     1       0.182   8.290  18.795  0.00  0.00    +0.000 HD
BRANCH  18  20
ATOM     20  C   UNL     1      -0.064  10.378  19.024  0.00  0.00    +0.000 C 
BRANCH  20  21
ATOM     21  C   UNL     1      -0.442  10.462  20.474  0.00  0.00    +0.000 A 
ATOM     22  C   UNL     1      -0.155   9.411  21.361  0.00  0.00    +0.000 A 
ATOM     23  C   UNL     1      -0.463   9.518  22.719  0.00  0.00    +0.000 A 
ATOM     24  C   UNL     1      -1.064  10.675  23.213  0.00  0.00    +0.000 A 
ATOM     25  C   UNL     1      -1.355  11.727  22.345  0.00  0.00    +0.000 A 
ATOM     26  C   UNL     1      -1.044  11.612  20.993  0.00  0.00    +0.000 A 
ATOM     27  F   UNL     1      -1.326  12.643  20.181  0.00  0.00    +0.000 F 
ENDBRANCH  20  21
ENDBRANCH  18  20
ENDBRANCH  15  16
ENDBRANCH   1  15
TORSDOF 6
ENDMDL
MODEL 6
REMARK VINA RESULT:      -7.4      2.035      3.041
REMARK  Name = 
REMARK  7 active torsions:
REMARK  status: ('A' for Active; 'I' for Inactive)
REMARK    1  A    between atoms: C_1  and  S_2
REMARK    2  A    between atoms: S_2  and  N_5
REMARK    3  A    between atoms: N_12  and  C_13
REMARK    4  A    between atoms: C_13  and  C_14
REMARK    5  A    between atoms: C_14  and  C_15
REMARK    6  A    between atoms: N_17  and  C_18
REMARK    7  A    between atoms: C_18  and  C_19
REMARK                            x       y       z     vdW  Elec       q    Type
REMARK                         _______ _______ _______ _____ _____    ______ ____
ROOT
ATOM      1  C   UNL     1       3.878   7.559  17.967  0.00  0.00    +0.000 C 
ENDROOT
BRANCH   1   9
ATOM      2  N   UNL     1       3.431   3.478  18.686  0.00  0.00    +0.000 NA
ATOM      3  C   UNL     1       4.128   3.042  17.458  0.00  0.00    +0.000 C 
ATOM      4  C   UNL     1       4.979   4.135  16.775  0.00  0.00    +0.000 C 
ATOM      5  C   UNL     1       6.350   4.306  17.453  0.00  0.00    +0.000 C 
ATOM      6  C   UNL     1       6.297   5.321  18.591  0.00  0.00    +0.000 C 
ATOM      7  C   UNL     1       4.861   5.554  19.090  0.00  0.00    +0.000 C 
ATOM      8  C   UNL     1       4.265   4.233  19.665  0.00  0.00    +0.000 C 
ATOM      9  N   UNL     1       4.008   6.098  18.017  0.00  0.00    +0.000 NA
ATOM     10  C   UNL     1       4.299   5.516  16.693  0.00  0.00    +0.000 C 
BRANCH   2  12
ATOM     11  C   UNL     1       1.021   2.391  19.178  0.00  0.00    +0.000 C 
ATOM     12  S   UNL     1       1.778   3.886  18.576  0.00  0.00    +0.000 S 
ATOM     13  O   UNL     1       1.395   4.010  17.188  0.00  0.00    +0.000 OA
ATOM     14  O   UNL     1       1.479   4.922  19.546  0.00  0.00    +0.000 OA
ENDBRANCH   2  12
ENDBRANCH   1   9
BRANCH   1  15
ATOM     15  C   UNL     1       2.547   8.020  17.367  0.00  0.00    +0.000 C 
BRANCH  15  16
ATOM     16  C   UNL     1       1.732   8.771  18.398  0.00  0.00    +0.000 C 
ATOM     17  O   UNL     1       1.724   8.454  19.583  0.00  0.00    +0.000 OA
ATOM     18  N   UNL     1       0.959   9.784  17.878  0.00  0.00    +0.000 N 
ATOM     19  H   UNL     1       1.203  10.158  16.969  0.00  0.00    +0.000 HD
BRANCH  18  20
ATOM     20  C   UNL     1       0.120  10.601  18.730  0.00  0.00    +0.000 C 
BRANCH  20  21
ATOM     21  C   UNL     1      -1.286  10.685  18.211  0.00  0.00    +0.000 A 
ATOM     22  C   UNL     1      -1.704   9.909  17.117  0.00  0.00    +0.000 A 
ATOM     23  C   UNL     1      -3.026   9.954  16.672  0.00  0.00    +0.000 A 
ATOM     24  C   UNL     1      -3.954  10.775  17.311  0.00  0.00    +0.000 A 
ATOM     25  C   UNL     1      -3.555  11.552  18.399  0.00  0.00    +0.000 A 
ATOM     26  C   UNL     1      -2.234  11.500  18.836  0.00  0.00    +0.000 A 
ATOM     27  F   UNL     1      -1.879  12.250  19.891  0.00  0.00    +0.000 F 
ENDBRANCH  20  21
ENDBRANCH  18  20
ENDBRANCH  15  16
ENDBRANCH   1  15
TORSDOF 6
ENDMDL
MODEL 7
REMARK VINA RESULT:      -7.4      1.962      2.603
REMARK  Name = 
REMARK  7 active torsions:
REMARK  status: ('A' for Active; 'I' for Inactive)
REMARK    1  A    between atoms: C_1  and  S_2
REMARK    2  A    between atoms: S_2  and  N_5
REMARK    3  A    between atoms: N_12  and  C_13
REMARK    4  A    between atoms: C_13  and  C_14
REMARK    5  A    between atoms: C_14  and  C_15
REMARK    6  A    between atoms: N_17  and  C_18
REMARK    7  A    between atoms: C_18  and  C_19
REMARK                            x       y       z     vdW  Elec       q    Type
REMARK                         _______ _______ _______ _____ _____    ______ ____
ROOT
ATOM      1  C   UNL     1       2.224   6.449  19.403  0.00  0.00    +0.000 C 
ENDROOT
BRANCH   1   9
ATOM      2  N   UNL     1       3.956   3.166  17.509  0.00  0.00    +0.000 NA
ATOM      3  C   UNL     1       4.134   2.370  18.742  0.00  0.00    +0.000 C 
ATOM      4  C   UNL     1       3.309   2.861  19.952  0.00  0.00    +0.000 C 
ATOM      5  C   UNL     1       1.850   2.377  19.889  0.00  0.00    +0.000 C 
ATOM      6  C   UNL     1       0.961   3.354  19.125  0.00  0.00    +0.000 C 
ATOM      7  C   UNL     1       1.779   4.291  18.221  0.00  0.00    +0.000 C 
ATOM      8  C   UNL     1       2.544   3.471  17.139  0.00  0.00    +0.000 C 
ATOM      9  N   UNL     1       2.707   5.118  19.015  0.00  0.00    +0.000 NA
ATOM     10  C   UNL     1       3.309   4.390  20.148  0.00  0.00    +0.000 C 
BRANCH   2  12
ATOM     11  C   UNL     1       5.986   3.507  15.778  0.00  0.00    +0.000 C 
ATOM     12  S   UNL     1       5.145   4.325  17.117  0.00  0.00    +0.000 S 
ATOM     13  O   UNL     1       6.099   4.433  18.197  0.00  0.00    +0.000 OA
ATOM     14  O   UNL     1       4.499   5.493  16.548  0.00  0.00    +0.000 OA
ENDBRANCH   2  12
ENDBRANCH   1   9
BRANCH   1  15
ATOM     15  C   UNL     1       2.910   7.581  18.635  0.00  0.00    +0.000 C 
BRANCH  15  16
ATOM     16  C   UNL     1       1.932   8.702  18.356  0.00  0.00    +0.000 C 
ATOM     17  O   UNL     1       1.850   9.241  17.257  0.00  0.00    +0.000 OA
ATOM     18  N   UNL     1       1.203   9.102  19.452  0.00  0.00    +0.000 N 
ATOM     19  H   UNL     1       1.124   8.465  20.236  0.00  0.00    +0.000 HD
BRANCH  18  20
ATOM     20  C   UNL     1       0.222  10.164  19.356  0.00  0.00    +0.000 C 
BRANCH  20  21
ATOM     21  C   UNL     1      -0.379  10.489  20.692  0.00  0.00    +0.000 A 
ATOM     22  C   UNL     1      -0.133   9.682  21.815  0.00  0.00    +0.000 A 
ATOM     23  C   UNL     1      -0.653  10.019  23.066  0.00  0.00    +0.000 A 
ATOM     24  C   UNL     1      -1.430  11.168  23.216  0.00  0.00    +0.000 A 
ATOM     25  C   UNL     1      -1.683  11.980  22.111  0.00  0.00    +0.000 A 
ATOM     26  C   UNL     1      -1.159  11.636  20.867  0.00  0.00    +0.000 A 
ATOM     27  F   UNL     1      -1.410  12.439  19.822  0.00  0.00    +0.000 F 
ENDBRANCH  20  21
ENDBRANCH  18  20
ENDBRANCH  15  16
ENDBRANCH   1  15
TORSDOF 6
ENDMDL
MODEL 8
REMARK VINA RESULT:      -7.3      1.694      2.456
REMARK  Name = 
REMARK  7 active torsions:
REMARK  status: ('A' for Active; 'I' for Inactive)
REMARK    1  A    between atoms: C_1  and  S_2
REMARK    2  A    between atoms: S_2  and  N_5
REMARK    3  A    between atoms: N_12  and  C_13
REMARK    4  A    between atoms: C_13  and  C_14
REMARK    5  A    between atoms: C_14  and  C_15
REMARK    6  A    between atoms: N_17  and  C_18
REMARK    7  A    between atoms: C_18  and  C_19
REMARK                            x       y       z     vdW  Elec       q    Type
REMARK                         _______ _______ _______ _____ _____    ______ ____
ROOT
ATOM      1  C   UNL     1       1.972   7.200  17.930  0.00  0.00    +0.000 C 
ENDROOT
BRANCH   1   9
ATOM      2  N   UNL     1       4.779   4.126  17.731  0.00  0.00    +0.000 NA
ATOM      3  C   UNL     1       4.831   3.890  19.189  0.00  0.00    +0.000 C 
ATOM      4  C   UNL     1       3.658   4.501  19.985  0.00  0.00    +0.000 C 
ATOM      5  C   UNL     1       2.397   3.620  19.920  0.00  0.00    +0.000 C 
ATOM      6  C   UNL     1       1.521   3.972  18.721  0.00  0.00    +0.000 C 
ATOM      7  C   UNL     1       2.303   4.739  17.642  0.00  0.00    +0.000 C 
ATOM      8  C   UNL     1       3.463   3.859  17.083  0.00  0.00    +0.000 C 
ATOM      9  N   UNL     1       2.813   6.020  18.165  0.00  0.00    +0.000 NA
ATOM     10  C   UNL     1       3.276   5.933  19.563  0.00  0.00    +0.000 C 
BRANCH   2  12
ATOM     11  C   UNL     1       7.131   4.445  16.466  0.00  0.00    +0.000 C 
ATOM     12  S   UNL     1       5.742   5.375  17.080  0.00  0.00    +0.000 S 
ATOM     13  O   UNL     1       6.247   6.211  18.146  0.00  0.00    +0.000 OA
ATOM     14  O   UNL     1       5.074   5.936  15.921  0.00  0.00    +0.000 OA
ENDBRANCH   2  12
ENDBRANCH   1   9
BRANCH   1  15
ATOM     15  C   UNL     1       2.784   8.467  17.653  0.00  0.00    +0.000 C 
BRANCH  15  16
ATOM     16  C   UNL     1       1.991   9.699  18.035  0.00  0.00    +0.000 C 
ATOM     17  O   UNL     1       2.456  10.831  17.944  0.00  0.00    +0.000 OA
ATOM     18  N   UNL     1       0.744   9.431  18.551  0.00  0.00    +0.000 N 
ATOM     19  H   UNL     1       0.328   8.528  18.359  0.00  0.00    +0.000 HD
BRANCH  18  20
ATOM     20  C   UNL     1      -0.143  10.499  18.965  0.00  0.00    +0.000 C 
BRANCH  20  21
ATOM     21  C   UNL     1      -0.442  10.435  20.435  0.00  0.00    +0.000 A 
ATOM     22  C   UNL     1      -0.161   9.281  21.184  0.00  0.00    +0.000 A 
ATOM     23  C   UNL     1      -0.393   9.248  22.560  0.00  0.00    +0.000 A 
ATOM     24  C   UNL     1      -0.913  10.366  23.211  0.00  0.00    +0.000 A 
ATOM     25  C   UNL     1      -1.198  11.520  22.480  0.00  0.00    +0.000 A 
ATOM     26  C   UNL     1      -0.962  11.544  21.109  0.00  0.00    +0.000 A 
ATOM     27  F   UNL     1      -1.236  12.670  20.432  0.00  0.00    +0.000 F 
ENDBRANCH  20  21
ENDBRANCH  18  20
ENDBRANCH  15  16
ENDBRANCH   1  15
TORSDOF 6
ENDMDL
MODEL 9
REMARK VINA RESULT:      -7.3      5.206      7.960
REMARK  Name = 
REMARK  7 active torsions:
REMARK  status: ('A' for Active; 'I' for Inactive)
REMARK    1  A    between atoms: C_1  and  S_2
REMARK    2  A    between atoms: S_2  and  N_5
REMARK    3  A    between atoms: N_12  and  C_13
REMARK    4  A    between atoms: C_13  and  C_14
REMARK    5  A    between atoms: C_14  and  C_15
REMARK    6  A    between atoms: N_17  and  C_18
REMARK    7  A    between atoms: C_18  and  C_19
REMARK                            x       y       z     vdW  Elec       q    Type
REMARK                         _______ _______ _______ _____ _____    ______ ____
ROOT
ATOM      1  C   UNL     1       6.878   5.950  19.304  0.00  0.00    +0.000 C 
ENDROOT
BRANCH   1   9
ATOM      2  N   UNL     1       4.912   4.889  15.786  0.00  0.00    +0.000 NA
ATOM      3  C   UNL     1       4.112   3.804  16.394  0.00  0.00    +0.000 C 
ATOM      4  C   UNL     1       4.046   3.838  17.936  0.00  0.00    +0.000 C 
ATOM      5  C   UNL     1       3.004   4.849  18.447  0.00  0.00    +0.000 C 
ATOM      6  C   UNL     1       3.606   6.240  18.629  0.00  0.00    +0.000 C 
ATOM      7  C   UNL     1       4.910   6.412  17.833  0.00  0.00    +0.000 C 
ATOM      8  C   UNL     1       4.639   6.259  16.306  0.00  0.00    +0.000 C 
ATOM      9  N   UNL     1       5.940   5.458  18.288  0.00  0.00    +0.000 NA
ATOM     10  C   UNL     1       5.392   4.132  18.628  0.00  0.00    +0.000 C 
BRANCH   2  12
ATOM     11  C   UNL     1       6.213   3.889  13.655  0.00  0.00    +0.000 C 
ATOM     12  S   UNL     1       6.506   4.535  15.288  0.00  0.00    +0.000 S 
ATOM     13  O   UNL     1       7.034   3.443  16.073  0.00  0.00    +0.000 OA
ATOM     14  O   UNL     1       7.236   5.776  15.117  0.00  0.00    +0.000 OA
ENDBRANCH   2  12
ENDBRANCH   1   9
BRANCH   1  15
ATOM     15  C   UNL     1       8.215   6.404  18.712  0.00  0.00    +0.000 C 
BRANCH  15  16
ATOM     16  C   UNL     1       8.083   7.780  18.095  0.00  0.00    +0.000 C 
ATOM     17  O   UNL     1       7.588   7.956  16.986  0.00  0.00    +0.000 OA
ATOM     18  N   UNL     1       8.623   8.793  18.854  0.00  0.00    +0.000 N 
ATOM     19  H   UNL     1       8.771   8.628  19.842  0.00  0.00    +0.000 HD
BRANCH  18  20
ATOM     20  C   UNL     1       8.580  10.171  18.408  0.00  0.00    +0.000 C 
BRANCH  20  21
ATOM     21  C   UNL     1       9.820  10.921  18.798  0.00  0.00    +0.000 A 
ATOM     22  C   UNL     1      10.734  11.368  17.829  0.00  0.00    +0.000 A 
ATOM     23  C   UNL     1      11.858  12.110  18.194  0.00  0.00    +0.000 A 
ATOM     24  C   UNL     1      12.091  12.416  19.534  0.00  0.00    +0.000 A 
ATOM     25  C   UNL     1      11.193  11.980  20.509  0.00  0.00    +0.000 A 
ATOM     26  C   UNL     1      10.073  11.241  20.135  0.00  0.00    +0.000 A 
ATOM     27  F   UNL     1       9.221  10.841  21.091  0.00  0.00    +0.000 F 
ENDBRANCH  20  21
ENDBRANCH  18  20
ENDBRANCH  15  16
ENDBRANCH   1  15
TORSDOF 6
ENDMDL
