MODEL 1
REMARK VINA RESULT:      -5.7      0.000      0.000
REMARK  Name = 
REMARK  5 active torsions:
REMARK  status: ('A' for Active; 'I' for Inactive)
REMARK    1  A    between atoms: CB_1  and  CA_2
REMARK    2  A    between atoms: CA_2  and  N_3
REMARK    3  A    between atoms: CA_2  and  C_4
REMARK    4  A    between atoms: CA_10  and  C_11
REMARK    5  A    between atoms: C_11  and  OXT_13
REMARK                            x       y       z     vdW  Elec       q    Type
REMARK                         _______ _______ _______ _____ _____    ______ ____
ROOT
ATOM      1  C   ALA A   1       5.532   4.176  18.707  0.00  0.00    +0.000 C 
ATOM      2  O   ALA A   1       6.318   4.571  19.581  0.00  0.00    +0.000 OA
ATOM      3  N   PRO A   2       5.768   4.513  17.395  0.00  0.00    +0.000 N 
ATOM      4  CD  PRO A   2       4.955   4.223  16.234  0.00  0.00    +0.000 C 
ATOM      5  CG  PRO A   2       5.972   3.898  15.159  0.00  0.00    +0.000 C 
ATOM      6  CB  PRO A   2       7.148   4.816  15.473  0.00  0.00    +0.000 C 
ATOM      7  CA  PRO A   2       7.069   5.076  16.986  0.00  0.00    +0.000 C 
ENDROOT
BRANCH   1   9
ATOM      8  CB  ALA A   1       3.257   3.959  19.909  0.00  0.00    +0.000 C 
ATOM      9  CA  ALA A   1       4.320   3.268  19.068  0.00  0.00    +0.000 C 
BRANCH   9  10
ATOM     10  N   ALA A   1       4.815   2.096  19.827  0.00  0.00    +0.000 NA
ATOM     11  H1  ALA A   1       5.384   2.442  20.604  0.00  0.00    +0.000 HD
ATOM     12  H2  ALA A   1       5.492   1.602  19.239  0.00  0.00    +0.000 HD
ENDBRANCH   9  10
ENDBRANCH   1   9
BRANCH   7  13
ATOM     13  C   PRO A   2       7.228   6.569  17.334  0.00  0.00    +0.000 C 
ATOM     14  O   PRO A   2       6.811   7.491  16.647  0.00  0.00    +0.000 OA
BRANCH  13  15
ATOM     15  OXT PRO A   2       7.971   6.798  18.444  0.00  0.00    +0.000 OA
ATOM     16  HXT PRO A   2       7.682   6.249  19.214  0.00  0.00    +0.000 HD
ENDBRANCH  13  15
ENDBRANCH   7  13
TORSDOF 4
ENDMDL
MODEL 2
REMARK VINA RESULT:      -5.5      2.501      3.424
REMARK  Name = 
REMARK  5 active torsions:
REMARK  status: ('A' for Active; 'I' for Inactive)
REMARK    1  A    between atoms: CB_1  and  CA_2
REMARK    2  A    between atoms: CA_2  and  N_3
REMARK    3  A    between atoms: CA_2  and  C_4
REMARK    4  A    between atoms: CA_10  and  C_11
REMARK    5  A    between atoms: C_11  and  OXT_13
REMARK                            x       y       z     vdW  Elec       q    Type
REMARK                         _______ _______ _______ _____ _____    ______ ____
ROOT
ATOM      1  C   ALA A   1       2.965   3.486  18.846  0.00  0.00    +0.000 C 
ATOM      2  O   ALA A   1       3.753   2.599  18.486  0.00  0.00    +0.000 OA
ATOM      3  N   PRO A   2       3.354   4.802  18.753  0.00  0.00    +0.000 N 
ATOM      4  CD  PRO A   2       2.632   5.983  19.175  0.00  0.00    +0.000 C 
ATOM      5  CG  PRO A   2       2.928   6.991  18.083  0.00  0.00    +0.000 C 
ATOM      6  CB  PRO A   2       4.359   6.671  17.664  0.00  0.00    +0.000 C 
ATOM      7  CA  PRO A   2       4.552   5.180  17.981  0.00  0.00    +0.000 C 
ENDROOT
BRANCH   1   9
ATOM      8  CB  ALA A   1       1.430   2.965  20.855  0.00  0.00    +0.000 C 
ATOM      9  CA  ALA A   1       1.534   3.135  19.346  0.00  0.00    +0.000 C 
BRANCH   9  10
ATOM     10  N   ALA A   1       1.107   1.866  18.711  0.00  0.00    +0.000 NA
ATOM     11  H1  ALA A   1       0.877   1.203  19.457  0.00  0.00    +0.000 HD
ATOM     12  H2  ALA A   1       1.926   1.446  18.265  0.00  0.00    +0.000 HD
ENDBRANCH   9  10
ENDBRANCH   1   9
BRANCH   7  13
ATOM     13  C   PRO A   2       5.874   4.904  18.724  0.00  0.00    +0.000 C 
ATOM     14  O   PRO A   2       6.291   5.561  19.669  0.00  0.00    +0.000 OA
BRANCH  13  15
ATOM     15  OXT PRO A   2       6.614   3.907  18.180  0.00  0.00    +0.000 OA
ATOM     16  HXT PRO A   2       7.580   4.011  18.359  0.00  0.00    +0.000 HD
ENDBRANCH  13  15
ENDBRANCH   7  13
TORSDOF 4
ENDMDL
MODEL 3
REMARK VINA RESULT:      -5.5      1.544      1.725
REMARK  Name = 
REMARK  5 active torsions:
REMARK  status: ('A' for Active; 'I' for Inactive)
REMARK    1  A    between atoms: CB_1  and  CA_2
REMARK    2  A    between atoms: CA_2  and  N_3
REMARK    3  A    between atoms: CA_2  and  C_4
REMARK    4  A    between atoms: CA_10  and  C_11
REMARK    5  A    between atoms: C_11  and  OXT_13
REMARK                            x       y       z     vdW  Elec       q    Type
REMARK                         _______ _______ _______ _____ _____    ______ ____
ROOT
ATOM      1  C   ALA A   1       4.318   3.642  18.013  0.00  0.00    +0.000 C 
ATOM      2  O   ALA A   1       4.639   3.485  19.200  0.00  0.00    +0.000 OA
ATOM      3  N   PRO A   2       5.212   4.235  17.153  0.00  0.00    +0.000 N 
ATOM      4  CD  PRO A   2       5.024   4.578  15.759  0.00  0.00    +0.000 C 
ATOM      5  CG  PRO A   2       6.362   4.247  15.128  0.00  0.00    +0.000 C 
ATOM      6  CB  PRO A   2       7.376   4.587  16.214  0.00  0.00    +0.000 C 
ATOM      7  CA  PRO A   2       6.622   4.419  17.542  0.00  0.00    +0.000 C 
ENDROOT
BRANCH   1   9
ATOM      8  CB  ALA A   1       1.778   4.050  17.797  0.00  0.00    +0.000 C 
ATOM      9  CA  ALA A   1       2.949   3.133  17.476  0.00  0.00    +0.000 C 
BRANCH   9  10
ATOM     10  N   ALA A   1       2.669   1.806  18.075  0.00  0.00    +0.000 NA
ATOM     11  H1  ALA A   1       1.668   1.617  17.966  0.00  0.00    +0.000 HD
ATOM     12  H2  ALA A   1       2.786   1.886  19.088  0.00  0.00    +0.000 HD
ENDBRANCH   9  10
ENDBRANCH   1   9
BRANCH   7  13
ATOM     13  C   PRO A   2       6.845   5.609  18.498  0.00  0.00    +0.000 C 
ATOM     14  O   PRO A   2       7.101   6.750  18.139  0.00  0.00    +0.000 OA
BRANCH  13  15
ATOM     15  OXT PRO A   2       6.831   5.270  19.810  0.00  0.00    +0.000 OA
ATOM     16  HXT PRO A   2       6.151   5.771  20.323  0.00  0.00    +0.000 HD
ENDBRANCH  13  15
ENDBRANCH   7  13
TORSDOF 4
ENDMDL
MODEL 4
REMARK VINA RESULT:      -5.5      2.789      5.247
REMARK  Name = 
REMARK  5 active torsions:
REMARK  status: ('A' for Active; 'I' for Inactive)
REMARK    1  A    between atoms: CB_1  and  CA_2
REMARK    2  A    between atoms: CA_2  and  N_3
REMARK    3  A    between atoms: CA_2  and  C_4
REMARK    4  A    between atoms: CA_10  and  C_11
REMARK    5  A    between atoms: C_11  and  OXT_13
REMARK                            x       y       z     vdW  Elec       q    Type
REMARK                         _______ _______ _______ _____ _____    ______ ____
ROOT
ATOM      1  C   ALA A   1       4.829   4.458  19.161  0.00  0.00    +0.000 C 
ATOM      2  O   ALA A   1       5.211   3.287  19.020  0.00  0.00    +0.000 OA
ATOM      3  N   PRO A   2       3.490   4.703  19.356  0.00  0.00    +0.000 N 
ATOM      4  CD  PRO A   2       2.819   5.980  19.473  0.00  0.00    +0.000 C 
ATOM      5  CG  PRO A   2       1.780   5.740  20.550  0.00  0.00    +0.000 C 
ATOM      6  CB  PRO A   2       1.353   4.292  20.334  0.00  0.00    +0.000 C 
ATOM      7  CA  PRO A   2       2.563   3.603  19.683  0.00  0.00    +0.000 C 
ENDROOT
BRANCH   1   9
ATOM      8  CB  ALA A   1       6.215   6.149  17.789  0.00  0.00    +0.000 C 
ATOM      9  CA  ALA A   1       5.842   5.639  19.173  0.00  0.00    +0.000 C 
BRANCH   9  10
ATOM     10  N   ALA A   1       7.084   5.191  19.846  0.00  0.00    +0.000 NA
ATOM     11  H1  ALA A   1       7.293   5.857  20.596  0.00  0.00    +0.000 HD
ATOM     12  H2  ALA A   1       7.861   5.317  19.193  0.00  0.00    +0.000 HD
ENDBRANCH   9  10
ENDBRANCH   1   9
BRANCH   7  13
ATOM     13  C   PRO A   2       2.167   2.750  18.462  0.00  0.00    +0.000 C 
ATOM     14  O   PRO A   2       1.956   3.196  17.342  0.00  0.00    +0.000 OA
BRANCH  13  15
ATOM     15  OXT PRO A   2       1.970   1.440  18.746  0.00  0.00    +0.000 OA
ATOM     16  HXT PRO A   2       1.737   0.909  17.945  0.00  0.00    +0.000 HD
ENDBRANCH  13  15
ENDBRANCH   7  13
TORSDOF 4
ENDMDL
MODEL 5
REMARK VINA RESULT:      -5.5      2.415      3.711
REMARK  Name = 
REMARK  5 active torsions:
REMARK  status: ('A' for Active; 'I' for Inactive)
REMARK    1  A    between atoms: CB_1  and  CA_2
REMARK    2  A    between atoms: CA_2  and  N_3
REMARK    3  A    between atoms: CA_2  and  C_4
REMARK    4  A    between atoms: CA_10  and  C_11
REMARK    5  A    between atoms: C_11  and  OXT_13
REMARK                            x       y       z     vdW  Elec       q    Type
REMARK                         _______ _______ _______ _____ _____    ______ ____
ROOT
ATOM      1  C   ALA A   1       7.361   5.067  17.824  0.00  0.00    +0.000 C 
ATOM      2  O   ALA A   1       8.227   4.302  17.377  0.00  0.00    +0.000 OA
ATOM      3  N   PRO A   2       6.127   5.104  17.218  0.00  0.00    +0.000 N 
ATOM      4  CD  PRO A   2       5.002   5.962  17.525  0.00  0.00    +0.000 C 
ATOM      5  CG  PRO A   2       3.803   5.048  17.365  0.00  0.00    +0.000 C 
ATOM      6  CB  PRO A   2       4.196   4.121  16.220  0.00  0.00    +0.000 C 
ATOM      7  CA  PRO A   2       5.731   4.063  16.251  0.00  0.00    +0.000 C 
ENDROOT
BRANCH   1   9
ATOM      8  CB  ALA A   1       8.303   7.272  18.781  0.00  0.00    +0.000 C 
ATOM      9  CA  ALA A   1       7.632   5.940  19.083  0.00  0.00    +0.000 C 
BRANCH   9  10
ATOM     10  N   ALA A   1       8.511   5.183  20.005  0.00  0.00    +0.000 NA
ATOM     11  H1  ALA A   1       9.474   5.494  19.847  0.00  0.00    +0.000 HD
ATOM     12  H2  ALA A   1       8.524   4.207  19.698  0.00  0.00    +0.000 HD
ENDBRANCH   9  10
ENDBRANCH   1   9
BRANCH   7  13
ATOM     13  C   PRO A   2       6.355   4.254  14.854  0.00  0.00    +0.000 C 
ATOM     14  O   PRO A   2       6.830   5.304  14.442  0.00  0.00    +0.000 OA
BRANCH  13  15
ATOM     15  OXT PRO A   2       6.253   3.165  14.053  0.00  0.00    +0.000 OA
ATOM     16  HXT PRO A   2       5.480   3.217  13.439  0.00  0.00    +0.000 HD
ENDBRANCH  13  15
ENDBRANCH   7  13
TORSDOF 4
ENDMDL
MODEL 6
REMARK VINA RESULT:      -5.4      2.099      4.749
REMARK  Name = 
REMARK  5 active torsions:
REMARK  status: ('A' for Active; 'I' for Inactive)
REMARK    1  A    between atoms: CB_1  and  CA_2
REMARK    2  A    between atoms: CA_2  and  N_3
REMARK    3  A    between atoms: CA_2  and  C_4
REMARK    4  A    between atoms: CA_10  and  C_11
REMARK    5  A    between atoms: C_11  and  OXT_13
REMARK                            x       y       z     vdW  Elec       q    Type
REMARK                         _______ _______ _______ _____ _____    ______ ____
ROOT
ATOM      1  C   ALA A   1       5.646   5.050  17.758  0.00  0.00    +0.000 C 
ATOM      2  O   ALA A   1       6.529   4.320  18.231  0.00  0.00    +0.000 OA
ATOM      3  N   PRO A   2       4.386   5.015  18.308  0.00  0.00    +0.000 N 
ATOM      4  CD  PRO A   2       3.199   5.721  17.876  0.00  0.00    +0.000 C 
ATOM      5  CG  PRO A   2       2.531   6.123  19.176  0.00  0.00    +0.000 C 
ATOM      6  CB  PRO A   2       2.837   4.966  20.121  0.00  0.00    +0.000 C 
ATOM      7  CA  PRO A   2       4.150   4.355  19.606  0.00  0.00    +0.000 C 
ENDROOT
BRANCH   1   9
ATOM      8  CB  ALA A   1       5.597   5.499  15.216  0.00  0.00    +0.000 C 
ATOM      9  CA  ALA A   1       5.956   6.035  16.594  0.00  0.00    +0.000 C 
BRANCH   9  10
ATOM     10  N   ALA A   1       7.406   6.340  16.604  0.00  0.00    +0.000 NA
ATOM     11  H1  ALA A   1       7.803   5.953  17.465  0.00  0.00    +0.000 HD
ATOM     12  H2  ALA A   1       7.516   7.350  16.725  0.00  0.00    +0.000 HD
ENDBRANCH   9  10
ENDBRANCH   1   9
BRANCH   7  13
ATOM     13  C   PRO A   2       4.084   2.818  19.510  0.00  0.00    +0.000 C 
ATOM     14  O   PRO A   2       3.097   2.184  19.160  0.00  0.00    +0.000 OA
BRANCH  13  15
ATOM     15  OXT PRO A   2       5.204   2.192  19.945  0.00  0.00    +0.000 OA
ATOM     16  HXT PRO A   2       5.408   2.394  20.892  0.00  0.00    +0.000 HD
ENDBRANCH  13  15
ENDBRANCH   7  13
TORSDOF 4
ENDMDL
MODEL 7
REMARK VINA RESULT:      -5.4      2.025      4.835
REMARK  Name = 
REMARK  5 active torsions:
REMARK  status: ('A' for Active; 'I' for Inactive)
REMARK    1  A    between atoms: CB_1  and  CA_2
REMARK    2  A    between atoms: CA_2  and  N_3
REMARK    3  A    between atoms: CA_2  and  C_4
REMARK    4  A    between atoms: CA_10  and  C_11
REMARK    5  A    between atoms: C_11  and  OXT_13
REMARK                            x       y       z     vdW  Elec       q    Type
REMARK                         _______ _______ _______ _____ _____    ______ ____
ROOT
ATOM      1  C   ALA A   1       5.357   4.355  17.578  0.00  0.00    +0.000 C 
ATOM      2  O   ALA A   1       6.289   4.237  18.387  0.00  0.00    +0.000 OA
ATOM      3  N   PRO A   2       4.117   3.862  17.911  0.00  0.00    +0.000 N 
ATOM      4  CD  PRO A   2       2.918   3.828  17.102  0.00  0.00    +0.000 C 
ATOM      5  CG  PRO A   2       1.813   4.147  18.090  0.00  0.00    +0.000 C 
ATOM      6  CB  PRO A   2       2.280   3.498  19.388  0.00  0.00    +0.000 C 
ATOM      7  CA  PRO A   2       3.813   3.467  19.299  0.00  0.00    +0.000 C 
ENDROOT
BRANCH   1   9
ATOM      8  CB  ALA A   1       6.304   4.276  15.177  0.00  0.00    +0.000 C 
ATOM      9  CA  ALA A   1       5.558   5.093  16.222  0.00  0.00    +0.000 C 
BRANCH   9  10
ATOM     10  N   ALA A   1       6.328   6.335  16.469  0.00  0.00    +0.000 NA
ATOM     11  H1  ALA A   1       5.994   6.743  17.347  0.00  0.00    +0.000 HD
ATOM     12  H2  ALA A   1       6.048   7.024  15.766  0.00  0.00    +0.000 HD
ENDBRANCH   9  10
ENDBRANCH   1   9
BRANCH   7  13
ATOM     13  C   PRO A   2       4.396   2.093  19.688  0.00  0.00    +0.000 C 
ATOM     14  O   PRO A   2       5.055   1.878  20.697  0.00  0.00    +0.000 OA
BRANCH  13  15
ATOM     15  OXT PRO A   2       4.200   1.129  18.756  0.00  0.00    +0.000 OA
ATOM     16  HXT PRO A   2       4.978   0.525  18.667  0.00  0.00    +0.000 HD
ENDBRANCH  13  15
ENDBRANCH   7  13
TORSDOF 4
ENDMDL
MODEL 8
REMARK VINA RESULT:      -5.4      2.695      4.668
REMARK  Name = 
REMARK  5 active torsions:
REMARK  status: ('A' for Active; 'I' for Inactive)
REMARK    1  A    between atoms: CB_1  and  CA_2
REMARK    2  A    between atoms: CA_2  and  N_3
REMARK    3  A    between atoms: CA_2  and  C_4
REMARK    4  A    between atoms: CA_10  and  C_11
REMARK    5  A    between atoms: C_11  and  OXT_13
REMARK                            x       y       z     vdW  Elec       q    Type
REMARK                         _______ _______ _______ _____ _____    ______ ____
ROOT
ATOM      1  C   ALA A   1       5.469   4.541  18.933  0.00  0.00    +0.000 C 
ATOM      2  O   ALA A   1       5.445   3.493  19.596  0.00  0.00    +0.000 OA
ATOM      3  N   PRO A   2       4.290   5.037  18.428  0.00  0.00    +0.000 N 
ATOM      4  CD  PRO A   2       4.093   6.192  17.579  0.00  0.00    +0.000 C 
ATOM      5  CG  PRO A   2       2.818   6.813  18.112  0.00  0.00    +0.000 C 
ATOM      6  CB  PRO A   2       1.979   5.617  18.550  0.00  0.00    +0.000 C 
ATOM      7  CA  PRO A   2       2.992   4.514  18.896  0.00  0.00    +0.000 C 
ENDROOT
BRANCH   1   9
ATOM      8  CB  ALA A   1       7.741   4.669  17.714  0.00  0.00    +0.000 C 
ATOM      9  CA  ALA A   1       6.796   5.323  18.711  0.00  0.00    +0.000 C 
BRANCH   9  10
ATOM     10  N   ALA A   1       7.504   5.432  20.009  0.00  0.00    +0.000 NA
ATOM     11  H1  ALA A   1       8.510   5.411  19.821  0.00  0.00    +0.000 HD
ATOM     12  H2  ALA A   1       7.342   4.567  20.531  0.00  0.00    +0.000 HD
ENDBRANCH   9  10
ENDBRANCH   1   9
BRANCH   7  13
ATOM     13  C   PRO A   2       2.617   3.155  18.273  0.00  0.00    +0.000 C 
ATOM     14  O   PRO A   2       2.683   2.081  18.855  0.00  0.00    +0.000 OA
BRANCH  13  15
ATOM     15  OXT PRO A   2       2.285   3.225  16.960  0.00  0.00    +0.000 OA
ATOM     16  HXT PRO A   2       2.629   2.456  16.442  0.00  0.00    +0.000 HD
ENDBRANCH  13  15
ENDBRANCH   7  13
TORSDOF 4
ENDMDL
MODEL 9
REMARK VINA RESULT:      -5.3      2.093      2.401
REMARK  Name = 
REMARK  5 active torsions:
REMARK  status: ('A' for Active; 'I' for Inactive)
REMARK    1  A    between atoms: CB_1  and  CA_2
REMARK    2  A    between atoms: CA_2  and  N_3
REMARK    3  A    between atoms: CA_2  and  C_4
REMARK    4  A    between atoms: CA_10  and  C_11
REMARK    5  A    between atoms: C_11  and  OXT_13
REMARK                            x       y       z     vdW  Elec       q    Type
REMARK                         _______ _______ _______ _____ _____    ______ ____
ROOT
ATOM      1  C   ALA A   1       4.497   5.736  18.535  0.00  0.00    +0.000 C 
ATOM      2  O   ALA A   1       4.629   5.548  19.753  0.00  0.00    +0.000 OA
ATOM      3  N   PRO A   2       5.594   5.601  17.717  0.00  0.00    +0.000 N 
ATOM      4  CD  PRO A   2       5.685   5.838  16.292  0.00  0.00    +0.000 C 
ATOM      5  CG  PRO A   2       6.589   4.725  15.803  0.00  0.00    +0.000 C 
ATOM      6  CB  PRO A   2       7.577   4.521  16.947  0.00  0.00    +0.000 C 
ATOM      7  CA  PRO A   2       6.830   4.968  18.213  0.00  0.00    +0.000 C 
ENDROOT
BRANCH   1   9
ATOM      8  CB  ALA A   1       2.415   7.262  18.558  0.00  0.00    +0.000 C 
ATOM      9  CA  ALA A   1       3.107   6.068  17.918  0.00  0.00    +0.000 C 
BRANCH   9  10
ATOM     10  N   ALA A   1       2.225   4.888  18.076  0.00  0.00    +0.000 NA
ATOM     11  H1  ALA A   1       2.066   4.487  17.147  0.00  0.00    +0.000 HD
ATOM     12  H2  ALA A   1       1.297   5.221  18.352  0.00  0.00    +0.000 HD
ENDBRANCH   9  10
ENDBRANCH   1   9
BRANCH   7  13
ATOM     13  C   PRO A   2       7.682   5.897  19.101  0.00  0.00    +0.000 C 
ATOM     14  O   PRO A   2       8.257   6.902  18.705  0.00  0.00    +0.000 OA
BRANCH  13  15
ATOM     15  OXT PRO A   2       7.831   5.456  20.374  0.00  0.00    +0.000 OA
ATOM     16  HXT PRO A   2       7.277   4.660  20.567  0.00  0.00    +0.000 HD
ENDBRANCH  13  15
ENDBRANCH   7  13
TORSDOF 4
ENDMDL
