MODEL 1
REMARK VINA RESULT:      -8.3      0.000      0.000
REMARK  Name = 
REMARK  4 active torsions:
REMARK  status: ('A' for Active; 'I' for Inactive)
REMARK    1  A    between atoms: N_3  and  C_4
REMARK    2  A    between atoms: C_6  and  C_7
REMARK    3  A    between atoms: C_16  and  C_17
REMARK    4  A    between atoms: C_19  and  C_20
REMARK                            x       y       z     vdW  Elec       q    Type
REMARK                         _______ _______ _______ _____ _____    ______ ____
ROOT
ATOM      1  O   UNL     1       8.114   9.512  16.945  0.00  0.00    +0.000 OA
ATOM      2  C   UNL     1       8.172   8.769  17.924  0.00  0.00    +0.000 C 
ATOM      3  N   UNL     1       8.644   9.209  19.137  0.00  0.00    +0.000 N 
ATOM      4  N   UNL     1       7.747   7.443  17.882  0.00  0.00    +0.000 N 
ATOM      5  C   UNL     1       7.612   6.547  19.032  0.00  0.00    +0.000 C 
ATOM      6  C   UNL     1       8.060   5.130  18.671  0.00  0.00    +0.000 C 
ATOM      7  C   UNL     1       7.360   4.585  17.417  0.00  0.00    +0.000 C 
ATOM      8  C   UNL     1       7.442   5.595  16.267  0.00  0.00    +0.000 C 
ATOM      9  C   UNL     1       7.033   7.006  16.683  0.00  0.00    +0.000 C 
ATOM     10  H   UNL     1       9.030   8.522  19.762  0.00  0.00    +0.000 HD
ENDROOT
BRANCH   7  11
ATOM     11  C   UNL     1       5.953   4.211  17.721  0.00  0.00    +0.000 A 
ATOM     12  N   UNL     1       5.367   4.082  18.886  0.00  0.00    +0.000 NA
ATOM     13  C   UNL     1       4.105   3.633  18.549  0.00  0.00    +0.000 A 
ATOM     14  N   UNL     1       3.918   3.514  17.221  0.00  0.00    +0.000 NA
ATOM     15  O   UNL     1       5.142   3.895  16.674  0.00  0.00    +0.000 OA
BRANCH  13  16
ATOM     16  C   UNL     1       3.121   3.290  19.578  0.00  0.00    +0.000 A 
ATOM     17  C   UNL     1       1.778   3.624  19.387  0.00  0.00    +0.000 A 
ATOM     18  C   UNL     1       0.861   3.341  20.394  0.00  0.00    +0.000 A 
ATOM     19  C   UNL     1       1.303   2.732  21.559  0.00  0.00    +0.000 A 
ATOM     20  C   UNL     1       2.650   2.425  21.670  0.00  0.00    +0.000 A 
ATOM     21  N   UNL     1       3.564   2.689  20.711  0.00  0.00    +0.000 NA
ENDBRANCH  13  16
ENDBRANCH   7  11
BRANCH   3  22
ATOM     22  C   UNL     1       9.136  10.544  19.316  0.00  0.00    +0.000 C 
ATOM     23  C   UNL     1      10.601  10.820  19.138  0.00  0.00    +0.000 C 
ATOM     24  C   UNL     1       9.984  10.923  20.512  0.00  0.00    +0.000 C 
BRANCH  24  25
ATOM     25  C   UNL     1       9.845  12.280  21.158  0.00  0.00    +0.000 A 
ATOM     26  C   UNL     1      10.560  13.396  20.693  0.00  0.00    +0.000 A 
ATOM     27  C   UNL     1      10.412  14.654  21.285  0.00  0.00    +0.000 A 
ATOM     28  C   UNL     1       9.533  14.824  22.350  0.00  0.00    +0.000 A 
ATOM     29  C   UNL     1       8.803  13.738  22.823  0.00  0.00    +0.000 A 
ATOM     30  C   UNL     1       8.959  12.482  22.232  0.00  0.00    +0.000 A 
ENDBRANCH  24  25
ENDBRANCH   3  22
TORSDOF 4
ENDMDL
MODEL 2
REMARK VINA RESULT:      -8.2      8.649     11.504
REMARK  Name = 
REMARK  4 active torsions:
REMARK  status: ('A' for Active; 'I' for Inactive)
REMARK    1  A    between atoms: N_3  and  C_4
REMARK    2  A    between atoms: C_6  and  C_7
REMARK    3  A    between atoms: C_16  and  C_17
REMARK    4  A    between atoms: C_19  and  C_20
REMARK                            x       y       z     vdW  Elec       q    Type
REMARK                         _______ _______ _______ _____ _____    ______ ____
ROOT
ATOM      1  O   UNL     1       1.489   8.386  21.386  0.00  0.00    +0.000 OA
ATOM      2  C   UNL     1       1.161   8.970  20.355  0.00  0.00    +0.000 C 
ATOM      3  N   UNL     1       1.541   8.516  19.115  0.00  0.00    +0.000 N 
ATOM      4  N   UNL     1       0.368  10.116  20.365  0.00  0.00    +0.000 N 
ATOM      5  C   UNL     1      -0.215  10.769  19.190  0.00  0.00    +0.000 C 
ATOM      6  C   UNL     1      -0.163  12.290  19.333  0.00  0.00    +0.000 C 
ATOM      7  C   UNL     1      -0.782  12.787  20.649  0.00  0.00    +0.000 C 
ATOM      8  C   UNL     1      -0.214  12.011  21.843  0.00  0.00    +0.000 C 
ATOM      9  C   UNL     1      -0.241  10.498  21.638  0.00  0.00    +0.000 C 
ATOM     10  H   UNL     1       1.595   9.189  18.370  0.00  0.00    +0.000 HD
ENDROOT
BRANCH   7  11
ATOM     11  C   UNL     1      -2.266  12.704  20.596  0.00  0.00    +0.000 A 
ATOM     12  N   UNL     1      -3.133  12.786  21.576  0.00  0.00    +0.000 NA
ATOM     13  C   UNL     1      -4.337  12.547  20.944  0.00  0.00    +0.000 A 
ATOM     14  N   UNL     1      -4.215  12.350  19.618  0.00  0.00    +0.000 NA
ATOM     15  O   UNL     1      -2.844  12.452  19.388  0.00  0.00    +0.000 OA
BRANCH  13  16
ATOM     16  C   UNL     1      -5.590  12.480  21.699  0.00  0.00    +0.000 A 
ATOM     17  C   UNL     1      -5.670  13.081  22.958  0.00  0.00    +0.000 A 
ATOM     18  C   UNL     1      -6.848  12.967  23.689  0.00  0.00    +0.000 A 
ATOM     19  C   UNL     1      -7.913  12.262  23.147  0.00  0.00    +0.000 A 
ATOM     20  C   UNL     1      -7.760  11.702  21.890  0.00  0.00    +0.000 A 
ATOM     21  N   UNL     1      -6.628  11.794  21.157  0.00  0.00    +0.000 NA
ENDBRANCH  13  16
ENDBRANCH   7  11
BRANCH   3  22
ATOM     22  C   UNL     1       2.377   7.361  18.959  0.00  0.00    +0.000 C 
ATOM     23  C   UNL     1       3.450   7.365  17.909  0.00  0.00    +0.000 C 
ATOM     24  C   UNL     1       2.256   6.453  17.752  0.00  0.00    +0.000 C 
BRANCH  24  25
ATOM     25  C   UNL     1       2.446   4.962  17.886  0.00  0.00    +0.000 A 
ATOM     26  C   UNL     1       1.400   4.118  18.296  0.00  0.00    +0.000 A 
ATOM     27  C   UNL     1       1.578   2.736  18.400  0.00  0.00    +0.000 A 
ATOM     28  C   UNL     1       2.807   2.165  18.082  0.00  0.00    +0.000 A 
ATOM     29  C   UNL     1       3.857   2.977  17.662  0.00  0.00    +0.000 A 
ATOM     30  C   UNL     1       3.675   4.358  17.566  0.00  0.00    +0.000 A 
ENDBRANCH  24  25
ENDBRANCH   3  22
TORSDOF 4
ENDMDL
MODEL 3
REMARK VINA RESULT:      -8.2      1.281      1.806
REMARK  Name = 
REMARK  4 active torsions:
REMARK  status: ('A' for Active; 'I' for Inactive)
REMARK    1  A    between atoms: N_3  and  C_4
REMARK    2  A    between atoms: C_6  and  C_7
REMARK    3  A    between atoms: C_16  and  C_17
REMARK    4  A    between atoms: C_19  and  C_20
REMARK                            x       y       z     vdW  Elec       q    Type
REMARK                         _______ _______ _______ _____ _____    ______ ____
ROOT
ATOM      1  O   UNL     1       8.213   9.442  17.064  0.00  0.00    +0.000 OA
ATOM      2  C   UNL     1       8.295   8.587  17.944  0.00  0.00    +0.000 C 
ATOM      3  N   UNL     1       8.938   8.832  19.132  0.00  0.00    +0.000 N 
ATOM      4  N   UNL     1       7.728   7.321  17.810  0.00  0.00    +0.000 N 
ATOM      5  C   UNL     1       7.622   6.311  18.865  0.00  0.00    +0.000 C 
ATOM      6  C   UNL     1       7.874   4.911  18.303  0.00  0.00    +0.000 C 
ATOM      7  C   UNL     1       6.991   4.587  17.089  0.00  0.00    +0.000 C 
ATOM      8  C   UNL     1       7.058   5.715  16.052  0.00  0.00    +0.000 C 
ATOM      9  C   UNL     1       6.849   7.099  16.663  0.00  0.00    +0.000 C 
ATOM     10  H   UNL     1       9.312   8.043  19.630  0.00  0.00    +0.000 HD
ENDROOT
BRANCH   7  11
ATOM     11  C   UNL     1       5.592   4.314  17.514  0.00  0.00    +0.000 A 
ATOM     12  N   UNL     1       5.133   4.035  18.710  0.00  0.00    +0.000 NA
ATOM     13  C   UNL     1       3.794   3.791  18.477  0.00  0.00    +0.000 A 
ATOM     14  N   UNL     1       3.441   3.939  17.186  0.00  0.00    +0.000 NA
ATOM     15  O   UNL     1       4.632   4.283  16.549  0.00  0.00    +0.000 OA
BRANCH  13  16
ATOM     16  C   UNL     1       2.900   3.371  19.558  0.00  0.00    +0.000 A 
ATOM     17  C   UNL     1       1.532   3.642  19.468  0.00  0.00    +0.000 A 
ATOM     18  C   UNL     1       0.701   3.284  20.524  0.00  0.00    +0.000 A 
ATOM     19  C   UNL     1       1.250   2.666  21.638  0.00  0.00    +0.000 A 
ATOM     20  C   UNL     1       2.615   2.425  21.649  0.00  0.00    +0.000 A 
ATOM     21  N   UNL     1       3.448   2.762  20.640  0.00  0.00    +0.000 NA
ENDBRANCH  13  16
ENDBRANCH   7  11
BRANCH   3  22
ATOM     22  C   UNL     1       9.586  10.085  19.395  0.00  0.00    +0.000 C 
ATOM     23  C   UNL     1       9.247  10.841  20.647  0.00  0.00    +0.000 C 
ATOM     24  C   UNL     1       8.836  11.398  19.305  0.00  0.00    +0.000 C 
BRANCH  24  25
ATOM     25  C   UNL     1       9.517  12.641  18.783  0.00  0.00    +0.000 A 
ATOM     26  C   UNL     1      10.306  12.619  17.621  0.00  0.00    +0.000 A 
ATOM     27  C   UNL     1      10.918  13.777  17.135  0.00  0.00    +0.000 A 
ATOM     28  C   UNL     1      10.742  14.989  17.796  0.00  0.00    +0.000 A 
ATOM     29  C   UNL     1       9.955  15.042  18.943  0.00  0.00    +0.000 A 
ATOM     30  C   UNL     1       9.351  13.879  19.428  0.00  0.00    +0.000 A 
ENDBRANCH  24  25
ENDBRANCH   3  22
TORSDOF 4
ENDMDL
MODEL 4
REMARK VINA RESULT:      -8.0      8.699     11.603
REMARK  Name = 
REMARK  4 active torsions:
REMARK  status: ('A' for Active; 'I' for Inactive)
REMARK    1  A    between atoms: N_3  and  C_4
REMARK    2  A    between atoms: C_6  and  C_7
REMARK    3  A    between atoms: C_16  and  C_17
REMARK    4  A    between atoms: C_19  and  C_20
REMARK                            x       y       z     vdW  Elec       q    Type
REMARK                         _______ _______ _______ _____ _____    ______ ____
ROOT
ATOM      1  O   UNL     1       1.214   7.940  21.493  0.00  0.00    +0.000 OA
ATOM      2  C   UNL     1       1.043   8.774  20.606  0.00  0.00    +0.000 C 
ATOM      3  N   UNL     1       1.608   8.631  19.362  0.00  0.00    +0.000 N 
ATOM      4  N   UNL     1       0.255   9.908  20.788  0.00  0.00    +0.000 N 
ATOM      5  C   UNL     1      -0.146  10.854  19.744  0.00  0.00    +0.000 C 
ATOM      6  C   UNL     1      -0.121  12.288  20.272  0.00  0.00    +0.000 C 
ATOM      7  C   UNL     1      -0.932  12.463  21.565  0.00  0.00    +0.000 C 
ATOM      8  C   UNL     1      -0.550  11.394  22.595  0.00  0.00    +0.000 C 
ATOM      9  C   UNL     1      -0.540   9.982  22.014  0.00  0.00    +0.000 C 
ATOM     10  H   UNL     1       1.772   9.466  18.827  0.00  0.00    +0.000 HD
ENDROOT
BRANCH   7  11
ATOM     11  C   UNL     1      -2.392  12.448  21.275  0.00  0.00    +0.000 A 
ATOM     12  N   UNL     1      -3.005  12.581  20.124  0.00  0.00    +0.000 NA
ATOM     13  C   UNL     1      -4.339  12.579  20.484  0.00  0.00    +0.000 A 
ATOM     14  N   UNL     1      -4.535  12.427  21.807  0.00  0.00    +0.000 NA
ATOM     15  O   UNL     1      -3.246  12.343  22.330  0.00  0.00    +0.000 OA
BRANCH  13  16
ATOM     16  C   UNL     1      -5.394  12.774  19.487  0.00  0.00    +0.000 A 
ATOM     17  C   UNL     1      -6.514  13.545  19.809  0.00  0.00    +0.000 A 
ATOM     18  C   UNL     1      -7.533  13.681  18.873  0.00  0.00    +0.000 A 
ATOM     19  C   UNL     1      -7.410  13.050  17.643  0.00  0.00    +0.000 A 
ATOM     20  C   UNL     1      -6.266  12.309  17.396  0.00  0.00    +0.000 A 
ATOM     21  N   UNL     1      -5.260  12.157  18.286  0.00  0.00    +0.000 NA
ENDBRANCH  13  16
ENDBRANCH   7  11
BRANCH   3  22
ATOM     22  C   UNL     1       2.461   7.522  19.044  0.00  0.00    +0.000 C 
ATOM     23  C   UNL     1       3.373   7.613  17.854  0.00  0.00    +0.000 C 
ATOM     24  C   UNL     1       2.208   6.651  17.831  0.00  0.00    +0.000 C 
BRANCH  24  25
ATOM     25  C   UNL     1       2.478   5.166  17.878  0.00  0.00    +0.000 A 
ATOM     26  C   UNL     1       1.487   4.247  18.261  0.00  0.00    +0.000 A 
ATOM     27  C   UNL     1       1.738   2.872  18.284  0.00  0.00    +0.000 A 
ATOM     28  C   UNL     1       2.987   2.386  17.910  0.00  0.00    +0.000 A 
ATOM     29  C   UNL     1       3.984   3.274  17.515  0.00  0.00    +0.000 A 
ATOM     30  C   UNL     1       3.728   4.647  17.499  0.00  0.00    +0.000 A 
ENDBRANCH  24  25
ENDBRANCH   3  22
TORSDOF 4
ENDMDL
MODEL 5
REMARK VINA RESULT:      -8.0      8.369     11.432
REMARK  Name = 
REMARK  4 active torsions:
REMARK  status: ('A' for Active; 'I' for Inactive)
REMARK    1  A    between atoms: N_3  and  C_4
REMARK    2  A    between atoms: C_6  and  C_7
REMARK    3  A    between atoms: C_16  and  C_17
REMARK    4  A    between atoms: C_19  and  C_20
REMARK                            x       y       z     vdW  Elec       q    Type
REMARK                         _______ _______ _______ _____ _____    ______ ____
ROOT
ATOM      1  O   UNL     1       1.082   7.236  21.270  0.00  0.00    +0.000 OA
ATOM      2  C   UNL     1       1.209   8.229  20.555  0.00  0.00    +0.000 C 
ATOM      3  N   UNL     1       1.986   8.207  19.422  0.00  0.00    +0.000 N 
ATOM      4  N   UNL     1       0.565   9.434  20.828  0.00  0.00    +0.000 N 
ATOM      5  C   UNL     1       0.516  10.601  19.945  0.00  0.00    +0.000 C 
ATOM      6  C   UNL     1       0.634  11.896  20.750  0.00  0.00    +0.000 C 
ATOM      7  C   UNL     1      -0.388  11.982  21.894  0.00  0.00    +0.000 C 
ATOM      8  C   UNL     1      -0.370  10.700  22.735  0.00  0.00    +0.000 C 
ATOM      9  C   UNL     1      -0.441   9.430  21.889  0.00  0.00    +0.000 C 
ATOM     10  H   UNL     1       2.368   9.082  19.104  0.00  0.00    +0.000 HD
ENDROOT
BRANCH   7  11
ATOM     11  C   UNL     1      -1.747  12.272  21.364  0.00  0.00    +0.000 A 
ATOM     12  N   UNL     1      -2.885  12.352  22.011  0.00  0.00    +0.000 NA
ATOM     13  C   UNL     1      -3.802  12.549  20.997  0.00  0.00    +0.000 A 
ATOM     14  N   UNL     1      -3.242  12.611  19.775  0.00  0.00    +0.000 NA
ATOM     15  O   UNL     1      -1.883  12.426  20.018  0.00  0.00    +0.000 OA
BRANCH  13  16
ATOM     16  C   UNL     1      -5.237  12.629  21.278  0.00  0.00    +0.000 A 
ATOM     17  C   UNL     1      -6.138  12.804  20.224  0.00  0.00    +0.000 A 
ATOM     18  C   UNL     1      -7.494  12.931  20.507  0.00  0.00    +0.000 A 
ATOM     19  C   UNL     1      -7.917  12.878  21.828  0.00  0.00    +0.000 A 
ATOM     20  C   UNL     1      -6.963  12.694  22.816  0.00  0.00    +0.000 A 
ATOM     21  N   UNL     1      -5.640  12.570  22.572  0.00  0.00    +0.000 NA
ENDBRANCH  13  16
ENDBRANCH   7  11
BRANCH   3  22
ATOM     22  C   UNL     1       2.723   7.040  19.035  0.00  0.00    +0.000 C 
ATOM     23  C   UNL     1       3.458   7.034  17.726  0.00  0.00    +0.000 C 
ATOM     24  C   UNL     1       2.252   6.142  17.909  0.00  0.00    +0.000 C 
BRANCH  24  25
ATOM     25  C   UNL     1       2.445   4.647  17.982  0.00  0.00    +0.000 A 
ATOM     26  C   UNL     1       1.459   3.800  18.513  0.00  0.00    +0.000 A 
ATOM     27  C   UNL     1       1.637   2.414  18.560  0.00  0.00    +0.000 A 
ATOM     28  C   UNL     1       2.806   1.845  18.063  0.00  0.00    +0.000 A 
ATOM     29  C   UNL     1       3.795   2.660  17.520  0.00  0.00    +0.000 A 
ATOM     30  C   UNL     1       3.613   4.044  17.481  0.00  0.00    +0.000 A 
ENDBRANCH  24  25
ENDBRANCH   3  22
TORSDOF 4
ENDMDL
MODEL 6
REMARK VINA RESULT:      -7.9      0.539      1.265
REMARK  Name = 
REMARK  4 active torsions:
REMARK  status: ('A' for Active; 'I' for Inactive)
REMARK    1  A    between atoms: N_3  and  C_4
REMARK    2  A    between atoms: C_6  and  C_7
REMARK    3  A    between atoms: C_16  and  C_17
REMARK    4  A    between atoms: C_19  and  C_20
REMARK                            x       y       z     vdW  Elec       q    Type
REMARK                         _______ _______ _______ _____ _____    ______ ____
ROOT
ATOM      1  O   UNL     1       8.012   9.572  17.062  0.00  0.00    +0.000 OA
ATOM      2  C   UNL     1       8.128   8.785  18.000  0.00  0.00    +0.000 C 
ATOM      3  N   UNL     1       8.660   9.173  19.206  0.00  0.00    +0.000 N 
ATOM      4  N   UNL     1       7.714   7.458  17.918  0.00  0.00    +0.000 N 
ATOM      5  C   UNL     1       7.648   6.507  19.030  0.00  0.00    +0.000 C 
ATOM      6  C   UNL     1       8.090   5.114  18.580  0.00  0.00    +0.000 C 
ATOM      7  C   UNL     1       7.330   4.619  17.339  0.00  0.00    +0.000 C 
ATOM      8  C   UNL     1       7.342   5.683  16.235  0.00  0.00    +0.000 C 
ATOM      9  C   UNL     1       6.942   7.069  16.738  0.00  0.00    +0.000 C 
ATOM     10  H   UNL     1       9.084   8.462  19.777  0.00  0.00    +0.000 HD
ENDROOT
BRANCH   7  11
ATOM     11  C   UNL     1       5.944   4.215  17.698  0.00  0.00    +0.000 A 
ATOM     12  N   UNL     1       5.362   4.218  18.873  0.00  0.00    +0.000 NA
ATOM     13  C   UNL     1       4.128   3.659  18.606  0.00  0.00    +0.000 A 
ATOM     14  N   UNL     1       3.952   3.345  17.309  0.00  0.00    +0.000 NA
ATOM     15  O   UNL     1       5.155   3.712  16.709  0.00  0.00    +0.000 OA
BRANCH  13  16
ATOM     16  C   UNL     1       3.161   3.410  19.678  0.00  0.00    +0.000 A 
ATOM     17  C   UNL     1       3.491   2.536  20.717  0.00  0.00    +0.000 A 
ATOM     18  C   UNL     1       2.546   2.267  21.701  0.00  0.00    +0.000 A 
ATOM     19  C   UNL     1       1.301   2.876  21.627  0.00  0.00    +0.000 A 
ATOM     20  C   UNL     1       1.052   3.736  20.570  0.00  0.00    +0.000 A 
ATOM     21  N   UNL     1       1.949   4.015  19.598  0.00  0.00    +0.000 NA
ENDBRANCH  13  16
ENDBRANCH   7  11
BRANCH   3  22
ATOM     22  C   UNL     1       9.147  10.504  19.422  0.00  0.00    +0.000 C 
ATOM     23  C   UNL     1      10.626  10.761  19.388  0.00  0.00    +0.000 C 
ATOM     24  C   UNL     1       9.877  10.884  20.694  0.00  0.00    +0.000 C 
BRANCH  24  25
ATOM     25  C   UNL     1       9.692  12.249  21.312  0.00  0.00    +0.000 A 
ATOM     26  C   UNL     1       8.823  12.458  22.396  0.00  0.00    +0.000 A 
ATOM     27  C   UNL     1       8.671  13.721  22.975  0.00  0.00    +0.000 A 
ATOM     28  C   UNL     1       9.397  14.803  22.487  0.00  0.00    +0.000 A 
ATOM     29  C   UNL     1      10.274  14.622  21.421  0.00  0.00    +0.000 A 
ATOM     30  C   UNL     1      10.418  13.358  20.843  0.00  0.00    +0.000 A 
ENDBRANCH  24  25
ENDBRANCH   3  22
TORSDOF 4
ENDMDL
MODEL 7
REMARK VINA RESULT:      -7.9      8.390     11.435
REMARK  Name = 
REMARK  4 active torsions:
REMARK  status: ('A' for Active; 'I' for Inactive)
REMARK    1  A    between atoms: N_3  and  C_4
REMARK    2  A    between atoms: C_6  and  C_7
REMARK    3  A    between atoms: C_16  and  C_17
REMARK    4  A    between atoms: C_19  and  C_20
REMARK                            x       y       z     vdW  Elec       q    Type
REMARK                         _______ _______ _______ _____ _____    ______ ____
ROOT
ATOM      1  O   UNL     1       1.026   7.100  21.222  0.00  0.00    +0.000 OA
ATOM      2  C   UNL     1       1.177   8.155  20.609  0.00  0.00    +0.000 C 
ATOM      3  N   UNL     1       1.984   8.236  19.500  0.00  0.00    +0.000 N 
ATOM      4  N   UNL     1       0.530   9.332  20.977  0.00  0.00    +0.000 N 
ATOM      5  C   UNL     1       0.509  10.578  20.208  0.00  0.00    +0.000 C 
ATOM      6  C   UNL     1       0.610  11.790  21.135  0.00  0.00    +0.000 C 
ATOM      7  C   UNL     1      -0.442  11.774  22.254  0.00  0.00    +0.000 C 
ATOM      8  C   UNL     1      -0.452  10.418  22.970  0.00  0.00    +0.000 C 
ATOM      9  C   UNL     1      -0.504   9.235  22.006  0.00  0.00    +0.000 C 
ATOM     10  H   UNL     1       2.377   9.134  19.276  0.00  0.00    +0.000 HD
ENDROOT
BRANCH   7  11
ATOM     11  C   UNL     1      -1.786  12.121  21.718  0.00  0.00    +0.000 A 
ATOM     12  N   UNL     1      -2.912  12.300  22.366  0.00  0.00    +0.000 NA
ATOM     13  C   UNL     1      -3.823  12.506  21.349  0.00  0.00    +0.000 A 
ATOM     14  N   UNL     1      -3.270  12.478  20.122  0.00  0.00    +0.000 NA
ATOM     15  O   UNL     1      -1.922  12.222  20.367  0.00  0.00    +0.000 OA
BRANCH  13  16
ATOM     16  C   UNL     1      -5.249  12.685  21.633  0.00  0.00    +0.000 A 
ATOM     17  C   UNL     1      -5.652  13.660  22.549  0.00  0.00    +0.000 A 
ATOM     18  C   UNL     1      -7.004  13.787  22.850  0.00  0.00    +0.000 A 
ATOM     19  C   UNL     1      -7.916  12.945  22.231  0.00  0.00    +0.000 A 
ATOM     20  C   UNL     1      -7.439  12.008  21.328  0.00  0.00    +0.000 A 
ATOM     21  N   UNL     1      -6.132  11.860  21.017  0.00  0.00    +0.000 NA
ENDBRANCH  13  16
ENDBRANCH   7  11
BRANCH   3  22
ATOM     22  C   UNL     1       2.727   7.106  19.023  0.00  0.00    +0.000 C 
ATOM     23  C   UNL     1       3.349   7.156  17.657  0.00  0.00    +0.000 C 
ATOM     24  C   UNL     1       2.195   6.216  17.919  0.00  0.00    +0.000 C 
BRANCH  24  25
ATOM     25  C   UNL     1       2.447   4.727  17.938  0.00  0.00    +0.000 A 
ATOM     26  C   UNL     1       3.718   4.190  17.676  0.00  0.00    +0.000 A 
ATOM     27  C   UNL     1       3.948   2.811  17.713  0.00  0.00    +0.000 A 
ATOM     28  C   UNL     1       2.909   1.941  18.028  0.00  0.00    +0.000 A 
ATOM     29  C   UNL     1       1.642   2.447  18.304  0.00  0.00    +0.000 A 
ATOM     30  C   UNL     1       1.418   3.825  18.259  0.00  0.00    +0.000 A 
ENDBRANCH  24  25
ENDBRANCH   3  22
TORSDOF 4
ENDMDL
MODEL 8
REMARK VINA RESULT:      -7.9      8.654     11.529
REMARK  Name = 
REMARK  4 active torsions:
REMARK  status: ('A' for Active; 'I' for Inactive)
REMARK    1  A    between atoms: N_3  and  C_4
REMARK    2  A    between atoms: C_6  and  C_7
REMARK    3  A    between atoms: C_16  and  C_17
REMARK    4  A    between atoms: C_19  and  C_20
REMARK                            x       y       z     vdW  Elec       q    Type
REMARK                         _______ _______ _______ _____ _____    ______ ____
ROOT
ATOM      1  O   UNL     1       1.533   8.131  21.503  0.00  0.00    +0.000 OA
ATOM      2  C   UNL     1       1.220   8.782  20.508  0.00  0.00    +0.000 C 
ATOM      3  N   UNL     1       1.615   8.408  19.246  0.00  0.00    +0.000 N 
ATOM      4  N   UNL     1       0.433   9.929  20.582  0.00  0.00    +0.000 N 
ATOM      5  C   UNL     1      -0.132  10.659  19.446  0.00  0.00    +0.000 C 
ATOM      6  C   UNL     1      -0.076  12.168  19.688  0.00  0.00    +0.000 C 
ATOM      7  C   UNL     1      -0.709  12.582  21.025  0.00  0.00    +0.000 C 
ATOM      8  C   UNL     1      -0.160  11.727  22.174  0.00  0.00    +0.000 C 
ATOM      9  C   UNL     1      -0.190  10.231  21.870  0.00  0.00    +0.000 C 
ATOM     10  H   UNL     1       1.681   9.127  18.547  0.00  0.00    +0.000 HD
ENDROOT
BRANCH   7  11
ATOM     11  C   UNL     1      -2.193  12.510  20.948  0.00  0.00    +0.000 A 
ATOM     12  N   UNL     1      -2.966  12.532  19.889  0.00  0.00    +0.000 NA
ATOM     13  C   UNL     1      -4.235  12.531  20.435  0.00  0.00    +0.000 A 
ATOM     14  N   UNL     1      -4.238  12.486  21.780  0.00  0.00    +0.000 NA
ATOM     15  O   UNL     1      -2.887  12.474  22.119  0.00  0.00    +0.000 OA
BRANCH  13  16
ATOM     16  C   UNL     1      -5.425  12.618  19.586  0.00  0.00    +0.000 A 
ATOM     17  C   UNL     1      -5.319  12.352  18.218  0.00  0.00    +0.000 A 
ATOM     18  C   UNL     1      -6.444  12.488  17.413  0.00  0.00    +0.000 A 
ATOM     19  C   UNL     1      -7.644  12.882  17.988  0.00  0.00    +0.000 A 
ATOM     20  C   UNL     1      -7.671  13.121  19.353  0.00  0.00    +0.000 A 
ATOM     21  N   UNL     1      -6.594  12.998  20.160  0.00  0.00    +0.000 NA
ENDBRANCH  13  16
ENDBRANCH   7  11
BRANCH   3  22
ATOM     22  C   UNL     1       2.447   7.261  19.025  0.00  0.00    +0.000 C 
ATOM     23  C   UNL     1       3.488   7.303  17.944  0.00  0.00    +0.000 C 
ATOM     24  C   UNL     1       2.291   6.394  17.793  0.00  0.00    +0.000 C 
BRANCH  24  25
ATOM     25  C   UNL     1       2.487   4.899  17.871  0.00  0.00    +0.000 A 
ATOM     26  C   UNL     1       3.648   4.279  17.380  0.00  0.00    +0.000 A 
ATOM     27  C   UNL     1       3.830   2.896  17.473  0.00  0.00    +0.000 A 
ATOM     28  C   UNL     1       2.856   2.104  18.073  0.00  0.00    +0.000 A 
ATOM     29  C   UNL     1       1.701   2.693  18.578  0.00  0.00    +0.000 A 
ATOM     30  C   UNL     1       1.522   4.075  18.477  0.00  0.00    +0.000 A 
ENDBRANCH  24  25
ENDBRANCH   3  22
TORSDOF 4
ENDMDL
MODEL 9
REMARK VINA RESULT:      -7.9      8.621     11.446
REMARK  Name = 
REMARK  4 active torsions:
REMARK  status: ('A' for Active; 'I' for Inactive)
REMARK    1  A    between atoms: N_3  and  C_4
REMARK    2  A    between atoms: C_6  and  C_7
REMARK    3  A    between atoms: C_16  and  C_17
REMARK    4  A    between atoms: C_19  and  C_20
REMARK                            x       y       z     vdW  Elec       q    Type
REMARK                         _______ _______ _______ _____ _____    ______ ____
ROOT
ATOM      1  O   UNL     1       1.482   8.173  21.231  0.00  0.00    +0.000 OA
ATOM      2  C   UNL     1       1.279   8.734  20.156  0.00  0.00    +0.000 C 
ATOM      3  N   UNL     1       1.769   8.231  18.975  0.00  0.00    +0.000 N 
ATOM      4  N   UNL     1       0.527   9.902  20.053  0.00  0.00    +0.000 N 
ATOM      5  C   UNL     1       0.088  10.535  18.808  0.00  0.00    +0.000 C 
ATOM      6  C   UNL     1       0.174  12.058  18.913  0.00  0.00    +0.000 C 
ATOM      7  C   UNL     1      -0.560  12.613  20.144  0.00  0.00    +0.000 C 
ATOM      8  C   UNL     1      -0.142  11.858  21.411  0.00  0.00    +0.000 C 
ATOM      9  C   UNL     1      -0.195  10.341  21.246  0.00  0.00    +0.000 C 
ATOM     10  H   UNL     1       1.920   8.879  18.221  0.00  0.00    +0.000 HD
ENDROOT
BRANCH   7  11
ATOM     11  C   UNL     1      -2.033  12.572  19.941  0.00  0.00    +0.000 A 
ATOM     12  N   UNL     1      -2.984  13.055  20.703  0.00  0.00    +0.000 NA
ATOM     13  C   UNL     1      -4.134  12.638  20.061  0.00  0.00    +0.000 A 
ATOM     14  N   UNL     1      -3.895  11.944  18.933  0.00  0.00    +0.000 NA
ATOM     15  O   UNL     1      -2.504  11.899  18.855  0.00  0.00    +0.000 OA
BRANCH  13  16
ATOM     16  C   UNL     1      -5.458  12.912  20.624  0.00  0.00    +0.000 A 
ATOM     17  C   UNL     1      -6.280  13.868  20.020  0.00  0.00    +0.000 A 
ATOM     18  C   UNL     1      -7.514  14.158  20.593  0.00  0.00    +0.000 A 
ATOM     19  C   UNL     1      -7.897  13.489  21.746  0.00  0.00    +0.000 A 
ATOM     20  C   UNL     1      -7.030  12.550  22.280  0.00  0.00    +0.000 A 
ATOM     21  N   UNL     1      -5.825  12.248  21.748  0.00  0.00    +0.000 NA
ENDBRANCH  13  16
ENDBRANCH   7  11
BRANCH   3  22
ATOM     22  C   UNL     1       2.579   7.048  18.937  0.00  0.00    +0.000 C 
ATOM     23  C   UNL     1       3.659   6.928  17.901  0.00  0.00    +0.000 C 
ATOM     24  C   UNL     1       2.445   6.032  17.822  0.00  0.00    +0.000 C 
BRANCH  24  25
ATOM     25  C   UNL     1       2.599   4.556  18.100  0.00  0.00    +0.000 A 
ATOM     26  C   UNL     1       3.862   3.944  18.166  0.00  0.00    +0.000 A 
ATOM     27  C   UNL     1       3.997   2.581  18.442  0.00  0.00    +0.000 A 
ATOM     28  C   UNL     1       2.868   1.801  18.672  0.00  0.00    +0.000 A 
ATOM     29  C   UNL     1       1.605   2.384  18.625  0.00  0.00    +0.000 A 
ATOM     30  C   UNL     1       1.476   3.746  18.342  0.00  0.00    +0.000 A 
ENDBRANCH  24  25
ENDBRANCH   3  22
TORSDOF 4
ENDMDL
