MODEL 1
REMARK VINA RESULT:      -8.8      0.000      0.000
REMARK  Name = 
REMARK  2 active torsions:
REMARK  status: ('A' for Active; 'I' for Inactive)
REMARK    1  A    between atoms: C_1  and  C_2
REMARK    2  A    between atoms: C_6  and  C_7
REMARK                            x       y       z     vdW  Elec       q    Type
REMARK                         _______ _______ _______ _____ _____    ______ ____
ROOT
ATOM      1  C   UNL     1       5.641   4.014  13.817  0.00  0.00    +0.000 C 
ATOM      2  C   UNL     1       6.458   4.597  14.944  0.00  0.00    +0.000 C 
ATOM      3  O   UNL     1       7.552   5.120  14.739  0.00  0.00    +0.000 OA
ATOM      4  N   UNL     1       5.856   4.544  16.185  0.00  0.00    +0.000 N 
ATOM      5  N   UNL     1       4.621   4.001  16.374  0.00  0.00    +0.000 NA
ATOM      6  C   UNL     1       4.338   4.279  17.604  0.00  0.00    +0.000 C 
ATOM      7  O   UNL     1       5.272   4.950  18.328  0.00  0.00    +0.000 OA
ATOM      8  C   UNL     1       6.276   5.284  17.357  0.00  0.00    +0.000 C 
ATOM      9  C   UNL     1       7.664   4.965  17.907  0.00  0.00    +0.000 C 
ATOM     10  C   UNL     1       7.998   6.191  18.750  0.00  0.00    +0.000 C 
ATOM     11  C   UNL     1       7.398   7.366  17.991  0.00  0.00    +0.000 C 
ATOM     12  C   UNL     1       6.246   6.806  17.158  0.00  0.00    +0.000 C 
ENDROOT
BRANCH   6  13
ATOM     13  C   UNL     1       3.070   3.985  18.283  0.00  0.00    +0.000 A 
ATOM     14  C   UNL     1       2.708   4.774  19.387  0.00  0.00    +0.000 A 
ATOM     15  C   UNL     1       1.561   4.469  20.120  0.00  0.00    +0.000 A 
ATOM     16  C   UNL     1       0.774   3.378  19.754  0.00  0.00    +0.000 A 
ATOM     17  C   UNL     1       1.123   2.600  18.650  0.00  0.00    +0.000 A 
ATOM     18  C   UNL     1       2.269   2.903  17.909  0.00  0.00    +0.000 A 
ENDBRANCH   6  13
TORSDOF 1
ENDMDL
MODEL 2
REMARK VINA RESULT:      -8.5      0.307      1.146
REMARK  Name = 
REMARK  2 active torsions:
REMARK  status: ('A' for Active; 'I' for Inactive)
REMARK    1  A    between atoms: C_1  and  C_2
REMARK    2  A    between atoms: C_6  and  C_7
REMARK                            x       y       z     vdW  Elec       q    Type
REMARK                         _______ _______ _______ _____ _____    ______ ____
ROOT
ATOM      1  C   UNL     1       5.544   4.012  13.953  0.00  0.00    +0.000 C 
ATOM      2  C   UNL     1       6.391   4.675  15.011  0.00  0.00    +0.000 C 
ATOM      3  O   UNL     1       7.451   5.231  14.728  0.00  0.00    +0.000 OA
ATOM      4  N   UNL     1       5.854   4.656  16.282  0.00  0.00    +0.000 N 
ATOM      5  N   UNL     1       4.652   4.075  16.557  0.00  0.00    +0.000 NA
ATOM      6  C   UNL     1       4.419   4.396  17.787  0.00  0.00    +0.000 C 
ATOM      7  O   UNL     1       5.360   5.135  18.433  0.00  0.00    +0.000 OA
ATOM      8  C   UNL     1       6.300   5.462  17.398  0.00  0.00    +0.000 C 
ATOM      9  C   UNL     1       7.726   5.222  17.890  0.00  0.00    +0.000 C 
ATOM     10  C   UNL     1       8.051   6.496  18.661  0.00  0.00    +0.000 C 
ATOM     11  C   UNL     1       7.367   7.612  17.884  0.00  0.00    +0.000 C 
ATOM     12  C   UNL     1       6.200   6.972  17.136  0.00  0.00    +0.000 C 
ENDROOT
BRANCH   6  13
ATOM     13  C   UNL     1       3.199   4.085  18.542  0.00  0.00    +0.000 A 
ATOM     14  C   UNL     1       2.192   3.342  17.904  0.00  0.00    +0.000 A 
ATOM     15  C   UNL     1       0.979   3.107  18.550  0.00  0.00    +0.000 A 
ATOM     16  C   UNL     1       0.768   3.610  19.833  0.00  0.00    +0.000 A 
ATOM     17  C   UNL     1       1.772   4.336  20.476  0.00  0.00    +0.000 A 
ATOM     18  C   UNL     1       2.991   4.572  19.834  0.00  0.00    +0.000 A 
ENDBRANCH   6  13
TORSDOF 1
ENDMDL
MODEL 3
REMARK VINA RESULT:      -7.8      1.720      5.796
REMARK  Name = 
REMARK  2 active torsions:
REMARK  status: ('A' for Active; 'I' for Inactive)
REMARK    1  A    between atoms: C_1  and  C_2
REMARK    2  A    between atoms: C_6  and  C_7
REMARK                            x       y       z     vdW  Elec       q    Type
REMARK                         _______ _______ _______ _____ _____    ______ ____
ROOT
ATOM      1  C   UNL     1       7.781   5.840  19.033  0.00  0.00    +0.000 C 
ATOM      2  C   UNL     1       6.389   5.256  19.009  0.00  0.00    +0.000 C 
ATOM      3  O   UNL     1       5.673   5.265  20.008  0.00  0.00    +0.000 OA
ATOM      4  N   UNL     1       5.982   4.777  17.781  0.00  0.00    +0.000 N 
ATOM      5  N   UNL     1       6.781   4.825  16.678  0.00  0.00    +0.000 NA
ATOM      6  C   UNL     1       6.010   4.445  15.712  0.00  0.00    +0.000 C 
ATOM      7  O   UNL     1       4.733   4.100  16.025  0.00  0.00    +0.000 OA
ATOM      8  C   UNL     1       4.620   4.450  17.414  0.00  0.00    +0.000 C 
ATOM      9  C   UNL     1       3.957   3.313  18.188  0.00  0.00    +0.000 C 
ATOM     10  C   UNL     1       2.469   3.550  17.954  0.00  0.00    +0.000 C 
ATOM     11  C   UNL     1       2.309   5.064  17.940  0.00  0.00    +0.000 C 
ATOM     12  C   UNL     1       3.659   5.642  17.519  0.00  0.00    +0.000 C 
ENDROOT
BRANCH   6  13
ATOM     13  C   UNL     1       6.369   4.403  14.289  0.00  0.00    +0.000 A 
ATOM     14  C   UNL     1       5.693   3.496  13.458  0.00  0.00    +0.000 A 
ATOM     15  C   UNL     1       6.068   3.355  12.122  0.00  0.00    +0.000 A 
ATOM     16  C   UNL     1       7.117   4.119  11.612  0.00  0.00    +0.000 A 
ATOM     17  C   UNL     1       7.782   5.032  12.432  0.00  0.00    +0.000 A 
ATOM     18  C   UNL     1       7.408   5.180  13.770  0.00  0.00    +0.000 A 
ENDBRANCH   6  13
TORSDOF 1
ENDMDL
MODEL 4
REMARK VINA RESULT:      -7.8      1.722      5.730
REMARK  Name = 
REMARK  2 active torsions:
REMARK  status: ('A' for Active; 'I' for Inactive)
REMARK    1  A    between atoms: C_1  and  C_2
REMARK    2  A    between atoms: C_6  and  C_7
REMARK                            x       y       z     vdW  Elec       q    Type
REMARK                         _______ _______ _______ _____ _____    ______ ____
ROOT
ATOM      1  C   UNL     1       7.834   5.921  18.961  0.00  0.00    +0.000 C 
ATOM      2  C   UNL     1       6.457   5.303  18.952  0.00  0.00    +0.000 C 
ATOM      3  O   UNL     1       5.733   5.335  19.946  0.00  0.00    +0.000 OA
ATOM      4  N   UNL     1       6.070   4.765  17.742  0.00  0.00    +0.000 N 
ATOM      5  N   UNL     1       6.875   4.787  16.643  0.00  0.00    +0.000 NA
ATOM      6  C   UNL     1       6.121   4.350  15.688  0.00  0.00    +0.000 C 
ATOM      7  O   UNL     1       4.850   3.988  16.007  0.00  0.00    +0.000 OA
ATOM      8  C   UNL     1       4.719   4.390  17.380  0.00  0.00    +0.000 C 
ATOM      9  C   UNL     1       4.077   3.270  18.195  0.00  0.00    +0.000 C 
ATOM     10  C   UNL     1       2.586   3.461  17.943  0.00  0.00    +0.000 C 
ATOM     11  C   UNL     1       2.389   4.969  17.866  0.00  0.00    +0.000 C 
ATOM     12  C   UNL     1       3.729   5.562  17.431  0.00  0.00    +0.000 C 
ENDROOT
BRANCH   6  13
ATOM     13  C   UNL     1       6.491   4.259  14.270  0.00  0.00    +0.000 A 
ATOM     14  C   UNL     1       7.485   5.125  13.785  0.00  0.00    +0.000 A 
ATOM     15  C   UNL     1       7.799   5.140  12.426  0.00  0.00    +0.000 A 
ATOM     16  C   UNL     1       7.124   4.291  11.550  0.00  0.00    +0.000 A 
ATOM     17  C   UNL     1       6.145   3.420  12.031  0.00  0.00    +0.000 A 
ATOM     18  C   UNL     1       5.829   3.399  13.392  0.00  0.00    +0.000 A 
ENDBRANCH   6  13
TORSDOF 1
ENDMDL
MODEL 5
REMARK VINA RESULT:      -7.8      2.453      5.796
REMARK  Name = 
REMARK  2 active torsions:
REMARK  status: ('A' for Active; 'I' for Inactive)
REMARK    1  A    between atoms: C_1  and  C_2
REMARK    2  A    between atoms: C_6  and  C_7
REMARK                            x       y       z     vdW  Elec       q    Type
REMARK                         _______ _______ _______ _____ _____    ______ ____
ROOT
ATOM      1  C   UNL     1       3.363   7.640  17.699  0.00  0.00    +0.000 C 
ATOM      2  C   UNL     1       3.327   6.222  18.214  0.00  0.00    +0.000 C 
ATOM      3  O   UNL     1       2.651   5.913  19.193  0.00  0.00    +0.000 OA
ATOM      4  N   UNL     1       4.053   5.315  17.470  0.00  0.00    +0.000 N 
ATOM      5  N   UNL     1       4.754   5.678  16.359  0.00  0.00    +0.000 NA
ATOM      6  C   UNL     1       5.155   4.556  15.857  0.00  0.00    +0.000 C 
ATOM      7  O   UNL     1       4.829   3.417  16.524  0.00  0.00    +0.000 OA
ATOM      8  C   UNL     1       3.948   3.874  17.562  0.00  0.00    +0.000 C 
ATOM      9  C   UNL     1       4.338   3.242  18.896  0.00  0.00    +0.000 C 
ATOM     10  C   UNL     1       3.661   1.877  18.851  0.00  0.00    +0.000 C 
ATOM     11  C   UNL     1       2.341   2.116  18.132  0.00  0.00    +0.000 C 
ATOM     12  C   UNL     1       2.542   3.345  17.247  0.00  0.00    +0.000 C 
ENDROOT
BRANCH   6  13
ATOM     13  C   UNL     1       5.888   4.389  14.596  0.00  0.00    +0.000 A 
ATOM     14  C   UNL     1       7.081   5.108  14.419  0.00  0.00    +0.000 A 
ATOM     15  C   UNL     1       7.758   5.055  13.201  0.00  0.00    +0.000 A 
ATOM     16  C   UNL     1       7.247   4.284  12.157  0.00  0.00    +0.000 A 
ATOM     17  C   UNL     1       6.068   3.557  12.335  0.00  0.00    +0.000 A 
ATOM     18  C   UNL     1       5.388   3.604  13.555  0.00  0.00    +0.000 A 
ENDBRANCH   6  13
TORSDOF 1
ENDMDL
MODEL 6
REMARK VINA RESULT:      -7.7      2.454      5.871
REMARK  Name = 
REMARK  2 active torsions:
REMARK  status: ('A' for Active; 'I' for Inactive)
REMARK    1  A    between atoms: C_1  and  C_2
REMARK    2  A    between atoms: C_6  and  C_7
REMARK                            x       y       z     vdW  Elec       q    Type
REMARK                         _______ _______ _______ _____ _____    ______ ____
ROOT
ATOM      1  C   UNL     1       3.325   7.679  17.813  0.00  0.00    +0.000 C 
ATOM      2  C   UNL     1       3.315   6.247  18.293  0.00  0.00    +0.000 C 
ATOM      3  O   UNL     1       2.666   5.907  19.280  0.00  0.00    +0.000 OA
ATOM      4  N   UNL     1       4.033   5.367  17.510  0.00  0.00    +0.000 N 
ATOM      5  N   UNL     1       4.704   5.766  16.393  0.00  0.00    +0.000 NA
ATOM      6  C   UNL     1       5.104   4.661  15.853  0.00  0.00    +0.000 C 
ATOM      7  O   UNL     1       4.806   3.502  16.498  0.00  0.00    +0.000 OA
ATOM      8  C   UNL     1       3.945   3.923  17.567  0.00  0.00    +0.000 C 
ATOM      9  C   UNL     1       4.373   3.263  18.876  0.00  0.00    +0.000 C 
ATOM     10  C   UNL     1       3.709   1.892  18.811  0.00  0.00    +0.000 C 
ATOM     11  C   UNL     1       2.369   2.135  18.130  0.00  0.00    +0.000 C 
ATOM     12  C   UNL     1       2.537   3.388  17.272  0.00  0.00    +0.000 C 
ENDROOT
BRANCH   6  13
ATOM     13  C   UNL     1       5.808   4.534  14.571  0.00  0.00    +0.000 A 
ATOM     14  C   UNL     1       5.253   3.702  13.586  0.00  0.00    +0.000 A 
ATOM     15  C   UNL     1       5.936   3.477  12.391  0.00  0.00    +0.000 A 
ATOM     16  C   UNL     1       7.174   4.082  12.176  0.00  0.00    +0.000 A 
ATOM     17  C   UNL     1       7.723   4.921  13.148  0.00  0.00    +0.000 A 
ATOM     18  C   UNL     1       7.040   5.153  14.345  0.00  0.00    +0.000 A 
ENDBRANCH   6  13
TORSDOF 1
ENDMDL
MODEL 7
REMARK VINA RESULT:      -7.6      3.112      4.818
REMARK  Name = 
REMARK  2 active torsions:
REMARK  status: ('A' for Active; 'I' for Inactive)
REMARK    1  A    between atoms: C_1  and  C_2
REMARK    2  A    between atoms: C_6  and  C_7
REMARK                            x       y       z     vdW  Elec       q    Type
REMARK                         _______ _______ _______ _____ _____    ______ ____
ROOT
ATOM      1  C   UNL     1       2.571   2.726  21.044  0.00  0.00    +0.000 C 
ATOM      2  C   UNL     1       3.667   3.015  20.047  0.00  0.00    +0.000 C 
ATOM      3  O   UNL     1       4.437   2.133  19.668  0.00  0.00    +0.000 OA
ATOM      4  N   UNL     1       3.689   4.307  19.565  0.00  0.00    +0.000 N 
ATOM      5  N   UNL     1       2.791   5.250  19.966  0.00  0.00    +0.000 NA
ATOM      6  C   UNL     1       3.024   6.259  19.193  0.00  0.00    +0.000 C 
ATOM      7  O   UNL     1       4.031   6.137  18.287  0.00  0.00    +0.000 OA
ATOM      8  C   UNL     1       4.425   4.761  18.404  0.00  0.00    +0.000 C 
ATOM      9  C   UNL     1       5.946   4.656  18.473  0.00  0.00    +0.000 C 
ATOM     10  C   UNL     1       6.369   4.706  17.009  0.00  0.00    +0.000 C 
ATOM     11  C   UNL     1       5.283   3.949  16.258  0.00  0.00    +0.000 C 
ATOM     12  C   UNL     1       4.017   4.046  17.108  0.00  0.00    +0.000 C 
ENDROOT
BRANCH   6  13
ATOM     13  C   UNL     1       2.264   7.514  19.161  0.00  0.00    +0.000 A 
ATOM     14  C   UNL     1       2.216   8.233  17.955  0.00  0.00    +0.000 A 
ATOM     15  C   UNL     1       1.587   9.477  17.905  0.00  0.00    +0.000 A 
ATOM     16  C   UNL     1       1.003  10.005  19.056  0.00  0.00    +0.000 A 
ATOM     17  C   UNL     1       1.036   9.286  20.252  0.00  0.00    +0.000 A 
ATOM     18  C   UNL     1       1.662   8.038  20.307  0.00  0.00    +0.000 A 
ENDBRANCH   6  13
TORSDOF 1
ENDMDL
MODEL 8
REMARK VINA RESULT:      -7.6      3.287      5.043
REMARK  Name = 
REMARK  2 active torsions:
REMARK  status: ('A' for Active; 'I' for Inactive)
REMARK    1  A    between atoms: C_1  and  C_2
REMARK    2  A    between atoms: C_6  and  C_7
REMARK                            x       y       z     vdW  Elec       q    Type
REMARK                         _______ _______ _______ _____ _____    ______ ____
ROOT
ATOM      1  C   UNL     1       1.793   2.912  21.204  0.00  0.00    +0.000 C 
ATOM      2  C   UNL     1       2.992   3.106  20.308  0.00  0.00    +0.000 C 
ATOM      3  O   UNL     1       3.709   2.161  19.985  0.00  0.00    +0.000 OA
ATOM      4  N   UNL     1       3.170   4.394  19.848  0.00  0.00    +0.000 N 
ATOM      5  N   UNL     1       2.329   5.412  20.184  0.00  0.00    +0.000 NA
ATOM      6  C   UNL     1       2.716   6.400  19.447  0.00  0.00    +0.000 C 
ATOM      7  O   UNL     1       3.782   6.194  18.628  0.00  0.00    +0.000 OA
ATOM      8  C   UNL     1       4.040   4.787  18.759  0.00  0.00    +0.000 C 
ATOM      9  C   UNL     1       5.534   4.545  18.956  0.00  0.00    +0.000 C 
ATOM     10  C   UNL     1       6.084   4.566  17.534  0.00  0.00    +0.000 C 
ATOM     11  C   UNL     1       5.003   3.914  16.684  0.00  0.00    +0.000 C 
ATOM     12  C   UNL     1       3.682   4.120  17.424  0.00  0.00    +0.000 C 
ENDROOT
BRANCH   6  13
ATOM     13  C   UNL     1       2.076   7.719  19.367  0.00  0.00    +0.000 A 
ATOM     14  C   UNL     1       1.493   8.247  20.531  0.00  0.00    +0.000 A 
ATOM     15  C   UNL     1       0.791   9.451  20.479  0.00  0.00    +0.000 A 
ATOM     16  C   UNL     1       0.670  10.131  19.268  0.00  0.00    +0.000 A 
ATOM     17  C   UNL     1       1.260   9.616  18.112  0.00  0.00    +0.000 A 
ATOM     18  C   UNL     1       1.968   8.412  18.160  0.00  0.00    +0.000 A 
ENDBRANCH   6  13
TORSDOF 1
ENDMDL
MODEL 9
REMARK VINA RESULT:      -7.5      1.481      2.969
REMARK  Name = 
REMARK  2 active torsions:
REMARK  status: ('A' for Active; 'I' for Inactive)
REMARK    1  A    between atoms: C_1  and  C_2
REMARK    2  A    between atoms: C_6  and  C_7
REMARK                            x       y       z     vdW  Elec       q    Type
REMARK                         _______ _______ _______ _____ _____    ______ ____
ROOT
ATOM      1  C   UNL     1       7.586   5.805  19.648  0.00  0.00    +0.000 C 
ATOM      2  C   UNL     1       7.198   5.774  18.189  0.00  0.00    +0.000 C 
ATOM      3  O   UNL     1       8.015   6.023  17.304  0.00  0.00    +0.000 OA
ATOM      4  N   UNL     1       5.895   5.393  17.942  0.00  0.00    +0.000 N 
ATOM      5  N   UNL     1       5.026   5.076  18.943  0.00  0.00    +0.000 NA
ATOM      6  C   UNL     1       3.985   4.623  18.326  0.00  0.00    +0.000 C 
ATOM      7  O   UNL     1       4.015   4.612  16.967  0.00  0.00    +0.000 OA
ATOM      8  C   UNL     1       5.363   4.996  16.656  0.00  0.00    +0.000 C 
ATOM      9  C   UNL     1       5.366   6.057  15.557  0.00  0.00    +0.000 C 
ATOM     10  C   UNL     1       5.249   5.237  14.277  0.00  0.00    +0.000 C 
ATOM     11  C   UNL     1       6.060   3.976  14.541  0.00  0.00    +0.000 C 
ATOM     12  C   UNL     1       6.071   3.774  16.056  0.00  0.00    +0.000 C 
ENDROOT
BRANCH   6  13
ATOM     13  C   UNL     1       2.784   4.063  18.959  0.00  0.00    +0.000 A 
ATOM     14  C   UNL     1       2.570   4.319  20.323  0.00  0.00    +0.000 A 
ATOM     15  C   UNL     1       1.495   3.727  20.986  0.00  0.00    +0.000 A 
ATOM     16  C   UNL     1       0.632   2.882  20.291  0.00  0.00    +0.000 A 
ATOM     17  C   UNL     1       0.834   2.637  18.932  0.00  0.00    +0.000 A 
ATOM     18  C   UNL     1       1.907   3.229  18.261  0.00  0.00    +0.000 A 
ENDBRANCH   6  13
TORSDOF 1
ENDMDL
