MODEL 1
REMARK VINA RESULT:      -7.4      0.000      0.000
REMARK  Name = 
REMARK  2 active torsions:
REMARK  status: ('A' for Active; 'I' for Inactive)
REMARK    1  A    between atoms: C_1  and  N_2
REMARK    2  A    between atoms: C_4  and  C_5
REMARK                            x       y       z     vdW  Elec       q    Type
REMARK                         _______ _______ _______ _____ _____    ______ ____
ROOT
ATOM      1  C   UNL     1       1.956   2.210  20.802  0.00  0.00    +0.000 C 
ATOM      2  N   UNL     1       2.430   3.161  19.820  0.00  0.00    +0.000 N 
ATOM      3  C   UNL     1       3.150   2.825  18.707  0.00  0.00    +0.000 A 
ATOM      4  C   UNL     1       3.521   3.991  18.072  0.00  0.00    +0.000 A 
ATOM      5  C   UNL     1       2.911   5.075  18.777  0.00  0.00    +0.000 A 
ATOM      6  C   UNL     1       2.880   6.477  18.610  0.00  0.00    +0.000 A 
ATOM      7  C   UNL     1       2.183   7.273  19.527  0.00  0.00    +0.000 A 
ATOM      8  C   UNL     1       1.524   6.697  20.609  0.00  0.00    +0.000 A 
ATOM      9  C   UNL     1       1.544   5.314  20.805  0.00  0.00    +0.000 A 
ATOM     10  C   UNL     1       2.239   4.523  19.877  0.00  0.00    +0.000 A 
ENDROOT
BRANCH   4  11
ATOM     11  C   UNL     1       4.344   4.077  16.904  0.00  0.00    +0.000 C 
ATOM     12  C   UNL     1       5.482   4.775  16.743  0.00  0.00    +0.000 C 
ATOM     13  S   UNL     1       6.235   5.816  17.913  0.00  0.00    +0.000 S 
ATOM     14  C   UNL     1       7.326   6.509  16.747  0.00  0.00    +0.000 C 
ATOM     15  O   UNL     1       8.067   7.451  16.964  0.00  0.00    +0.000 OA
ATOM     16  N   UNL     1       7.202   5.845  15.567  0.00  0.00    +0.000 N 
ATOM     17  C   UNL     1       6.241   4.871  15.458  0.00  0.00    +0.000 C 
ATOM     18  S   UNL     1       6.069   4.022  14.034  0.00  0.00    +0.000 S 
ATOM     19  H   UNL     1       7.778   6.116  14.786  0.00  0.00    +0.000 HD
ENDBRANCH   4  11
TORSDOF 1
ENDMDL
MODEL 2
REMARK VINA RESULT:      -6.8      1.596      2.751
REMARK  Name = 
REMARK  2 active torsions:
REMARK  status: ('A' for Active; 'I' for Inactive)
REMARK    1  A    between atoms: C_1  and  N_2
REMARK    2  A    between atoms: C_4  and  C_5
REMARK                            x       y       z     vdW  Elec       q    Type
REMARK                         _______ _______ _______ _____ _____    ______ ____
ROOT
ATOM      1  C   UNL     1       1.458   7.550  20.665  0.00  0.00    +0.000 C 
ATOM      2  N   UNL     1       2.089   6.529  19.857  0.00  0.00    +0.000 N 
ATOM      3  C   UNL     1       3.012   6.781  18.881  0.00  0.00    +0.000 A 
ATOM      4  C   UNL     1       3.304   5.589  18.253  0.00  0.00    +0.000 A 
ATOM      5  C   UNL     1       2.602   4.556  18.949  0.00  0.00    +0.000 A 
ATOM      6  C   UNL     1       2.515   3.152  18.820  0.00  0.00    +0.000 A 
ATOM      7  C   UNL     1       1.688   2.422  19.682  0.00  0.00    +0.000 A 
ATOM      8  C   UNL     1       0.943   3.067  20.665  0.00  0.00    +0.000 A 
ATOM      9  C   UNL     1       1.003   4.455  20.812  0.00  0.00    +0.000 A 
ATOM     10  C   UNL     1       1.840   5.178  19.947  0.00  0.00    +0.000 A 
ENDROOT
BRANCH   4  11
ATOM     11  C   UNL     1       4.175   5.431  17.128  0.00  0.00    +0.000 C 
ATOM     12  C   UNL     1       5.426   4.937  17.113  0.00  0.00    +0.000 C 
ATOM     13  S   UNL     1       6.347   4.403  18.486  0.00  0.00    +0.000 S 
ATOM     14  C   UNL     1       7.836   4.329  17.588  0.00  0.00    +0.000 C 
ATOM     15  O   UNL     1       8.932   4.121  18.078  0.00  0.00    +0.000 OA
ATOM     16  N   UNL     1       7.579   4.555  16.273  0.00  0.00    +0.000 N 
ATOM     17  C   UNL     1       6.298   4.879  15.899  0.00  0.00    +0.000 C 
ATOM     18  S   UNL     1       5.937   5.147  14.294  0.00  0.00    +0.000 S 
ATOM     19  H   UNL     1       8.337   4.533  15.611  0.00  0.00    +0.000 HD
ENDBRANCH   4  11
TORSDOF 1
ENDMDL
MODEL 3
REMARK VINA RESULT:      -6.8      3.962      6.164
REMARK  Name = 
REMARK  2 active torsions:
REMARK  status: ('A' for Active; 'I' for Inactive)
REMARK    1  A    between atoms: C_1  and  N_2
REMARK    2  A    between atoms: C_4  and  C_5
REMARK                            x       y       z     vdW  Elec       q    Type
REMARK                         _______ _______ _______ _____ _____    ______ ____
ROOT
ATOM      1  C   UNL     1       4.975   5.531  16.462  0.00  0.00    +0.000 C 
ATOM      2  N   UNL     1       3.905   5.627  17.431  0.00  0.00    +0.000 N 
ATOM      3  C   UNL     1       3.579   6.769  18.108  0.00  0.00    +0.000 A 
ATOM      4  C   UNL     1       2.594   6.456  19.021  0.00  0.00    +0.000 A 
ATOM      5  C   UNL     1       2.238   5.087  18.814  0.00  0.00    +0.000 A 
ATOM      6  C   UNL     1       1.296   4.207  19.391  0.00  0.00    +0.000 A 
ATOM      7  C   UNL     1       1.225   2.878  18.954  0.00  0.00    +0.000 A 
ATOM      8  C   UNL     1       2.079   2.412  17.960  0.00  0.00    +0.000 A 
ATOM      9  C   UNL     1       3.026   3.257  17.375  0.00  0.00    +0.000 A 
ATOM     10  C   UNL     1       3.085   4.589  17.814  0.00  0.00    +0.000 A 
ENDROOT
BRANCH   4  11
ATOM     11  C   UNL     1       2.024   7.360  19.974  0.00  0.00    +0.000 C 
ATOM     12  C   UNL     1       1.518   8.586  19.752  0.00  0.00    +0.000 C 
ATOM     13  S   UNL     1       1.474   9.430  18.233  0.00  0.00    +0.000 S 
ATOM     14  C   UNL     1       1.043  10.947  18.973  0.00  0.00    +0.000 C 
ATOM     15  O   UNL     1       0.987  12.013  18.386  0.00  0.00    +0.000 OA
ATOM     16  N   UNL     1       0.799  10.749  20.295  0.00  0.00    +0.000 N 
ATOM     17  C   UNL     1       1.010   9.498  20.822  0.00  0.00    +0.000 C 
ATOM     18  S   UNL     1       0.706   9.209  22.436  0.00  0.00    +0.000 S 
ATOM     19  H   UNL     1       0.522  11.529  20.868  0.00  0.00    +0.000 HD
ENDBRANCH   4  11
TORSDOF 1
ENDMDL
MODEL 4
REMARK VINA RESULT:      -6.7      4.234      6.513
REMARK  Name = 
REMARK  2 active torsions:
REMARK  status: ('A' for Active; 'I' for Inactive)
REMARK    1  A    between atoms: C_1  and  N_2
REMARK    2  A    between atoms: C_4  and  C_5
REMARK                            x       y       z     vdW  Elec       q    Type
REMARK                         _______ _______ _______ _____ _____    ______ ____
ROOT
ATOM      1  C   UNL     1       4.313   5.701  17.157  0.00  0.00    +0.000 C 
ATOM      2  N   UNL     1       3.328   5.790  18.213  0.00  0.00    +0.000 N 
ATOM      3  C   UNL     1       2.933   6.960  18.800  0.00  0.00    +0.000 A 
ATOM      4  C   UNL     1       2.074   6.648  19.833  0.00  0.00    +0.000 A 
ATOM      5  C   UNL     1       1.863   5.235  19.802  0.00  0.00    +0.000 A 
ATOM      6  C   UNL     1       1.083   4.329  20.556  0.00  0.00    +0.000 A 
ATOM      7  C   UNL     1       1.129   2.960  20.265  0.00  0.00    +0.000 A 
ATOM      8  C   UNL     1       1.941   2.479  19.242  0.00  0.00    +0.000 A 
ATOM      9  C   UNL     1       2.728   3.349  18.485  0.00  0.00    +0.000 A 
ATOM     10  C   UNL     1       2.671   4.721  18.778  0.00  0.00    +0.000 A 
ENDROOT
BRANCH   4  11
ATOM     11  C   UNL     1       1.489   7.587  20.741  0.00  0.00    +0.000 C 
ATOM     12  C   UNL     1       1.041   8.827  20.475  0.00  0.00    +0.000 C 
ATOM     13  S   UNL     1       1.106   9.648  18.945  0.00  0.00    +0.000 S 
ATOM     14  C   UNL     1       0.693  11.190  19.639  0.00  0.00    +0.000 C 
ATOM     15  O   UNL     1       0.707  12.248  19.035  0.00  0.00    +0.000 OA
ATOM     16  N   UNL     1       0.374  11.022  20.949  0.00  0.00    +0.000 N 
ATOM     17  C   UNL     1       0.511   9.774  21.504  0.00  0.00    +0.000 C 
ATOM     18  S   UNL     1       0.114   9.522  23.104  0.00  0.00    +0.000 S 
ATOM     19  H   UNL     1       0.096  11.821  21.495  0.00  0.00    +0.000 HD
ENDBRANCH   4  11
TORSDOF 1
ENDMDL
MODEL 5
REMARK VINA RESULT:      -6.5      3.827      5.809
REMARK  Name = 
REMARK  2 active torsions:
REMARK  status: ('A' for Active; 'I' for Inactive)
REMARK    1  A    between atoms: C_1  and  N_2
REMARK    2  A    between atoms: C_4  and  C_5
REMARK                            x       y       z     vdW  Elec       q    Type
REMARK                         _______ _______ _______ _____ _____    ______ ____
ROOT
ATOM      1  C   UNL     1       6.478   4.400  17.727  0.00  0.00    +0.000 C 
ATOM      2  N   UNL     1       5.142   4.954  17.764  0.00  0.00    +0.000 N 
ATOM      3  C   UNL     1       4.863   6.292  17.762  0.00  0.00    +0.000 A 
ATOM      4  C   UNL     1       3.501   6.443  17.918  0.00  0.00    +0.000 A 
ATOM      5  C   UNL     1       2.923   5.136  17.911  0.00  0.00    +0.000 A 
ATOM      6  C   UNL     1       1.606   4.631  17.996  0.00  0.00    +0.000 A 
ATOM      7  C   UNL     1       1.387   3.248  17.982  0.00  0.00    +0.000 A 
ATOM      8  C   UNL     1       2.456   2.362  17.892  0.00  0.00    +0.000 A 
ATOM      9  C   UNL     1       3.770   2.831  17.814  0.00  0.00    +0.000 A 
ATOM     10  C   UNL     1       3.979   4.219  17.822  0.00  0.00    +0.000 A 
ENDROOT
BRANCH   4  11
ATOM     11  C   UNL     1       2.810   7.691  18.035  0.00  0.00    +0.000 C 
ATOM     12  C   UNL     1       2.102   8.150  19.082  0.00  0.00    +0.000 C 
ATOM     13  S   UNL     1       1.791   7.311  20.572  0.00  0.00    +0.000 S 
ATOM     14  C   UNL     1       0.573   8.448  21.077  0.00  0.00    +0.000 C 
ATOM     15  O   UNL     1      -0.142   8.310  22.054  0.00  0.00    +0.000 OA
ATOM     16  N   UNL     1       0.541   9.489  20.204  0.00  0.00    +0.000 N 
ATOM     17  C   UNL     1       1.344   9.439  19.091  0.00  0.00    +0.000 C 
ATOM     18  S   UNL     1       1.348  10.704  18.005  0.00  0.00    +0.000 S 
ATOM     19  H   UNL     1      -0.104  10.246  20.362  0.00  0.00    +0.000 HD
ENDBRANCH   4  11
TORSDOF 1
ENDMDL
MODEL 6
REMARK VINA RESULT:      -6.4      0.950      2.495
REMARK  Name = 
REMARK  2 active torsions:
REMARK  status: ('A' for Active; 'I' for Inactive)
REMARK    1  A    between atoms: C_1  and  N_2
REMARK    2  A    between atoms: C_4  and  C_5
REMARK                            x       y       z     vdW  Elec       q    Type
REMARK                         _______ _______ _______ _____ _____    ______ ____
ROOT
ATOM      1  C   UNL     1       1.535   7.011  20.730  0.00  0.00    +0.000 C 
ATOM      2  N   UNL     1       2.153   5.984  19.920  0.00  0.00    +0.000 N 
ATOM      3  C   UNL     1       3.020   6.232  18.892  0.00  0.00    +0.000 A 
ATOM      4  C   UNL     1       3.312   5.030  18.283  0.00  0.00    +0.000 A 
ATOM      5  C   UNL     1       2.674   4.000  19.041  0.00  0.00    +0.000 A 
ATOM      6  C   UNL     1       2.619   2.591  18.955  0.00  0.00    +0.000 A 
ATOM      7  C   UNL     1       1.856   1.865  19.877  0.00  0.00    +0.000 A 
ATOM      8  C   UNL     1       1.142   2.519  20.877  0.00  0.00    +0.000 A 
ATOM      9  C   UNL     1       1.171   3.911  20.983  0.00  0.00    +0.000 A 
ATOM     10  C   UNL     1       1.945   4.630  20.059  0.00  0.00    +0.000 A 
ENDROOT
BRANCH   4  11
ATOM     11  C   UNL     1       4.132   4.863  17.121  0.00  0.00    +0.000 C 
ATOM     12  C   UNL     1       5.367   5.349  16.902  0.00  0.00    +0.000 C 
ATOM     13  S   UNL     1       6.284   6.370  17.969  0.00  0.00    +0.000 S 
ATOM     14  C   UNL     1       7.465   6.756  16.749  0.00  0.00    +0.000 C 
ATOM     15  O   UNL     1       8.348   7.584  16.878  0.00  0.00    +0.000 OA
ATOM     16  N   UNL     1       7.230   6.003  15.642  0.00  0.00    +0.000 N 
ATOM     17  C   UNL     1       6.125   5.189  15.623  0.00  0.00    +0.000 C 
ATOM     18  S   UNL     1       5.810   4.237  14.291  0.00  0.00    +0.000 S 
ATOM     19  H   UNL     1       7.838   6.096  14.845  0.00  0.00    +0.000 HD
ENDBRANCH   4  11
TORSDOF 1
ENDMDL
MODEL 7
REMARK VINA RESULT:      -6.4      4.251      6.304
REMARK  Name = 
REMARK  2 active torsions:
REMARK  status: ('A' for Active; 'I' for Inactive)
REMARK    1  A    between atoms: C_1  and  N_2
REMARK    2  A    between atoms: C_4  and  C_5
REMARK                            x       y       z     vdW  Elec       q    Type
REMARK                         _______ _______ _______ _____ _____    ______ ____
ROOT
ATOM      1  C   UNL     1       5.608   5.224  18.033  0.00  0.00    +0.000 C 
ATOM      2  N   UNL     1       4.297   5.623  18.498  0.00  0.00    +0.000 N 
ATOM      3  C   UNL     1       3.710   6.823  18.211  0.00  0.00    +0.000 A 
ATOM      4  C   UNL     1       2.525   6.896  18.912  0.00  0.00    +0.000 A 
ATOM      5  C   UNL     1       2.340   5.640  19.571  0.00  0.00    +0.000 A 
ATOM      6  C   UNL     1       1.333   5.088  20.393  0.00  0.00    +0.000 A 
ATOM      7  C   UNL     1       1.484   3.794  20.906  0.00  0.00    +0.000 A 
ATOM      8  C   UNL     1       2.622   3.046  20.619  0.00  0.00    +0.000 A 
ATOM      9  C   UNL     1       3.637   3.568  19.815  0.00  0.00    +0.000 A 
ATOM     10  C   UNL     1       3.475   4.863  19.299  0.00  0.00    +0.000 A 
ENDROOT
BRANCH   4  11
ATOM     11  C   UNL     1       1.640   8.021  18.939  0.00  0.00    +0.000 C 
ATOM     12  C   UNL     1       1.271   8.758  20.002  0.00  0.00    +0.000 C 
ATOM     13  S   UNL     1       1.734   8.497  21.657  0.00  0.00    +0.000 S 
ATOM     14  C   UNL     1       0.543   9.609  22.272  0.00  0.00    +0.000 C 
ATOM     15  O   UNL     1       0.288   9.767  23.452  0.00  0.00    +0.000 OA
ATOM     16  N   UNL     1      -0.055  10.248  21.232  0.00  0.00    +0.000 N 
ATOM     17  C   UNL     1       0.278   9.875  19.953  0.00  0.00    +0.000 C 
ATOM     18  S   UNL     1      -0.420  10.645  18.649  0.00  0.00    +0.000 S 
ATOM     19  H   UNL     1      -0.762  10.939  21.419  0.00  0.00    +0.000 HD
ENDBRANCH   4  11
TORSDOF 1
ENDMDL
MODEL 8
REMARK VINA RESULT:      -6.3      4.150      6.391
REMARK  Name = 
REMARK  2 active torsions:
REMARK  status: ('A' for Active; 'I' for Inactive)
REMARK    1  A    between atoms: C_1  and  N_2
REMARK    2  A    between atoms: C_4  and  C_5
REMARK                            x       y       z     vdW  Elec       q    Type
REMARK                         _______ _______ _______ _____ _____    ______ ____
ROOT
ATOM      1  C   UNL     1       6.220   6.162  17.316  0.00  0.00    +0.000 C 
ATOM      2  N   UNL     1       4.800   6.369  17.494  0.00  0.00    +0.000 N 
ATOM      3  C   UNL     1       4.205   7.597  17.574  0.00  0.00    +0.000 A 
ATOM      4  C   UNL     1       2.868   7.405  17.855  0.00  0.00    +0.000 A 
ATOM      5  C   UNL     1       2.627   5.996  17.842  0.00  0.00    +0.000 A 
ATOM      6  C   UNL     1       1.487   5.181  18.019  0.00  0.00    +0.000 A 
ATOM      7  C   UNL     1       1.611   3.787  17.965  0.00  0.00    +0.000 A 
ATOM      8  C   UNL     1       2.850   3.194  17.745  0.00  0.00    +0.000 A 
ATOM      9  C   UNL     1       3.996   3.973  17.573  0.00  0.00    +0.000 A 
ATOM     10  C   UNL     1       3.862   5.370  17.621  0.00  0.00    +0.000 A 
ENDROOT
BRANCH   4  11
ATOM     11  C   UNL     1       1.908   8.442  18.085  0.00  0.00    +0.000 C 
ATOM     12  C   UNL     1       1.339   8.799  19.250  0.00  0.00    +0.000 C 
ATOM     13  S   UNL     1       1.582   8.046  20.797  0.00  0.00    +0.000 S 
ATOM     14  C   UNL     1       0.238   8.877  21.527  0.00  0.00    +0.000 C 
ATOM     15  O   UNL     1      -0.192   8.651  22.644  0.00  0.00    +0.000 OA
ATOM     16  N   UNL     1      -0.253   9.793  20.652  0.00  0.00    +0.000 N 
ATOM     17  C   UNL     1       0.283   9.848  19.389  0.00  0.00    +0.000 C 
ATOM     18  S   UNL     1      -0.280  10.969  18.290  0.00  0.00    +0.000 S 
ATOM     19  H   UNL     1      -1.029  10.372  20.927  0.00  0.00    +0.000 HD
ENDBRANCH   4  11
TORSDOF 1
ENDMDL
MODEL 9
REMARK VINA RESULT:      -6.2      2.026      3.147
REMARK  Name = 
REMARK  2 active torsions:
REMARK  status: ('A' for Active; 'I' for Inactive)
REMARK    1  A    between atoms: C_1  and  N_2
REMARK    2  A    between atoms: C_4  and  C_5
REMARK                            x       y       z     vdW  Elec       q    Type
REMARK                         _______ _______ _______ _____ _____    ______ ____
ROOT
ATOM      1  C   UNL     1       1.566   9.603  18.540  0.00  0.00    +0.000 C 
ATOM      2  N   UNL     1       2.286   8.352  18.440  0.00  0.00    +0.000 N 
ATOM      3  C   UNL     1       3.204   8.067  17.467  0.00  0.00    +0.000 A 
ATOM      4  C   UNL     1       3.596   6.755  17.623  0.00  0.00    +0.000 A 
ATOM      5  C   UNL     1       2.963   6.257  18.804  0.00  0.00    +0.000 A 
ATOM      6  C   UNL     1       2.985   5.028  19.502  0.00  0.00    +0.000 A 
ATOM      7  C   UNL     1       2.202   4.864  20.651  0.00  0.00    +0.000 A 
ATOM      8  C   UNL     1       1.393   5.900  21.111  0.00  0.00    +0.000 A 
ATOM      9  C   UNL     1       1.345   7.123  20.438  0.00  0.00    +0.000 A 
ATOM     10  C   UNL     1       2.139   7.281  19.292  0.00  0.00    +0.000 A 
ENDROOT
BRANCH   4  11
ATOM     11  C   UNL     1       4.496   6.047  16.764  0.00  0.00    +0.000 C 
ATOM     12  C   UNL     1       5.616   5.384  17.104  0.00  0.00    +0.000 C 
ATOM     13  S   UNL     1       6.305   5.260  18.695  0.00  0.00    +0.000 S 
ATOM     14  C   UNL     1       7.809   4.611  18.104  0.00  0.00    +0.000 C 
ATOM     15  O   UNL     1       8.799   4.425  18.788  0.00  0.00    +0.000 OA
ATOM     16  N   UNL     1       7.700   4.367  16.771  0.00  0.00    +0.000 N 
ATOM     17  C   UNL     1       6.543   4.733  16.128  0.00  0.00    +0.000 C 
ATOM     18  S   UNL     1       6.363   4.436  14.498  0.00  0.00    +0.000 S 
ATOM     19  H   UNL     1       8.483   3.974  16.276  0.00  0.00    +0.000 HD
ENDBRANCH   4  11
TORSDOF 1
ENDMDL
