MODEL 1
REMARK VINA RESULT:      -8.3      0.000      0.000
REMARK  Name = 
REMARK  6 active torsions:
REMARK  status: ('A' for Active; 'I' for Inactive)
REMARK    1  A    between atoms: C_1  and  C_2
REMARK    2  A    between atoms: C_5  and  C_6
REMARK    3  A    between atoms: N_8  and  C_9
REMARK    4  A    between atoms: C_9  and  C_10
REMARK    5  A    between atoms: C_17  and  C_18
REMARK    6  A    between atoms: N_20  and  C_21
REMARK                            x       y       z     vdW  Elec       q    Type
REMARK                         _______ _______ _______ _____ _____    ______ ____
ROOT
ATOM      1  C   UNL     1       1.673   2.895  21.547  0.00  0.00    +0.000 C 
ATOM      2  C   UNL     1       2.769   3.439  20.676  0.00  0.00    +0.000 A 
ATOM      3  C   UNL     1       3.764   2.537  20.248  0.00  0.00    +0.000 A 
ATOM      4  C   UNL     1       4.796   2.943  19.404  0.00  0.00    +0.000 A 
ATOM      5  C   UNL     1       4.877   4.271  18.982  0.00  0.00    +0.000 A 
ATOM      6  C   UNL     1       3.891   5.178  19.391  0.00  0.00    +0.000 A 
ATOM      7  C   UNL     1       2.838   4.777  20.238  0.00  0.00    +0.000 A 
ENDROOT
BRANCH   5   8
ATOM      8  C   UNL     1       6.000   4.662  18.092  0.00  0.00    +0.000 C 
ATOM      9  O   UNL     1       7.156   4.538  18.477  0.00  0.00    +0.000 OA
ATOM     10  N   UNL     1       5.650   5.195  16.873  0.00  0.00    +0.000 N 
ATOM     11  H   UNL     1       4.679   5.364  16.650  0.00  0.00    +0.000 HD
BRANCH  10  12
ATOM     12  C   UNL     1       6.638   5.654  15.925  0.00  0.00    +0.000 C 
BRANCH  12  13
ATOM     13  C   UNL     1       6.426   5.131  14.501  0.00  0.00    +0.000 C 
ATOM     14  C   UNL     1       5.753   3.753  14.460  0.00  0.00    +0.000 C 
ATOM     15  C   UNL     1       5.368   3.401  13.024  0.00  0.00    +0.000 C 
ATOM     16  C   UNL     1       6.561   3.472  12.068  0.00  0.00    +0.000 C 
ATOM     17  C   UNL     1       7.376   4.758  12.210  0.00  0.00    +0.000 C 
ATOM     18  C   UNL     1       7.713   5.077  13.667  0.00  0.00    +0.000 C 
ENDBRANCH  12  13
ENDBRANCH  10  12
ENDBRANCH   5   8
BRANCH   7  19
ATOM     19  C   UNL     1       1.816   5.838  20.515  0.00  0.00    +0.000 C 
ATOM     20  O   UNL     1       0.639   5.488  20.512  0.00  0.00    +0.000 OA
ATOM     21  N   UNL     1       2.274   7.134  20.660  0.00  0.00    +0.000 N 
ATOM     22  H   UNL     1       3.248   7.311  20.463  0.00  0.00    +0.000 HD
BRANCH  21  23
ATOM     23  C   UNL     1       1.460   8.276  20.872  0.00  0.00    +0.000 A 
ATOM     24  C   UNL     1       0.765   8.948  19.874  0.00  0.00    +0.000 A 
ATOM     25  C   UNL     1       0.056  10.115  20.177  0.00  0.00    +0.000 A 
ATOM     26  C   UNL     1       0.031  10.567  21.487  0.00  0.00    +0.000 A 
ATOM     27  N   UNL     1      -0.591  11.772  21.803  0.00  0.00    +0.000 N 
ATOM     28  N   UNL     1       0.654   9.925  22.484  0.00  0.00    +0.000 NA
ATOM     29  C   UNL     1       1.341   8.798  22.161  0.00  0.00    +0.000 A 
ATOM     30  H   UNL     1      -1.542  11.819  21.460  0.00  0.00    +0.000 HD
ATOM     31  H   UNL     1      -0.533  11.890  22.811  0.00  0.00    +0.000 HD
ENDBRANCH  21  23
ENDBRANCH   7  19
TORSDOF 5
ENDMDL
MODEL 2
REMARK VINA RESULT:      -8.2      4.131      7.490
REMARK  Name = 
REMARK  6 active torsions:
REMARK  status: ('A' for Active; 'I' for Inactive)
REMARK    1  A    between atoms: C_1  and  C_2
REMARK    2  A    between atoms: C_5  and  C_6
REMARK    3  A    between atoms: N_8  and  C_9
REMARK    4  A    between atoms: C_9  and  C_10
REMARK    5  A    between atoms: C_17  and  C_18
REMARK    6  A    between atoms: N_20  and  C_21
REMARK                            x       y       z     vdW  Elec       q    Type
REMARK                         _______ _______ _______ _____ _____    ______ ____
ROOT
ATOM      1  C   UNL     1      -1.671  11.572  23.184  0.00  0.00    +0.000 C 
ATOM      2  C   UNL     1      -0.801  10.842  22.201  0.00  0.00    +0.000 A 
ATOM      3  C   UNL     1      -0.278   9.597  22.600  0.00  0.00    +0.000 A 
ATOM      4  C   UNL     1       0.506   8.829  21.739  0.00  0.00    +0.000 A 
ATOM      5  C   UNL     1       0.809   9.299  20.460  0.00  0.00    +0.000 A 
ATOM      6  C   UNL     1       0.289  10.531  20.045  0.00  0.00    +0.000 A 
ATOM      7  C   UNL     1      -0.511  11.312  20.904  0.00  0.00    +0.000 A 
ENDROOT
BRANCH   5   8
ATOM      8  C   UNL     1       1.656   8.454  19.580  0.00  0.00    +0.000 C 
ATOM      9  O   UNL     1       1.801   8.754  18.401  0.00  0.00    +0.000 OA
ATOM     10  N   UNL     1       2.202   7.333  20.159  0.00  0.00    +0.000 N 
ATOM     11  H   UNL     1       1.967   7.085  21.110  0.00  0.00    +0.000 HD
BRANCH  10  12
ATOM     12  C   UNL     1       3.014   6.401  19.412  0.00  0.00    +0.000 C 
BRANCH  12  13
ATOM     13  C   UNL     1       2.493   4.961  19.436  0.00  0.00    +0.000 C 
ATOM     14  C   UNL     1       1.957   4.492  18.077  0.00  0.00    +0.000 C 
ATOM     15  C   UNL     1       1.672   2.991  18.117  0.00  0.00    +0.000 C 
ATOM     16  C   UNL     1       0.725   2.609  19.255  0.00  0.00    +0.000 C 
ATOM     17  C   UNL     1       1.121   3.215  20.602  0.00  0.00    +0.000 C 
ATOM     18  C   UNL     1       1.419   4.712  20.503  0.00  0.00    +0.000 C 
ENDBRANCH  12  13
ENDBRANCH  10  12
ENDBRANCH   5   8
BRANCH   7  19
ATOM     19  C   UNL     1      -1.063  12.561  20.286  0.00  0.00    +0.000 C 
ATOM     20  O   UNL     1      -2.008  12.427  19.515  0.00  0.00    +0.000 OA
ATOM     21  N   UNL     1      -0.408  13.746  20.564  0.00  0.00    +0.000 N 
ATOM     22  H   UNL     1       0.463  13.692  21.072  0.00  0.00    +0.000 HD
BRANCH  21  23
ATOM     23  C   UNL     1      -0.745  15.018  20.033  0.00  0.00    +0.000 A 
ATOM     24  C   UNL     1      -1.700  15.871  20.572  0.00  0.00    +0.000 A 
ATOM     25  C   UNL     1      -2.016  17.069  19.923  0.00  0.00    +0.000 A 
ATOM     26  C   UNL     1      -1.339  17.404  18.762  0.00  0.00    +0.000 A 
ATOM     27  N   UNL     1      -1.694  18.545  18.046  0.00  0.00    +0.000 N 
ATOM     28  N   UNL     1      -0.383  16.629  18.233  0.00  0.00    +0.000 NA
ATOM     29  C   UNL     1      -0.102  15.467  18.879  0.00  0.00    +0.000 A 
ATOM     30  H   UNL     1      -1.710  19.376  18.624  0.00  0.00    +0.000 HD
ATOM     31  H   UNL     1      -1.051  18.627  17.263  0.00  0.00    +0.000 HD
ENDBRANCH  21  23
ENDBRANCH   7  19
TORSDOF 5
ENDMDL
MODEL 3
REMARK VINA RESULT:      -8.1      1.024      1.059
REMARK  Name = 
REMARK  6 active torsions:
REMARK  status: ('A' for Active; 'I' for Inactive)
REMARK    1  A    between atoms: C_1  and  C_2
REMARK    2  A    between atoms: C_5  and  C_6
REMARK    3  A    between atoms: N_8  and  C_9
REMARK    4  A    between atoms: C_9  and  C_10
REMARK    5  A    between atoms: C_17  and  C_18
REMARK    6  A    between atoms: N_20  and  C_21
REMARK                            x       y       z     vdW  Elec       q    Type
REMARK                         _______ _______ _______ _____ _____    ______ ____
ROOT
ATOM      1  C   UNL     1       2.154   3.375  21.419  0.00  0.00    +0.000 C 
ATOM      2  C   UNL     1       2.946   4.089  20.362  0.00  0.00    +0.000 A 
ATOM      3  C   UNL     1       3.925   3.346  19.673  0.00  0.00    +0.000 A 
ATOM      4  C   UNL     1       4.679   3.914  18.648  0.00  0.00    +0.000 A 
ATOM      5  C   UNL     1       4.493   5.253  18.299  0.00  0.00    +0.000 A 
ATOM      6  C   UNL     1       3.518   6.002  18.967  0.00  0.00    +0.000 A 
ATOM      7  C   UNL     1       2.743   5.436  20.000  0.00  0.00    +0.000 A 
ENDROOT
BRANCH   5   8
ATOM      8  C   UNL     1       5.326   5.820  17.208  0.00  0.00    +0.000 C 
ATOM      9  O   UNL     1       5.013   6.886  16.692  0.00  0.00    +0.000 OA
ATOM     10  N   UNL     1       6.403   5.063  16.811  0.00  0.00    +0.000 N 
ATOM     11  H   UNL     1       6.554   4.145  17.207  0.00  0.00    +0.000 HD
BRANCH  10  12
ATOM     12  C   UNL     1       7.276   5.473  15.736  0.00  0.00    +0.000 C 
BRANCH  12  13
ATOM     13  C   UNL     1       6.807   5.029  14.347  0.00  0.00    +0.000 C 
ATOM     14  C   UNL     1       6.112   3.661  14.356  0.00  0.00    +0.000 C 
ATOM     15  C   UNL     1       5.473   3.391  12.994  0.00  0.00    +0.000 C 
ATOM     16  C   UNL     1       6.479   3.502  11.847  0.00  0.00    +0.000 C 
ATOM     17  C   UNL     1       7.330   4.771  11.908  0.00  0.00    +0.000 C 
ATOM     18  C   UNL     1       7.925   5.008  13.297  0.00  0.00    +0.000 C 
ENDBRANCH  12  13
ENDBRANCH  10  12
ENDBRANCH   5   8
BRANCH   7  19
ATOM     19  C   UNL     1       1.684   6.338  20.558  0.00  0.00    +0.000 C 
ATOM     20  O   UNL     1       0.569   5.851  20.718  0.00  0.00    +0.000 OA
ATOM     21  N   UNL     1       2.024   7.662  20.760  0.00  0.00    +0.000 N 
ATOM     22  H   UNL     1       2.923   7.972  20.421  0.00  0.00    +0.000 HD
BRANCH  21  23
ATOM     23  C   UNL     1       1.148   8.676  21.228  0.00  0.00    +0.000 A 
ATOM     24  C   UNL     1       0.305   9.427  20.419  0.00  0.00    +0.000 A 
ATOM     25  C   UNL     1      -0.459  10.460  20.971  0.00  0.00    +0.000 A 
ATOM     26  C   UNL     1      -0.388  10.697  22.334  0.00  0.00    +0.000 A 
ATOM     27  N   UNL     1      -1.067  11.774  22.897  0.00  0.00    +0.000 N 
ATOM     28  N   UNL     1       0.382   9.968  23.154  0.00  0.00    +0.000 NA
ATOM     29  C   UNL     1       1.120   8.976  22.590  0.00  0.00    +0.000 A 
ATOM     30  H   UNL     1      -2.049  11.784  22.651  0.00  0.00    +0.000 HD
ATOM     31  H   UNL     1      -0.917  11.738  23.901  0.00  0.00    +0.000 HD
ENDBRANCH  21  23
ENDBRANCH   7  19
TORSDOF 5
ENDMDL
MODEL 4
REMARK VINA RESULT:      -8.0      3.808      6.972
REMARK  Name = 
REMARK  6 active torsions:
REMARK  status: ('A' for Active; 'I' for Inactive)
REMARK    1  A    between atoms: C_1  and  C_2
REMARK    2  A    between atoms: C_5  and  C_6
REMARK    3  A    between atoms: N_8  and  C_9
REMARK    4  A    between atoms: C_9  and  C_10
REMARK    5  A    between atoms: C_17  and  C_18
REMARK    6  A    between atoms: N_20  and  C_21
REMARK                            x       y       z     vdW  Elec       q    Type
REMARK                         _______ _______ _______ _____ _____    ______ ____
ROOT
ATOM      1  C   UNL     1      -1.149  11.366  22.389  0.00  0.00    +0.000 C 
ATOM      2  C   UNL     1      -0.262  10.478  21.565  0.00  0.00    +0.000 A 
ATOM      3  C   UNL     1      -0.006   9.183  22.057  0.00  0.00    +0.000 A 
ATOM      4  C   UNL     1       0.772   8.275  21.341  0.00  0.00    +0.000 A 
ATOM      5  C   UNL     1       1.338   8.646  20.120  0.00  0.00    +0.000 A 
ATOM      6  C   UNL     1       1.087   9.926  19.613  0.00  0.00    +0.000 A 
ATOM      7  C   UNL     1       0.294  10.850  20.325  0.00  0.00    +0.000 A 
ENDROOT
BRANCH   5   8
ATOM      8  C   UNL     1       2.170   7.651  19.396  0.00  0.00    +0.000 C 
ATOM      9  O   UNL     1       2.238   7.686  18.173  0.00  0.00    +0.000 OA
ATOM     10  N   UNL     1       2.791   6.700  20.172  0.00  0.00    +0.000 N 
ATOM     11  H   UNL     1       2.618   6.663  21.167  0.00  0.00    +0.000 HD
BRANCH  10  12
ATOM     12  C   UNL     1       3.598   5.649  19.598  0.00  0.00    +0.000 C 
BRANCH  12  13
ATOM     13  C   UNL     1       2.862   4.315  19.437  0.00  0.00    +0.000 C 
ATOM     14  C   UNL     1       2.494   4.004  17.980  0.00  0.00    +0.000 C 
ATOM     15  C   UNL     1       1.975   2.571  17.866  0.00  0.00    +0.000 C 
ATOM     16  C   UNL     1       0.804   2.299  18.812  0.00  0.00    +0.000 C 
ATOM     17  C   UNL     1       1.060   2.770  20.244  0.00  0.00    +0.000 C 
ATOM     18  C   UNL     1       1.600   4.199  20.301  0.00  0.00    +0.000 C 
ENDBRANCH  12  13
ENDBRANCH  10  12
ENDBRANCH   5   8
BRANCH   7  19
ATOM     19  C   UNL     1       0.045  12.145  19.611  0.00  0.00    +0.000 C 
ATOM     20  O   UNL     1      -0.640  12.094  18.594  0.00  0.00    +0.000 OA
ATOM     21  N   UNL     1       0.678  13.270  20.105  0.00  0.00    +0.000 N 
ATOM     22  H   UNL     1       1.354  13.141  20.843  0.00  0.00    +0.000 HD
BRANCH  21  23
ATOM     23  C   UNL     1       0.609  14.569  19.538  0.00  0.00    +0.000 A 
ATOM     24  C   UNL     1      -0.554  15.321  19.424  0.00  0.00    +0.000 A 
ATOM     25  C   UNL     1      -0.527  16.559  18.774  0.00  0.00    +0.000 A 
ATOM     26  C   UNL     1       0.677  17.034  18.281  0.00  0.00    +0.000 A 
ATOM     27  N   UNL     1       0.718  18.220  17.551  0.00  0.00    +0.000 N 
ATOM     28  N   UNL     1       1.827  16.359  18.407  0.00  0.00    +0.000 NA
ATOM     29  C   UNL     1       1.771  15.155  19.036  0.00  0.00    +0.000 A 
ATOM     30  H   UNL     1       0.279  18.991  18.038  0.00  0.00    +0.000 HD
ATOM     31  H   UNL     1       1.692  18.406  17.326  0.00  0.00    +0.000 HD
ENDBRANCH  21  23
ENDBRANCH   7  19
TORSDOF 5
ENDMDL
MODEL 5
REMARK VINA RESULT:      -8.0      2.599      5.519
REMARK  Name = 
REMARK  6 active torsions:
REMARK  status: ('A' for Active; 'I' for Inactive)
REMARK    1  A    between atoms: C_1  and  C_2
REMARK    2  A    between atoms: C_5  and  C_6
REMARK    3  A    between atoms: N_8  and  C_9
REMARK    4  A    between atoms: C_9  and  C_10
REMARK    5  A    between atoms: C_17  and  C_18
REMARK    6  A    between atoms: N_20  and  C_21
REMARK                            x       y       z     vdW  Elec       q    Type
REMARK                         _______ _______ _______ _____ _____    ______ ____
ROOT
ATOM      1  C   UNL     1       0.562  11.908  18.686  0.00  0.00    +0.000 C 
ATOM      2  C   UNL     1       0.959  10.516  19.089  0.00  0.00    +0.000 A 
ATOM      3  C   UNL     1       1.581   9.712  18.113  0.00  0.00    +0.000 A 
ATOM      4  C   UNL     1       2.020   8.422  18.409  0.00  0.00    +0.000 A 
ATOM      5  C   UNL     1       1.828   7.891  19.685  0.00  0.00    +0.000 A 
ATOM      6  C   UNL     1       1.220   8.680  20.668  0.00  0.00    +0.000 A 
ATOM      7  C   UNL     1       0.779   9.988  20.383  0.00  0.00    +0.000 A 
ENDROOT
BRANCH   5   8
ATOM      8  C   UNL     1       2.302   6.509  19.952  0.00  0.00    +0.000 C 
ATOM      9  O   UNL     1       1.689   5.794  20.736  0.00  0.00    +0.000 OA
ATOM     10  N   UNL     1       3.459   6.129  19.313  0.00  0.00    +0.000 N 
ATOM     11  H   UNL     1       3.973   6.796  18.754  0.00  0.00    +0.000 HD
BRANCH  10  12
ATOM     12  C   UNL     1       4.055   4.829  19.511  0.00  0.00    +0.000 C 
BRANCH  12  13
ATOM     13  C   UNL     1       5.107   4.459  18.462  0.00  0.00    +0.000 C 
ATOM     14  C   UNL     1       6.424   5.227  18.633  0.00  0.00    +0.000 C 
ATOM     15  C   UNL     1       7.492   4.647  17.707  0.00  0.00    +0.000 C 
ATOM     16  C   UNL     1       7.043   4.621  16.245  0.00  0.00    +0.000 C 
ATOM     17  C   UNL     1       5.646   4.030  16.050  0.00  0.00    +0.000 C 
ATOM     18  C   UNL     1       4.622   4.627  17.016  0.00  0.00    +0.000 C 
ENDBRANCH  12  13
ENDBRANCH  10  12
ENDBRANCH   5   8
BRANCH   7  19
ATOM     19  C   UNL     1       0.229  10.736  21.560  0.00  0.00    +0.000 C 
ATOM     20  O   UNL     1       0.590  10.363  22.672  0.00  0.00    +0.000 OA
ATOM     21  N   UNL     1      -0.706  11.721  21.302  0.00  0.00    +0.000 N 
ATOM     22  H   UNL     1      -1.047  11.807  20.356  0.00  0.00    +0.000 HD
BRANCH  21  23
ATOM     23  C   UNL     1      -1.377  12.497  22.282  0.00  0.00    +0.000 A 
ATOM     24  C   UNL     1      -0.865  13.650  22.865  0.00  0.00    +0.000 A 
ATOM     25  C   UNL     1      -1.573  14.295  23.883  0.00  0.00    +0.000 A 
ATOM     26  C   UNL     1      -2.802  13.789  24.273  0.00  0.00    +0.000 A 
ATOM     27  N   UNL     1      -3.489  14.358  25.344  0.00  0.00    +0.000 N 
ATOM     28  N   UNL     1      -3.350  12.705  23.708  0.00  0.00    +0.000 NA
ATOM     29  C   UNL     1      -2.637  12.092  22.727  0.00  0.00    +0.000 A 
ATOM     30  H   UNL     1      -3.605  15.358  25.243  0.00  0.00    +0.000 HD
ATOM     31  H   UNL     1      -4.376  13.869  25.432  0.00  0.00    +0.000 HD
ENDBRANCH  21  23
ENDBRANCH   7  19
TORSDOF 5
ENDMDL
MODEL 6
REMARK VINA RESULT:      -8.0      4.127      7.482
REMARK  Name = 
REMARK  6 active torsions:
REMARK  status: ('A' for Active; 'I' for Inactive)
REMARK    1  A    between atoms: C_1  and  C_2
REMARK    2  A    between atoms: C_5  and  C_6
REMARK    3  A    between atoms: N_8  and  C_9
REMARK    4  A    between atoms: C_9  and  C_10
REMARK    5  A    between atoms: C_17  and  C_18
REMARK    6  A    between atoms: N_20  and  C_21
REMARK                            x       y       z     vdW  Elec       q    Type
REMARK                         _______ _______ _______ _____ _____    ______ ____
ROOT
ATOM      1  C   UNL     1      -1.560  11.776  22.796  0.00  0.00    +0.000 C 
ATOM      2  C   UNL     1      -0.723  10.964  21.850  0.00  0.00    +0.000 A 
ATOM      3  C   UNL     1       0.223  10.085  22.413  0.00  0.00    +0.000 A 
ATOM      4  C   UNL     1       1.015   9.262  21.614  0.00  0.00    +0.000 A 
ATOM      5  C   UNL     1       0.901   9.314  20.224  0.00  0.00    +0.000 A 
ATOM      6  C   UNL     1      -0.040  10.175  19.648  0.00  0.00    +0.000 A 
ATOM      7  C   UNL     1      -0.853  11.006  20.447  0.00  0.00    +0.000 A 
ENDROOT
BRANCH   5   8
ATOM      8  C   UNL     1       1.772   8.427  19.411  0.00  0.00    +0.000 C 
ATOM      9  O   UNL     1       2.011   8.710  18.243  0.00  0.00    +0.000 OA
ATOM     10  N   UNL     1       2.231   7.290  20.034  0.00  0.00    +0.000 N 
ATOM     11  H   UNL     1       1.920   7.061  20.968  0.00  0.00    +0.000 HD
BRANCH  10  12
ATOM     12  C   UNL     1       3.054   6.320  19.351  0.00  0.00    +0.000 C 
BRANCH  12  13
ATOM     13  C   UNL     1       2.504   4.892  19.398  0.00  0.00    +0.000 C 
ATOM     14  C   UNL     1       1.984   4.403  18.039  0.00  0.00    +0.000 C 
ATOM     15  C   UNL     1       1.668   2.909  18.107  0.00  0.00    +0.000 C 
ATOM     16  C   UNL     1       0.692   2.572  19.235  0.00  0.00    +0.000 C 
ATOM     17  C   UNL     1       1.075   3.200  20.576  0.00  0.00    +0.000 C 
ATOM     18  C   UNL     1       1.405   4.688  20.449  0.00  0.00    +0.000 C 
ENDBRANCH  12  13
ENDBRANCH  10  12
ENDBRANCH   5   8
BRANCH   7  19
ATOM     19  C   UNL     1      -1.870  11.806  19.690  0.00  0.00    +0.000 C 
ATOM     20  O   UNL     1      -1.585  12.974  19.443  0.00  0.00    +0.000 OA
ATOM     21  N   UNL     1      -3.077  11.192  19.411  0.00  0.00    +0.000 N 
ATOM     22  H   UNL     1      -3.248  10.287  19.825  0.00  0.00    +0.000 HD
BRANCH  21  23
ATOM     23  C   UNL     1      -4.178  11.799  18.755  0.00  0.00    +0.000 A 
ATOM     24  C   UNL     1      -4.478  11.645  17.407  0.00  0.00    +0.000 A 
ATOM     25  C   UNL     1      -5.541  12.356  16.840  0.00  0.00    +0.000 A 
ATOM     26  C   UNL     1      -6.306  13.182  17.647  0.00  0.00    +0.000 A 
ATOM     27  N   UNL     1      -7.313  13.968  17.094  0.00  0.00    +0.000 N 
ATOM     28  N   UNL     1      -6.074  13.325  18.959  0.00  0.00    +0.000 NA
ATOM     29  C   UNL     1      -5.031  12.630  19.482  0.00  0.00    +0.000 A 
ATOM     30  H   UNL     1      -7.961  13.431  16.531  0.00  0.00    +0.000 HD
ATOM     31  H   UNL     1      -7.772  14.457  17.857  0.00  0.00    +0.000 HD
ENDBRANCH  21  23
ENDBRANCH   7  19
TORSDOF 5
ENDMDL
MODEL 7
REMARK VINA RESULT:      -7.8      3.936      5.288
REMARK  Name = 
REMARK  6 active torsions:
REMARK  status: ('A' for Active; 'I' for Inactive)
REMARK    1  A    between atoms: C_1  and  C_2
REMARK    2  A    between atoms: C_5  and  C_6
REMARK    3  A    between atoms: N_8  and  C_9
REMARK    4  A    between atoms: C_9  and  C_10
REMARK    5  A    between atoms: C_17  and  C_18
REMARK    6  A    between atoms: N_20  and  C_21
REMARK                            x       y       z     vdW  Elec       q    Type
REMARK                         _______ _______ _______ _____ _____    ______ ____
ROOT
ATOM      1  C   UNL     1       1.691   4.726  17.935  0.00  0.00    +0.000 C 
ATOM      2  C   UNL     1       3.010   5.428  17.784  0.00  0.00    +0.000 A 
ATOM      3  C   UNL     1       4.073   4.695  17.221  0.00  0.00    +0.000 A 
ATOM      4  C   UNL     1       5.322   5.277  17.004  0.00  0.00    +0.000 A 
ATOM      5  C   UNL     1       5.549   6.605  17.368  0.00  0.00    +0.000 A 
ATOM      6  C   UNL     1       4.501   7.350  17.921  0.00  0.00    +0.000 A 
ATOM      7  C   UNL     1       3.232   6.774  18.137  0.00  0.00    +0.000 A 
ENDROOT
BRANCH   5   8
ATOM      8  C   UNL     1       6.897   7.181  17.130  0.00  0.00    +0.000 C 
ATOM      9  O   UNL     1       7.708   6.573  16.441  0.00  0.00    +0.000 OA
ATOM     10  N   UNL     1       7.166   8.375  17.757  0.00  0.00    +0.000 N 
ATOM     11  H   UNL     1       6.493   8.780  18.392  0.00  0.00    +0.000 HD
BRANCH  10  12
ATOM     12  C   UNL     1       8.449   9.029  17.646  0.00  0.00    +0.000 C 
BRANCH  12  13
ATOM     13  C   UNL     1       8.593  10.274  18.525  0.00  0.00    +0.000 C 
ATOM     14  C   UNL     1       9.111  11.497  17.756  0.00  0.00    +0.000 C 
ATOM     15  C   UNL     1       9.011  12.745  18.632  0.00  0.00    +0.000 C 
ATOM     16  C   UNL     1       9.733  12.577  19.970  0.00  0.00    +0.000 C 
ATOM     17  C   UNL     1       9.385  11.271  20.686  0.00  0.00    +0.000 C 
ATOM     18  C   UNL     1       9.477  10.057  19.760  0.00  0.00    +0.000 C 
ENDBRANCH  12  13
ENDBRANCH  10  12
ENDBRANCH   5   8
BRANCH   7  19
ATOM     19  C   UNL     1       2.191   7.723  18.652  0.00  0.00    +0.000 C 
ATOM     20  O   UNL     1       1.572   8.374  17.817  0.00  0.00    +0.000 OA
ATOM     21  N   UNL     1       2.078   7.851  20.024  0.00  0.00    +0.000 N 
ATOM     22  H   UNL     1       2.769   7.389  20.596  0.00  0.00    +0.000 HD
BRANCH  21  23
ATOM     23  C   UNL     1       1.194   8.732  20.698  0.00  0.00    +0.000 A 
ATOM     24  C   UNL     1       0.244   9.530  20.074  0.00  0.00    +0.000 A 
ATOM     25  C   UNL     1      -0.523  10.426  20.826  0.00  0.00    +0.000 A 
ATOM     26  C   UNL     1      -0.344  10.479  22.198  0.00  0.00    +0.000 A 
ATOM     27  N   UNL     1      -1.028  11.423  22.960  0.00  0.00    +0.000 N 
ATOM     28  N   UNL     1       0.533   9.697  22.843  0.00  0.00    +0.000 NA
ATOM     29  C   UNL     1       1.270   8.841  22.088  0.00  0.00    +0.000 A 
ATOM     30  H   UNL     1      -2.027  11.403  22.798  0.00  0.00    +0.000 HD
ATOM     31  H   UNL     1      -0.788  11.260  23.935  0.00  0.00    +0.000 HD
ENDBRANCH  21  23
ENDBRANCH   7  19
TORSDOF 5
ENDMDL
MODEL 8
REMARK VINA RESULT:      -7.8      3.793      6.941
REMARK  Name = 
REMARK  6 active torsions:
REMARK  status: ('A' for Active; 'I' for Inactive)
REMARK    1  A    between atoms: C_1  and  C_2
REMARK    2  A    between atoms: C_5  and  C_6
REMARK    3  A    between atoms: N_8  and  C_9
REMARK    4  A    between atoms: C_9  and  C_10
REMARK    5  A    between atoms: C_17  and  C_18
REMARK    6  A    between atoms: N_20  and  C_21
REMARK                            x       y       z     vdW  Elec       q    Type
REMARK                         _______ _______ _______ _____ _____    ______ ____
ROOT
ATOM      1  C   UNL     1      -1.312  11.060  23.092  0.00  0.00    +0.000 C 
ATOM      2  C   UNL     1      -0.448  10.331  22.102  0.00  0.00    +0.000 A 
ATOM      3  C   UNL     1      -0.029   9.030  22.444  0.00  0.00    +0.000 A 
ATOM      4  C   UNL     1       0.740   8.262  21.570  0.00  0.00    +0.000 A 
ATOM      5  C   UNL     1       1.133   8.786  20.337  0.00  0.00    +0.000 A 
ATOM      6  C   UNL     1       0.717  10.073  19.978  0.00  0.00    +0.000 A 
ATOM      7  C   UNL     1      -0.068  10.855  20.851  0.00  0.00    +0.000 A 
ENDROOT
BRANCH   5   8
ATOM      8  C   UNL     1       1.961   7.938  19.442  0.00  0.00    +0.000 C 
ATOM      9  O   UNL     1       2.062   8.221  18.254  0.00  0.00    +0.000 OA
ATOM     10  N   UNL     1       2.540   6.832  20.019  0.00  0.00    +0.000 N 
ATOM     11  H   UNL     1       2.340   6.596  20.981  0.00  0.00    +0.000 HD
BRANCH  10  12
ATOM     12  C   UNL     1       3.338   5.898  19.259  0.00  0.00    +0.000 C 
BRANCH  12  13
ATOM     13  C   UNL     1       2.789   4.469  19.253  0.00  0.00    +0.000 C 
ATOM     14  C   UNL     1       2.549   3.923  17.839  0.00  0.00    +0.000 C 
ATOM     15  C   UNL     1       2.225   2.431  17.902  0.00  0.00    +0.000 C 
ATOM     16  C   UNL     1       1.045   2.131  18.827  0.00  0.00    +0.000 C 
ATOM     17  C   UNL     1       1.154   2.815  20.191  0.00  0.00    +0.000 C 
ATOM     18  C   UNL     1       1.503   4.299  20.072  0.00  0.00    +0.000 C 
ENDBRANCH  12  13
ENDBRANCH  10  12
ENDBRANCH   5   8
BRANCH   7  19
ATOM     19  C   UNL     1      -0.506  12.175  20.290  0.00  0.00    +0.000 C 
ATOM     20  O   UNL     1      -1.430  12.155  19.482  0.00  0.00    +0.000 OA
ATOM     21  N   UNL     1       0.222  13.290  20.657  0.00  0.00    +0.000 N 
ATOM     22  H   UNL     1       1.068  13.144  21.189  0.00  0.00    +0.000 HD
BRANCH  21  23
ATOM     23  C   UNL     1      -0.003  14.612  20.192  0.00  0.00    +0.000 A 
ATOM     24  C   UNL     1      -0.032  14.984  18.854  0.00  0.00    +0.000 A 
ATOM     25  C   UNL     1      -0.180  16.330  18.504  0.00  0.00    +0.000 A 
ATOM     26  C   UNL     1      -0.331  17.274  19.506  0.00  0.00    +0.000 A 
ATOM     27  N   UNL     1      -0.391  18.630  19.192  0.00  0.00    +0.000 N 
ATOM     28  N   UNL     1      -0.350  16.950  20.807  0.00  0.00    +0.000 NA
ATOM     29  C   UNL     1      -0.196  15.637  21.119  0.00  0.00    +0.000 A 
ATOM     30  H   UNL     1      -1.092  18.835  18.492  0.00  0.00    +0.000 HD
ATOM     31  H   UNL     1      -0.546  19.137  20.059  0.00  0.00    +0.000 HD
ENDBRANCH  21  23
ENDBRANCH   7  19
TORSDOF 5
ENDMDL
MODEL 9
REMARK VINA RESULT:      -7.8      1.091      1.344
REMARK  Name = 
REMARK  6 active torsions:
REMARK  status: ('A' for Active; 'I' for Inactive)
REMARK    1  A    between atoms: C_1  and  C_2
REMARK    2  A    between atoms: C_5  and  C_6
REMARK    3  A    between atoms: N_8  and  C_9
REMARK    4  A    between atoms: C_9  and  C_10
REMARK    5  A    between atoms: C_17  and  C_18
REMARK    6  A    between atoms: N_20  and  C_21
REMARK                            x       y       z     vdW  Elec       q    Type
REMARK                         _______ _______ _______ _____ _____    ______ ____
ROOT
ATOM      1  C   UNL     1       1.452   3.372  21.260  0.00  0.00    +0.000 C 
ATOM      2  C   UNL     1       2.644   3.781  20.442  0.00  0.00    +0.000 A 
ATOM      3  C   UNL     1       3.527   2.764  20.032  0.00  0.00    +0.000 A 
ATOM      4  C   UNL     1       4.637   3.044  19.236  0.00  0.00    +0.000 A 
ATOM      5  C   UNL     1       4.908   4.357  18.847  0.00  0.00    +0.000 A 
ATOM      6  C   UNL     1       4.035   5.378  19.238  0.00  0.00    +0.000 A 
ATOM      7  C   UNL     1       2.905   5.106  20.037  0.00  0.00    +0.000 A 
ENDROOT
BRANCH   5   8
ATOM      8  C   UNL     1       6.108   4.611  18.009  0.00  0.00    +0.000 C 
ATOM      9  O   UNL     1       7.225   4.392  18.460  0.00  0.00    +0.000 OA
ATOM     10  N   UNL     1       5.874   5.133  16.758  0.00  0.00    +0.000 N 
ATOM     11  H   UNL     1       4.936   5.384  16.478  0.00  0.00    +0.000 HD
BRANCH  10  12
ATOM     12  C   UNL     1       6.948   5.465  15.852  0.00  0.00    +0.000 C 
BRANCH  12  13
ATOM     13  C   UNL     1       6.680   5.074  14.396  0.00  0.00    +0.000 C 
ATOM     14  C   UNL     1       6.135   3.648  14.247  0.00  0.00    +0.000 C 
ATOM     15  C   UNL     1       5.678   3.410  12.808  0.00  0.00    +0.000 C 
ATOM     16  C   UNL     1       6.784   3.698  11.791  0.00  0.00    +0.000 C 
ATOM     17  C   UNL     1       7.486   5.037  12.021  0.00  0.00    +0.000 C 
ATOM     18  C   UNL     1       7.900   5.235  13.480  0.00  0.00    +0.000 C 
ENDBRANCH  12  13
ENDBRANCH  10  12
ENDBRANCH   5   8
BRANCH   7  19
ATOM     19  C   UNL     1       2.021   6.288  20.298  0.00  0.00    +0.000 C 
ATOM     20  O   UNL     1       1.102   6.127  21.096  0.00  0.00    +0.000 OA
ATOM     21  N   UNL     1       2.256   7.429  19.555  0.00  0.00    +0.000 N 
ATOM     22  H   UNL     1       2.930   7.370  18.806  0.00  0.00    +0.000 HD
BRANCH  21  23
ATOM     23  C   UNL     1       1.496   8.626  19.621  0.00  0.00    +0.000 A 
ATOM     24  C   UNL     1       0.866   9.100  20.764  0.00  0.00    +0.000 A 
ATOM     25  C   UNL     1       0.071  10.250  20.701  0.00  0.00    +0.000 A 
ATOM     26  C   UNL     1      -0.046  10.922  19.496  0.00  0.00    +0.000 A 
ATOM     27  N   UNL     1      -0.899  12.016  19.382  0.00  0.00    +0.000 N 
ATOM     28  N   UNL     1       0.579  10.520  18.381  0.00  0.00    +0.000 NA
ATOM     29  C   UNL     1       1.337   9.396  18.468  0.00  0.00    +0.000 A 
ATOM     30  H   UNL     1      -0.727  12.718  20.090  0.00  0.00    +0.000 HD
ATOM     31  H   UNL     1      -0.802  12.382  18.438  0.00  0.00    +0.000 HD
ENDBRANCH  21  23
ENDBRANCH   7  19
TORSDOF 5
ENDMDL
