MODEL 1
REMARK VINA RESULT:      -7.9      0.000      0.000
REMARK  Name = 
REMARK  10 active torsions:
REMARK  status: ('A' for Active; 'I' for Inactive)
REMARK    1  A    between atoms: C_1  and  C_2
REMARK    2  A    between atoms: C_2  and  C_3
REMARK    3  A    between atoms: C_2  and  N_4
REMARK    4  A    between atoms: C_10  and  C_11
REMARK    5  A    between atoms: C_11  and  N_12
REMARK    6  A    between atoms: N_20  and  C_21
REMARK    7  A    between atoms: C_21  and  C_22
REMARK    8  A    between atoms: C_22  and  C_23
REMARK    9  A    between atoms: C_23  and  C_24
REMARK   10  A    between atoms: N_32  and  C_33
REMARK                            x       y       z     vdW  Elec       q    Type
REMARK                         _______ _______ _______ _____ _____    ______ ____
ROOT
ATOM      1  N   UNL     1       0.940  10.209  19.528  0.00  0.00    +0.000 NA
ATOM      2  C   UNL     1      -0.349  10.526  18.932  0.00  0.00    +0.000 C 
ATOM      3  C   UNL     1      -1.369  11.047  19.941  0.00  0.00    +0.000 C 
ATOM      4  C   UNL     1      -0.845  12.212  20.796  0.00  0.00    +0.000 C 
ATOM      5  C   UNL     1       0.612  12.044  21.248  0.00  0.00    +0.000 C 
ATOM      6  C   UNL     1       1.520  11.343  20.239  0.00  0.00    +0.000 C 
ATOM      7  C   UNL     1      -1.748  12.317  22.048  0.00  0.00    +0.000 C 
ATOM      8  O   UNL     1      -1.638  11.623  23.052  0.00  0.00    +0.000 OA
ATOM      9  N   UNL     1      -2.711  13.270  21.845  0.00  0.00    +0.000 N 
ATOM     10  C   UNL     1      -2.352  14.050  20.783  0.00  0.00    +0.000 C 
ATOM     11  O   UNL     1      -2.887  15.094  20.443  0.00  0.00    +0.000 OA
ATOM     12  N   UNL     1      -1.211  13.502  20.203  0.00  0.00    +0.000 N 
ATOM     13  C   UNL     1      -0.437  14.191  19.194  0.00  0.00    +0.000 C 
ENDROOT
BRANCH   1  14
ATOM     14  C   UNL     1       0.996   8.899  20.195  0.00  0.00    +0.000 C 
BRANCH  14  21
ATOM     15  N   UNL     1       4.775   5.533  17.390  0.00  0.00    +0.000 N 
ATOM     16  C   UNL     1       4.566   4.091  17.477  0.00  0.00    +0.000 C 
ATOM     17  C   UNL     1       4.537   3.689  18.944  0.00  0.00    +0.000 C 
ATOM     18  C   UNL     1       3.398   4.402  19.676  0.00  0.00    +0.000 C 
ATOM     19  C   UNL     1       3.160   5.819  19.202  0.00  0.00    +0.000 A 
ATOM     20  C   UNL     1       2.243   6.643  19.914  0.00  0.00    +0.000 A 
ATOM     21  C   UNL     1       1.915   7.929  19.454  0.00  0.00    +0.000 A 
ATOM     22  C   UNL     1       2.491   8.358  18.254  0.00  0.00    +0.000 A 
ATOM     23  C   UNL     1       3.417   7.569  17.575  0.00  0.00    +0.000 A 
ATOM     24  C   UNL     1       3.796   6.301  18.038  0.00  0.00    +0.000 A 
BRANCH  15  26
ATOM     25  C   UNL     1       7.038   6.477  16.934  0.00  0.00    +0.000 C 
ATOM     26  C   UNL     1       5.659   6.123  16.372  0.00  0.00    +0.000 C 
ATOM     27  C   UNL     1       5.783   5.227  15.144  0.00  0.00    +0.000 C 
ENDBRANCH  15  26
ENDBRANCH  14  21
ENDBRANCH   1  14
BRANCH   9  28
ATOM     28  C   UNL     1      -3.609  13.705  22.903  0.00  0.00    +0.000 C 
BRANCH  28  29
ATOM     29  C   UNL     1      -5.015  13.104  22.879  0.00  0.00    +0.000 C 
BRANCH  29  30
ATOM     30  C   UNL     1      -5.852  13.566  21.686  0.00  0.00    +0.000 C 
BRANCH  30  31
ATOM     31  C   UNL     1      -6.083  12.428  20.720  0.00  0.00    +0.000 A 
ATOM     32  C   UNL     1      -5.357  12.348  19.529  0.00  0.00    +0.000 A 
ATOM     33  C   UNL     1      -5.634  11.310  18.655  0.00  0.00    +0.000 A 
ATOM     34  N   UNL     1      -6.566  10.362  18.873  0.00  0.00    +0.000 NA
ATOM     35  C   UNL     1      -7.259  10.460  20.028  0.00  0.00    +0.000 A 
ATOM     36  C   UNL     1      -7.059  11.460  20.968  0.00  0.00    +0.000 A 
ENDBRANCH  30  31
ENDBRANCH  29  30
ENDBRANCH  28  29
ENDBRANCH   9  28
TORSDOF 7
ENDMDL
MODEL 2
REMARK VINA RESULT:      -7.6      2.680      5.394
REMARK  Name = 
REMARK  10 active torsions:
REMARK  status: ('A' for Active; 'I' for Inactive)
REMARK    1  A    between atoms: C_1  and  C_2
REMARK    2  A    between atoms: C_2  and  C_3
REMARK    3  A    between atoms: C_2  and  N_4
REMARK    4  A    between atoms: C_10  and  C_11
REMARK    5  A    between atoms: C_11  and  N_12
REMARK    6  A    between atoms: N_20  and  C_21
REMARK    7  A    between atoms: C_21  and  C_22
REMARK    8  A    between atoms: C_22  and  C_23
REMARK    9  A    between atoms: C_23  and  C_24
REMARK   10  A    between atoms: N_32  and  C_33
REMARK                            x       y       z     vdW  Elec       q    Type
REMARK                         _______ _______ _______ _____ _____    ______ ____
ROOT
ATOM      1  N   UNL     1       0.669   9.718  19.849  0.00  0.00    +0.000 NA
ATOM      2  C   UNL     1       1.233  10.580  20.876  0.00  0.00    +0.000 C 
ATOM      3  C   UNL     1       0.975  12.065  20.628  0.00  0.00    +0.000 C 
ATOM      4  C   UNL     1      -0.505  12.394  20.369  0.00  0.00    +0.000 C 
ATOM      5  C   UNL     1      -1.224  11.367  19.483  0.00  0.00    +0.000 C 
ATOM      6  C   UNL     1      -0.765   9.922  19.675  0.00  0.00    +0.000 C 
ATOM      7  C   UNL     1      -0.562  13.777  19.678  0.00  0.00    +0.000 C 
ATOM      8  O   UNL     1      -0.382  13.971  18.481  0.00  0.00    +0.000 OA
ATOM      9  N   UNL     1      -0.801  14.751  20.611  0.00  0.00    +0.000 N 
ATOM     10  C   UNL     1      -1.259  14.169  21.759  0.00  0.00    +0.000 C 
ATOM     11  O   UNL     1      -1.734  14.750  22.722  0.00  0.00    +0.000 OA
ATOM     12  N   UNL     1      -1.178  12.786  21.611  0.00  0.00    +0.000 N 
ATOM     13  C   UNL     1      -1.781  11.861  22.545  0.00  0.00    +0.000 C 
ENDROOT
BRANCH   1  14
ATOM     14  C   UNL     1       1.485   9.610  18.630  0.00  0.00    +0.000 C 
BRANCH  14  21
ATOM     15  N   UNL     1       3.872   4.348  18.355  0.00  0.00    +0.000 N 
ATOM     16  C   UNL     1       5.236   4.267  17.841  0.00  0.00    +0.000 C 
ATOM     17  C   UNL     1       5.275   4.903  16.460  0.00  0.00    +0.000 C 
ATOM     18  C   UNL     1       4.855   6.373  16.529  0.00  0.00    +0.000 C 
ATOM     19  C   UNL     1       3.759   6.647  17.535  0.00  0.00    +0.000 A 
ATOM     20  C   UNL     1       3.166   7.941  17.578  0.00  0.00    +0.000 A 
ATOM     21  C   UNL     1       2.216   8.272  18.559  0.00  0.00    +0.000 A 
ATOM     22  C   UNL     1       1.901   7.300  19.514  0.00  0.00    +0.000 A 
ATOM     23  C   UNL     1       2.452   6.021  19.453  0.00  0.00    +0.000 A 
ATOM     24  C   UNL     1       3.366   5.652  18.456  0.00  0.00    +0.000 A 
BRANCH  15  26
ATOM     25  C   UNL     1       2.564   2.232  18.171  0.00  0.00    +0.000 C 
ATOM     26  C   UNL     1       3.261   3.232  19.096  0.00  0.00    +0.000 C 
ATOM     27  C   UNL     1       4.274   2.529  19.995  0.00  0.00    +0.000 C 
ENDBRANCH  15  26
ENDBRANCH  14  21
ENDBRANCH   1  14
BRANCH   9  28
ATOM     28  C   UNL     1      -1.065  16.133  20.243  0.00  0.00    +0.000 C 
BRANCH  28  29
ATOM     29  C   UNL     1       0.119  17.094  20.352  0.00  0.00    +0.000 C 
BRANCH  29  30
ATOM     30  C   UNL     1       1.409  16.417  20.817  0.00  0.00    +0.000 C 
BRANCH  30  31
ATOM     31  C   UNL     1       2.293  16.082  19.639  0.00  0.00    +0.000 A 
ATOM     32  C   UNL     1       2.347  16.926  18.527  0.00  0.00    +0.000 A 
ATOM     33  C   UNL     1       3.140  16.556  17.455  0.00  0.00    +0.000 A 
ATOM     34  N   UNL     1       3.870  15.424  17.404  0.00  0.00    +0.000 NA
ATOM     35  C   UNL     1       3.800  14.620  18.486  0.00  0.00    +0.000 A 
ATOM     36  C   UNL     1       3.037  14.899  19.611  0.00  0.00    +0.000 A 
ENDBRANCH  30  31
ENDBRANCH  29  30
ENDBRANCH  28  29
ENDBRANCH   9  28
TORSDOF 7
ENDMDL
MODEL 3
REMARK VINA RESULT:      -7.6      2.608      5.374
REMARK  Name = 
REMARK  10 active torsions:
REMARK  status: ('A' for Active; 'I' for Inactive)
REMARK    1  A    between atoms: C_1  and  C_2
REMARK    2  A    between atoms: C_2  and  C_3
REMARK    3  A    between atoms: C_2  and  N_4
REMARK    4  A    between atoms: C_10  and  C_11
REMARK    5  A    between atoms: C_11  and  N_12
REMARK    6  A    between atoms: N_20  and  C_21
REMARK    7  A    between atoms: C_21  and  C_22
REMARK    8  A    between atoms: C_22  and  C_23
REMARK    9  A    between atoms: C_23  and  C_24
REMARK   10  A    between atoms: N_32  and  C_33
REMARK                            x       y       z     vdW  Elec       q    Type
REMARK                         _______ _______ _______ _____ _____    ______ ____
ROOT
ATOM      1  N   UNL     1       0.568   9.754  20.068  0.00  0.00    +0.000 NA
ATOM      2  C   UNL     1       1.080  10.667  21.079  0.00  0.00    +0.000 C 
ATOM      3  C   UNL     1       0.776  12.133  20.780  0.00  0.00    +0.000 C 
ATOM      4  C   UNL     1      -0.708  12.403  20.480  0.00  0.00    +0.000 C 
ATOM      5  C   UNL     1      -1.372  11.325  19.612  0.00  0.00    +0.000 C 
ATOM      6  C   UNL     1      -0.868   9.903  19.857  0.00  0.00    +0.000 C 
ATOM      7  C   UNL     1      -0.797  13.761  19.746  0.00  0.00    +0.000 C 
ATOM      8  O   UNL     1      -0.598  13.925  18.548  0.00  0.00    +0.000 OA
ATOM      9  N   UNL     1      -1.089  14.754  20.643  0.00  0.00    +0.000 N 
ATOM     10  C   UNL     1      -1.552  14.191  21.798  0.00  0.00    +0.000 C 
ATOM     11  O   UNL     1      -2.068  14.784  22.733  0.00  0.00    +0.000 OA
ATOM     12  N   UNL     1      -1.421  12.808  21.695  0.00  0.00    +0.000 N 
ATOM     13  C   UNL     1      -2.012  11.892  22.645  0.00  0.00    +0.000 C 
ENDROOT
BRANCH   1  14
ATOM     14  C   UNL     1       1.414   9.639  18.869  0.00  0.00    +0.000 C 
BRANCH  14  21
ATOM     15  N   UNL     1       3.800   4.370  18.736  0.00  0.00    +0.000 N 
ATOM     16  C   UNL     1       5.117   4.257  18.116  0.00  0.00    +0.000 C 
ATOM     17  C   UNL     1       5.037   4.802  16.698  0.00  0.00    +0.000 C 
ATOM     18  C   UNL     1       4.615   6.273  16.708  0.00  0.00    +0.000 C 
ATOM     19  C   UNL     1       3.606   6.612  17.782  0.00  0.00    +0.000 A 
ATOM     20  C   UNL     1       3.011   7.905  17.790  0.00  0.00    +0.000 A 
ATOM     21  C   UNL     1       2.144   8.299  18.824  0.00  0.00    +0.000 A 
ATOM     22  C   UNL     1       1.916   7.391  19.863  0.00  0.00    +0.000 A 
ATOM     23  C   UNL     1       2.467   6.111  19.838  0.00  0.00    +0.000 A 
ATOM     24  C   UNL     1       3.297   5.678  18.795  0.00  0.00    +0.000 A 
BRANCH  15  26
ATOM     25  C   UNL     1       2.066   2.592  18.957  0.00  0.00    +0.000 C 
ATOM     26  C   UNL     1       3.260   3.305  19.596  0.00  0.00    +0.000 C 
ATOM     27  C   UNL     1       4.339   2.306  20.003  0.00  0.00    +0.000 C 
ENDBRANCH  15  26
ENDBRANCH  14  21
ENDBRANCH   1  14
BRANCH   9  28
ATOM     28  C   UNL     1      -1.393  16.114  20.227  0.00  0.00    +0.000 C 
BRANCH  28  29
ATOM     29  C   UNL     1      -0.408  17.191  20.685  0.00  0.00    +0.000 C 
BRANCH  29  30
ATOM     30  C   UNL     1      -0.294  18.362  19.709  0.00  0.00    +0.000 C 
BRANCH  30  31
ATOM     31  C   UNL     1       0.726  18.068  18.635  0.00  0.00    +0.000 A 
ATOM     32  C   UNL     1       0.562  18.570  17.341  0.00  0.00    +0.000 A 
ATOM     33  C   UNL     1       1.502  18.239  16.380  0.00  0.00    +0.000 A 
ATOM     34  N   UNL     1       2.574  17.454  16.604  0.00  0.00    +0.000 NA
ATOM     35  C   UNL     1       2.711  16.976  17.859  0.00  0.00    +0.000 A 
ATOM     36  C   UNL     1       1.828  17.248  18.893  0.00  0.00    +0.000 A 
ENDBRANCH  30  31
ENDBRANCH  29  30
ENDBRANCH  28  29
ENDBRANCH   9  28
TORSDOF 7
ENDMDL
MODEL 4
REMARK VINA RESULT:      -7.5      0.952      1.312
REMARK  Name = 
REMARK  10 active torsions:
REMARK  status: ('A' for Active; 'I' for Inactive)
REMARK    1  A    between atoms: C_1  and  C_2
REMARK    2  A    between atoms: C_2  and  C_3
REMARK    3  A    between atoms: C_2  and  N_4
REMARK    4  A    between atoms: C_10  and  C_11
REMARK    5  A    between atoms: C_11  and  N_12
REMARK    6  A    between atoms: N_20  and  C_21
REMARK    7  A    between atoms: C_21  and  C_22
REMARK    8  A    between atoms: C_22  and  C_23
REMARK    9  A    between atoms: C_23  and  C_24
REMARK   10  A    between atoms: N_32  and  C_33
REMARK                            x       y       z     vdW  Elec       q    Type
REMARK                         _______ _______ _______ _____ _____    ______ ____
ROOT
ATOM      1  N   UNL     1       0.860  10.299  19.226  0.00  0.00    +0.000 NA
ATOM      2  C   UNL     1      -0.511  10.683  18.931  0.00  0.00    +0.000 C 
ATOM      3  C   UNL     1      -1.206  11.385  20.095  0.00  0.00    +0.000 C 
ATOM      4  C   UNL     1      -0.403  12.565  20.667  0.00  0.00    +0.000 C 
ATOM      5  C   UNL     1       1.106  12.299  20.766  0.00  0.00    +0.000 C 
ATOM      6  C   UNL     1       1.678  11.430  19.648  0.00  0.00    +0.000 C 
ATOM      7  C   UNL     1      -0.953  12.864  22.081  0.00  0.00    +0.000 C 
ATOM      8  O   UNL     1      -0.643  12.252  23.097  0.00  0.00    +0.000 OA
ATOM      9  N   UNL     1      -1.866  13.882  22.018  0.00  0.00    +0.000 N 
ATOM     10  C   UNL     1      -1.732  14.530  20.823  0.00  0.00    +0.000 C 
ATOM     11  O   UNL     1      -2.261  15.586  20.512  0.00  0.00    +0.000 OA
ATOM     12  N   UNL     1      -0.815  13.828  20.045  0.00  0.00    +0.000 N 
ATOM     13  C   UNL     1      -0.273  14.349  18.810  0.00  0.00    +0.000 C 
ENDROOT
BRANCH   1  14
ATOM     14  C   UNL     1       0.990   9.052  19.997  0.00  0.00    +0.000 C 
BRANCH  14  21
ATOM     15  N   UNL     1       4.765   5.574  17.329  0.00  0.00    +0.000 N 
ATOM     16  C   UNL     1       4.575   4.136  17.502  0.00  0.00    +0.000 C 
ATOM     17  C   UNL     1       4.575   3.820  18.990  0.00  0.00    +0.000 C 
ATOM     18  C   UNL     1       3.439   4.562  19.699  0.00  0.00    +0.000 C 
ATOM     19  C   UNL     1       3.176   5.945  19.148  0.00  0.00    +0.000 A 
ATOM     20  C   UNL     1       2.260   6.798  19.826  0.00  0.00    +0.000 A 
ATOM     21  C   UNL     1       1.909   8.052  19.298  0.00  0.00    +0.000 A 
ATOM     22  C   UNL     1       2.460   8.417  18.066  0.00  0.00    +0.000 A 
ATOM     23  C   UNL     1       3.385   7.600  17.417  0.00  0.00    +0.000 A 
ATOM     24  C   UNL     1       3.787   6.366  17.947  0.00  0.00    +0.000 A 
BRANCH  15  26
ATOM     25  C   UNL     1       7.045   6.404  16.754  0.00  0.00    +0.000 C 
ATOM     26  C   UNL     1       5.625   6.114  16.263  0.00  0.00    +0.000 C 
ATOM     27  C   UNL     1       5.646   5.204  15.039  0.00  0.00    +0.000 C 
ENDBRANCH  15  26
ENDBRANCH  14  21
ENDBRANCH   1  14
BRANCH   9  28
ATOM     28  C   UNL     1      -2.437  14.491  23.209  0.00  0.00    +0.000 C 
BRANCH  28  29
ATOM     29  C   UNL     1      -3.846  14.034  23.587  0.00  0.00    +0.000 C 
BRANCH  29  30
ATOM     30  C   UNL     1      -4.225  12.679  22.989  0.00  0.00    +0.000 C 
BRANCH  30  31
ATOM     31  C   UNL     1      -5.178  12.851  21.830  0.00  0.00    +0.000 A 
ATOM     32  C   UNL     1      -6.446  13.405  22.028  0.00  0.00    +0.000 A 
ATOM     33  C   UNL     1      -7.300  13.503  20.944  0.00  0.00    +0.000 A 
ATOM     34  N   UNL     1      -6.995  13.097  19.696  0.00  0.00    +0.000 NA
ATOM     35  C   UNL     1      -5.767  12.561  19.527  0.00  0.00    +0.000 A 
ATOM     36  C   UNL     1      -4.837  12.417  20.546  0.00  0.00    +0.000 A 
ENDBRANCH  30  31
ENDBRANCH  29  30
ENDBRANCH  28  29
ENDBRANCH   9  28
TORSDOF 7
ENDMDL
MODEL 5
REMARK VINA RESULT:      -7.5      0.981      2.218
REMARK  Name = 
REMARK  10 active torsions:
REMARK  status: ('A' for Active; 'I' for Inactive)
REMARK    1  A    between atoms: C_1  and  C_2
REMARK    2  A    between atoms: C_2  and  C_3
REMARK    3  A    between atoms: C_2  and  N_4
REMARK    4  A    between atoms: C_10  and  C_11
REMARK    5  A    between atoms: C_11  and  N_12
REMARK    6  A    between atoms: N_20  and  C_21
REMARK    7  A    between atoms: C_21  and  C_22
REMARK    8  A    between atoms: C_22  and  C_23
REMARK    9  A    between atoms: C_23  and  C_24
REMARK   10  A    between atoms: N_32  and  C_33
REMARK                            x       y       z     vdW  Elec       q    Type
REMARK                         _______ _______ _______ _____ _____    ______ ____
ROOT
ATOM      1  N   UNL     1       0.687  10.240  20.161  0.00  0.00    +0.000 NA
ATOM      2  C   UNL     1      -0.402  10.687  19.305  0.00  0.00    +0.000 C 
ATOM      3  C   UNL     1      -1.554  11.326  20.077  0.00  0.00    +0.000 C 
ATOM      4  C   UNL     1      -1.104  12.439  21.039  0.00  0.00    +0.000 C 
ATOM      5  C   UNL     1       0.195  12.120  21.793  0.00  0.00    +0.000 C 
ATOM      6  C   UNL     1       1.218  11.314  20.994  0.00  0.00    +0.000 C 
ATOM      7  C   UNL     1      -2.239  12.654  22.068  0.00  0.00    +0.000 C 
ATOM      8  O   UNL     1      -2.423  11.963  23.064  0.00  0.00    +0.000 OA
ATOM      9  N   UNL     1      -3.028  13.702  21.674  0.00  0.00    +0.000 N 
ATOM     10  C   UNL     1      -2.367  14.427  20.724  0.00  0.00    +0.000 C 
ATOM     11  O   UNL     1      -2.700  15.519  20.289  0.00  0.00    +0.000 OA
ATOM     12  N   UNL     1      -1.193  13.753  20.397  0.00  0.00    +0.000 N 
ATOM     13  C   UNL     1      -0.150  14.343  19.587  0.00  0.00    +0.000 C 
ENDROOT
BRANCH   1  14
ATOM     14  C   UNL     1       0.457   8.939  20.809  0.00  0.00    +0.000 C 
BRANCH  14  21
ATOM     15  N   UNL     1       3.534   4.579  18.575  0.00  0.00    +0.000 N 
ATOM     16  C   UNL     1       4.803   4.924  17.941  0.00  0.00    +0.000 C 
ATOM     17  C   UNL     1       4.541   5.955  16.853  0.00  0.00    +0.000 C 
ATOM     18  C   UNL     1       3.921   7.221  17.448  0.00  0.00    +0.000 C 
ATOM     19  C   UNL     1       2.959   6.955  18.584  0.00  0.00    +0.000 A 
ATOM     20  C   UNL     1       2.193   8.033  19.110  0.00  0.00    +0.000 A 
ATOM     21  C   UNL     1       1.361   7.854  20.228  0.00  0.00    +0.000 A 
ATOM     22  C   UNL     1       1.340   6.592  20.829  0.00  0.00    +0.000 A 
ATOM     23  C   UNL     1       2.060   5.525  20.294  0.00  0.00    +0.000 A 
ATOM     24  C   UNL     1       2.861   5.666  19.152  0.00  0.00    +0.000 A 
BRANCH  15  26
ATOM     25  C   UNL     1       2.918   2.312  17.739  0.00  0.00    +0.000 C 
ATOM     26  C   UNL     1       3.214   3.194  18.955  0.00  0.00    +0.000 C 
ATOM     27  C   UNL     1       4.309   2.578  19.821  0.00  0.00    +0.000 C 
ENDBRANCH  15  26
ENDBRANCH  14  21
ENDBRANCH   1  14
BRANCH   9  28
ATOM     28  C   UNL     1      -4.081  14.244  22.519  0.00  0.00    +0.000 C 
BRANCH  28  29
ATOM     29  C   UNL     1      -5.492  13.722  22.249  0.00  0.00    +0.000 C 
BRANCH  29  30
ATOM     30  C   UNL     1      -5.920  13.859  20.787  0.00  0.00    +0.000 C 
BRANCH  30  31
ATOM     31  C   UNL     1      -6.236  12.507  20.192  0.00  0.00    +0.000 A 
ATOM     32  C   UNL     1      -7.083  11.617  20.857  0.00  0.00    +0.000 A 
ATOM     33  C   UNL     1      -7.309  10.374  20.292  0.00  0.00    +0.000 A 
ATOM     34  N   UNL     1      -6.762   9.953  19.135  0.00  0.00    +0.000 NA
ATOM     35  C   UNL     1      -5.943  10.826  18.511  0.00  0.00    +0.000 A 
ATOM     36  C   UNL     1      -5.651  12.095  18.991  0.00  0.00    +0.000 A 
ENDBRANCH  30  31
ENDBRANCH  29  30
ENDBRANCH  28  29
ENDBRANCH   9  28
TORSDOF 7
ENDMDL
MODEL 6
REMARK VINA RESULT:      -7.4      1.394      2.608
REMARK  Name = 
REMARK  10 active torsions:
REMARK  status: ('A' for Active; 'I' for Inactive)
REMARK    1  A    between atoms: C_1  and  C_2
REMARK    2  A    between atoms: C_2  and  C_3
REMARK    3  A    between atoms: C_2  and  N_4
REMARK    4  A    between atoms: C_10  and  C_11
REMARK    5  A    between atoms: C_11  and  N_12
REMARK    6  A    between atoms: N_20  and  C_21
REMARK    7  A    between atoms: C_21  and  C_22
REMARK    8  A    between atoms: C_22  and  C_23
REMARK    9  A    between atoms: C_23  and  C_24
REMARK   10  A    between atoms: N_32  and  C_33
REMARK                            x       y       z     vdW  Elec       q    Type
REMARK                         _______ _______ _______ _____ _____    ______ ____
ROOT
ATOM      1  N   UNL     1       0.513  10.439  19.827  0.00  0.00    +0.000 NA
ATOM      2  C   UNL     1      -0.813  10.881  19.424  0.00  0.00    +0.000 C 
ATOM      3  C   UNL     1      -1.490  11.779  20.457  0.00  0.00    +0.000 C 
ATOM      4  C   UNL     1      -0.617  12.962  20.908  0.00  0.00    +0.000 C 
ATOM      5  C   UNL     1       0.862  12.601  21.107  0.00  0.00    +0.000 C 
ATOM      6  C   UNL     1       1.403  11.553  20.136  0.00  0.00    +0.000 C 
ATOM      7  C   UNL     1      -1.189  13.482  22.247  0.00  0.00    +0.000 C 
ATOM      8  O   UNL     1      -0.964  12.988  23.346  0.00  0.00    +0.000 OA
ATOM      9  N   UNL     1      -2.018  14.548  22.013  0.00  0.00    +0.000 N 
ATOM     10  C   UNL     1      -1.792  15.022  20.752  0.00  0.00    +0.000 C 
ATOM     11  O   UNL     1      -2.225  16.064  20.285  0.00  0.00    +0.000 OA
ATOM     12  N   UNL     1      -0.907  14.158  20.112  0.00  0.00    +0.000 N 
ATOM     13  C   UNL     1      -0.283  14.472  18.845  0.00  0.00    +0.000 C 
ENDROOT
BRANCH   1  14
ATOM     14  C   UNL     1       0.518   9.298  20.756  0.00  0.00    +0.000 C 
BRANCH  14  21
ATOM     15  N   UNL     1       3.370   4.689  18.733  0.00  0.00    +0.000 N 
ATOM     16  C   UNL     1       4.636   4.942  18.051  0.00  0.00    +0.000 C 
ATOM     17  C   UNL     1       4.388   5.914  16.907  0.00  0.00    +0.000 C 
ATOM     18  C   UNL     1       3.832   7.238  17.435  0.00  0.00    +0.000 C 
ATOM     19  C   UNL     1       2.888   7.081  18.606  0.00  0.00    +0.000 A 
ATOM     20  C   UNL     1       2.177   8.220  19.080  0.00  0.00    +0.000 A 
ATOM     21  C   UNL     1       1.365   8.144  20.224  0.00  0.00    +0.000 A 
ATOM     22  C   UNL     1       1.309   6.922  20.903  0.00  0.00    +0.000 A 
ATOM     23  C   UNL     1       1.975   5.796  20.420  0.00  0.00    +0.000 A 
ATOM     24  C   UNL     1       2.753   5.835  19.255  0.00  0.00    +0.000 A 
BRANCH  15  26
ATOM     25  C   UNL     1       2.194   2.564  18.167  0.00  0.00    +0.000 C 
ATOM     26  C   UNL     1       3.005   3.343  19.204  0.00  0.00    +0.000 C 
ATOM     27  C   UNL     1       4.229   2.548  19.648  0.00  0.00    +0.000 C 
ENDBRANCH  15  26
ENDBRANCH  14  21
ENDBRANCH   1  14
BRANCH   9  28
ATOM     28  C   UNL     1      -2.579  15.348  23.090  0.00  0.00    +0.000 C 
BRANCH  28  29
ATOM     29  C   UNL     1      -3.908  14.860  23.666  0.00  0.00    +0.000 C 
BRANCH  29  30
ATOM     30  C   UNL     1      -5.112  15.205  22.789  0.00  0.00    +0.000 C 
BRANCH  30  31
ATOM     31  C   UNL     1      -5.871  13.957  22.405  0.00  0.00    +0.000 A 
ATOM     32  C   UNL     1      -6.904  13.476  23.213  0.00  0.00    +0.000 A 
ATOM     33  C   UNL     1      -7.542  12.305  22.842  0.00  0.00    +0.000 A 
ATOM     34  N   UNL     1      -7.234  11.586  21.744  0.00  0.00    +0.000 NA
ATOM     35  C   UNL     1      -6.231  12.067  20.979  0.00  0.00    +0.000 A 
ATOM     36  C   UNL     1      -5.528  13.229  21.262  0.00  0.00    +0.000 A 
ENDBRANCH  30  31
ENDBRANCH  29  30
ENDBRANCH  28  29
ENDBRANCH   9  28
TORSDOF 7
ENDMDL
MODEL 7
REMARK VINA RESULT:      -7.4      2.069      3.961
REMARK  Name = 
REMARK  10 active torsions:
REMARK  status: ('A' for Active; 'I' for Inactive)
REMARK    1  A    between atoms: C_1  and  C_2
REMARK    2  A    between atoms: C_2  and  C_3
REMARK    3  A    between atoms: C_2  and  N_4
REMARK    4  A    between atoms: C_10  and  C_11
REMARK    5  A    between atoms: C_11  and  N_12
REMARK    6  A    between atoms: N_20  and  C_21
REMARK    7  A    between atoms: C_21  and  C_22
REMARK    8  A    between atoms: C_22  and  C_23
REMARK    9  A    between atoms: C_23  and  C_24
REMARK   10  A    between atoms: N_32  and  C_33
REMARK                            x       y       z     vdW  Elec       q    Type
REMARK                         _______ _______ _______ _____ _____    ______ ____
ROOT
ATOM      1  N   UNL     1       0.646  10.631  19.870  0.00  0.00    +0.000 NA
ATOM      2  C   UNL     1      -0.544  11.028  19.133  0.00  0.00    +0.000 C 
ATOM      3  C   UNL     1      -1.685  11.495  20.034  0.00  0.00    +0.000 C 
ATOM      4  C   UNL     1      -1.265  12.575  21.045  0.00  0.00    +0.000 C 
ATOM      5  C   UNL     1       0.114  12.332  21.675  0.00  0.00    +0.000 C 
ATOM      6  C   UNL     1       1.140  11.689  20.744  0.00  0.00    +0.000 C 
ATOM      7  C   UNL     1      -2.329  12.604  22.168  0.00  0.00    +0.000 C 
ATOM      8  O   UNL     1      -2.368  11.830  23.117  0.00  0.00    +0.000 OA
ATOM      9  N   UNL     1      -3.240  13.595  21.916  0.00  0.00    +0.000 N 
ATOM     10  C   UNL     1      -2.727  14.447  20.980  0.00  0.00    +0.000 C 
ATOM     11  O   UNL     1      -3.194  15.529  20.656  0.00  0.00    +0.000 OA
ATOM     12  N   UNL     1      -1.526  13.916  20.516  0.00  0.00    +0.000 N 
ATOM     13  C   UNL     1      -0.610  14.662  19.681  0.00  0.00    +0.000 C 
ENDROOT
BRANCH   1  14
ATOM     14  C   UNL     1       0.590   9.271  20.429  0.00  0.00    +0.000 C 
BRANCH  14  21
ATOM     15  N   UNL     1       4.414   5.977  17.603  0.00  0.00    +0.000 N 
ATOM     16  C   UNL     1       4.248   4.530  17.711  0.00  0.00    +0.000 C 
ATOM     17  C   UNL     1       4.255   4.147  19.184  0.00  0.00    +0.000 C 
ATOM     18  C   UNL     1       3.109   4.838  19.927  0.00  0.00    +0.000 C 
ATOM     19  C   UNL     1       2.822   6.241  19.438  0.00  0.00    +0.000 A 
ATOM     20  C   UNL     1       1.895   7.047  20.156  0.00  0.00    +0.000 A 
ATOM     21  C   UNL     1       1.523   8.318  19.685  0.00  0.00    +0.000 A 
ATOM     22  C   UNL     1       2.066   8.747  18.470  0.00  0.00    +0.000 A 
ATOM     23  C   UNL     1       3.003   7.975  17.784  0.00  0.00    +0.000 A 
ATOM     24  C   UNL     1       3.425   6.725  18.257  0.00  0.00    +0.000 A 
BRANCH  15  26
ATOM     25  C   UNL     1       6.616   7.039  17.110  0.00  0.00    +0.000 C 
ATOM     26  C   UNL     1       5.264   6.578  16.562  0.00  0.00    +0.000 C 
ATOM     27  C   UNL     1       5.448   5.641  15.372  0.00  0.00    +0.000 C 
ENDBRANCH  15  26
ENDBRANCH  14  21
ENDBRANCH   1  14
BRANCH   9  28
ATOM     28  C   UNL     1      -4.268  13.969  22.874  0.00  0.00    +0.000 C 
BRANCH  28  29
ATOM     29  C   UNL     1      -3.938  15.153  23.784  0.00  0.00    +0.000 C 
BRANCH  29  30
ATOM     30  C   UNL     1      -3.115  14.762  25.012  0.00  0.00    +0.000 C 
BRANCH  30  31
ATOM     31  C   UNL     1      -1.816  15.532  25.055  0.00  0.00    +0.000 A 
ATOM     32  C   UNL     1      -1.103  15.789  23.881  0.00  0.00    +0.000 A 
ATOM     33  C   UNL     1       0.104  16.461  23.975  0.00  0.00    +0.000 A 
ATOM     34  N   UNL     1       0.648  16.887  25.132  0.00  0.00    +0.000 NA
ATOM     35  C   UNL     1      -0.055  16.625  26.254  0.00  0.00    +0.000 A 
ATOM     36  C   UNL     1      -1.272  15.959  26.269  0.00  0.00    +0.000 A 
ENDBRANCH  30  31
ENDBRANCH  29  30
ENDBRANCH  28  29
ENDBRANCH   9  28
TORSDOF 7
ENDMDL
MODEL 8
REMARK VINA RESULT:      -7.3      2.862      5.082
REMARK  Name = 
REMARK  10 active torsions:
REMARK  status: ('A' for Active; 'I' for Inactive)
REMARK    1  A    between atoms: C_1  and  C_2
REMARK    2  A    between atoms: C_2  and  C_3
REMARK    3  A    between atoms: C_2  and  N_4
REMARK    4  A    between atoms: C_10  and  C_11
REMARK    5  A    between atoms: C_11  and  N_12
REMARK    6  A    between atoms: N_20  and  C_21
REMARK    7  A    between atoms: C_21  and  C_22
REMARK    8  A    between atoms: C_22  and  C_23
REMARK    9  A    between atoms: C_23  and  C_24
REMARK   10  A    between atoms: N_32  and  C_33
REMARK                            x       y       z     vdW  Elec       q    Type
REMARK                         _______ _______ _______ _____ _____    ______ ____
ROOT
ATOM      1  N   UNL     1       0.722   9.469  19.929  0.00  0.00    +0.000 NA
ATOM      2  C   UNL     1       1.428  10.215  20.960  0.00  0.00    +0.000 C 
ATOM      3  C   UNL     1       1.221  11.725  20.862  0.00  0.00    +0.000 C 
ATOM      4  C   UNL     1      -0.258  12.137  20.784  0.00  0.00    +0.000 C 
ATOM      5  C   UNL     1      -1.112  11.221  19.895  0.00  0.00    +0.000 C 
ATOM      6  C   UNL     1      -0.709   9.748  19.920  0.00  0.00    +0.000 C 
ATOM      7  C   UNL     1      -0.313  13.576  20.218  0.00  0.00    +0.000 C 
ATOM      8  O   UNL     1      -0.243  13.865  19.029  0.00  0.00    +0.000 OA
ATOM      9  N   UNL     1      -0.409  14.475  21.247  0.00  0.00    +0.000 N 
ATOM     10  C   UNL     1      -0.781  13.816  22.384  0.00  0.00    +0.000 C 
ATOM     11  O   UNL     1      -1.129  14.331  23.435  0.00  0.00    +0.000 OA
ATOM     12  N   UNL     1      -0.785  12.449  22.116  0.00  0.00    +0.000 N 
ATOM     13  C   UNL     1      -1.339  11.473  23.028  0.00  0.00    +0.000 C 
ENDROOT
BRANCH   1  14
ATOM     14  C   UNL     1       1.408   9.433  18.628  0.00  0.00    +0.000 C 
BRANCH  14  21
ATOM     15  N   UNL     1       4.901   4.864  18.010  0.00  0.00    +0.000 N 
ATOM     16  C   UNL     1       4.371   3.566  18.418  0.00  0.00    +0.000 C 
ATOM     17  C   UNL     1       3.924   3.657  19.870  0.00  0.00    +0.000 C 
ATOM     18  C   UNL     1       2.832   4.716  20.033  0.00  0.00    +0.000 C 
ATOM     19  C   UNL     1       3.019   5.929  19.149  0.00  0.00    +0.000 A 
ATOM     20  C   UNL     1       2.166   7.054  19.326  0.00  0.00    +0.000 A 
ATOM     21  C   UNL     1       2.237   8.162  18.464  0.00  0.00    +0.000 A 
ATOM     22  C   UNL     1       3.149   8.105  17.405  0.00  0.00    +0.000 A 
ATOM     23  C   UNL     1       4.011   7.021  17.251  0.00  0.00    +0.000 A 
ATOM     24  C   UNL     1       3.992   5.925  18.125  0.00  0.00    +0.000 A 
BRANCH  15  26
ATOM     25  C   UNL     1       7.391   4.744  17.948  0.00  0.00    +0.000 C 
ATOM     26  C   UNL     1       6.099   4.973  17.161  0.00  0.00    +0.000 C 
ATOM     27  C   UNL     1       6.023   4.043  15.955  0.00  0.00    +0.000 C 
ENDBRANCH  15  26
ENDBRANCH  14  21
ENDBRANCH   1  14
BRANCH   9  28
ATOM     28  C   UNL     1      -0.639  15.893  21.022  0.00  0.00    +0.000 C 
BRANCH  28  29
ATOM     29  C   UNL     1       0.574  16.806  21.203  0.00  0.00    +0.000 C 
BRANCH  29  30
ATOM     30  C   UNL     1       1.903  16.049  21.233  0.00  0.00    +0.000 C 
BRANCH  30  31
ATOM     31  C   UNL     1       2.464  15.895  19.838  0.00  0.00    +0.000 A 
ATOM     32  C   UNL     1       3.187  14.754  19.485  0.00  0.00    +0.000 A 
ATOM     33  C   UNL     1       3.718  14.678  18.208  0.00  0.00    +0.000 A 
ATOM     34  N   UNL     1       3.587  15.638  17.272  0.00  0.00    +0.000 NA
ATOM     35  C   UNL     1       2.887  16.734  17.635  0.00  0.00    +0.000 A 
ATOM     36  C   UNL     1       2.316  16.909  18.887  0.00  0.00    +0.000 A 
ENDBRANCH  30  31
ENDBRANCH  29  30
ENDBRANCH  28  29
ENDBRANCH   9  28
TORSDOF 7
ENDMDL
MODEL 9
REMARK VINA RESULT:      -7.3      2.611      5.631
REMARK  Name = 
REMARK  10 active torsions:
REMARK  status: ('A' for Active; 'I' for Inactive)
REMARK    1  A    between atoms: C_1  and  C_2
REMARK    2  A    between atoms: C_2  and  C_3
REMARK    3  A    between atoms: C_2  and  N_4
REMARK    4  A    between atoms: C_10  and  C_11
REMARK    5  A    between atoms: C_11  and  N_12
REMARK    6  A    between atoms: N_20  and  C_21
REMARK    7  A    between atoms: C_21  and  C_22
REMARK    8  A    between atoms: C_22  and  C_23
REMARK    9  A    between atoms: C_23  and  C_24
REMARK   10  A    between atoms: N_32  and  C_33
REMARK                            x       y       z     vdW  Elec       q    Type
REMARK                         _______ _______ _______ _____ _____    ______ ____
ROOT
ATOM      1  N   UNL     1      -0.149  10.127  19.189  0.00  0.00    +0.000 NA
ATOM      2  C   UNL     1      -0.433  10.572  20.545  0.00  0.00    +0.000 C 
ATOM      3  C   UNL     1      -0.326  12.085  20.720  0.00  0.00    +0.000 C 
ATOM      4  C   UNL     1      -1.140  12.880  19.686  0.00  0.00    +0.000 C 
ATOM      5  C   UNL     1      -1.076  12.301  18.266  0.00  0.00    +0.000 C 
ATOM      6  C   UNL     1      -1.001  10.777  18.199  0.00  0.00    +0.000 C 
ATOM      7  C   UNL     1      -0.583  14.323  19.663  0.00  0.00    +0.000 C 
ATOM      8  O   UNL     1       0.415  14.680  19.048  0.00  0.00    +0.000 OA
ATOM      9  N   UNL     1      -1.348  15.128  20.466  0.00  0.00    +0.000 N 
ATOM     10  C   UNL     1      -2.531  14.500  20.732  0.00  0.00    +0.000 C 
ATOM     11  O   UNL     1      -3.510  15.001  21.264  0.00  0.00    +0.000 OA
ATOM     12  N   UNL     1      -2.470  13.210  20.209  0.00  0.00    +0.000 N 
ATOM     13  C   UNL     1      -3.625  12.345  20.119  0.00  0.00    +0.000 C 
ENDROOT
BRANCH   1  14
ATOM     14  C   UNL     1       1.284  10.018  18.873  0.00  0.00    +0.000 C 
BRANCH  14  21
ATOM     15  N   UNL     1       2.830   4.511  19.740  0.00  0.00    +0.000 N 
ATOM     16  C   UNL     1       4.089   4.076  19.143  0.00  0.00    +0.000 C 
ATOM     17  C   UNL     1       4.039   4.348  17.647  0.00  0.00    +0.000 C 
ATOM     18  C   UNL     1       3.848   5.842  17.376  0.00  0.00    +0.000 C 
ATOM     19  C   UNL     1       2.944   6.533  18.373  0.00  0.00    +0.000 A 
ATOM     20  C   UNL     1       2.555   7.882  18.136  0.00  0.00    +0.000 A 
ATOM     21  C   UNL     1       1.799   8.596  19.081  0.00  0.00    +0.000 A 
ATOM     22  C   UNL     1       1.474   7.948  20.278  0.00  0.00    +0.000 A 
ATOM     23  C   UNL     1       1.822   6.616  20.496  0.00  0.00    +0.000 A 
ATOM     24  C   UNL     1       2.535   5.868  19.549  0.00  0.00    +0.000 A 
BRANCH  15  26
ATOM     25  C   UNL     1       0.798   3.201  20.354  0.00  0.00    +0.000 C 
ATOM     26  C   UNL     1       2.166   3.726  20.794  0.00  0.00    +0.000 C 
ATOM     27  C   UNL     1       3.052   2.589  21.294  0.00  0.00    +0.000 C 
ENDBRANCH  15  26
ENDBRANCH  14  21
ENDBRANCH   1  14
BRANCH   9  28
ATOM     28  C   UNL     1      -1.166  16.569  20.523  0.00  0.00    +0.000 C 
BRANCH  28  29
ATOM     29  C   UNL     1      -1.258  17.310  19.188  0.00  0.00    +0.000 C 
BRANCH  29  30
ATOM     30  C   UNL     1      -0.234  18.437  19.048  0.00  0.00    +0.000 C 
BRANCH  30  31
ATOM     31  C   UNL     1       1.133  17.882  18.721  0.00  0.00    +0.000 A 
ATOM     32  C   UNL     1       2.069  17.655  19.733  0.00  0.00    +0.000 A 
ATOM     33  C   UNL     1       3.322  17.186  19.380  0.00  0.00    +0.000 A 
ATOM     34  N   UNL     1       3.711  16.933  18.115  0.00  0.00    +0.000 NA
ATOM     35  C   UNL     1       2.793  17.162  17.152  0.00  0.00    +0.000 A 
ATOM     36  C   UNL     1       1.511  17.632  17.399  0.00  0.00    +0.000 A 
ENDBRANCH  30  31
ENDBRANCH  29  30
ENDBRANCH  28  29
ENDBRANCH   9  28
TORSDOF 7
ENDMDL
